MODEL 1
REMARK VINA RESULT:    -8.002      0.000      0.000
REMARK INTER + INTRA:         -14.289
REMARK INTER:                 -12.446
REMARK INTRA:                  -1.843
REMARK UNBOUND:                -1.843
REMARK  Name = 
REMARK  10 active torsions:
REMARK  status: ('A' for Active; 'I' for Inactive)
REMARK    1  A    between atoms: C_2  and  C_23
REMARK    2  A    between atoms: N_3  and  C_4
REMARK    3  A    between atoms: C_4  and  C_5
REMARK    4  A    between atoms: C_8  and  C_9
REMARK    5  A    between atoms: C_9  and  N_10
REMARK    6  A    between atoms: N_10  and  C_11
REMARK    7  A    between atoms: N_10  and  C_14
REMARK    8  A    between atoms: C_11  and  C_12
REMARK    9  A    between atoms: C_12  and  O_13
REMARK   10  A    between atoms: C_14  and  C_15
REMARK                            x       y       z     vdW  Elec       q    Type
REMARK                         _______ _______ _______ _____ _____    ______ ____
ROOT
ATOM      1  C   UNL     1      46.566   7.704  12.597  0.00  0.00    +0.000 A 
ATOM      2  C   UNL     1      47.137   6.733  11.761  0.00  0.00    +0.000 A 
ATOM      3  C   UNL     1      46.338   5.978  10.900  0.00  0.00    +0.000 A 
ATOM      4  C   UNL     1      44.950   6.145  10.899  0.00  0.00    +0.000 A 
ATOM      5  C   UNL     1      44.395   7.203  11.635  0.00  0.00    +0.000 A 
ATOM      6  C   UNL     1      45.201   7.984  12.468  0.00  0.00    +0.000 A 
ENDROOT
BRANCH   1   7
ATOM      7  C   UNL     1      47.408   8.407  13.628  0.00  0.00    +0.000 C 
BRANCH   7  10
ATOM      8  O   UNL     1      49.780   7.030  14.062  0.00  0.00    +0.000 OA
ATOM      9  C   UNL     1      48.911   6.992  14.928  0.00  0.00    +0.000 C 
ATOM     10  N   UNL     1      47.679   7.577  14.766  0.00  0.00    +0.000 N 
ATOM     11  H   UNL     1      47.083   7.716  15.575  0.00  0.00    +0.000 HD
BRANCH   9  12
ATOM     12  C   UNL     1      49.109   6.276  16.189  0.00  0.00    +0.000 A 
ATOM     13  C   UNL     1      50.012   6.740  17.140  0.00  0.00    +0.000 A 
ATOM     14  S   UNL     1      50.093   5.750  18.530  0.00  0.00    +0.000 S 
ATOM     15  C   UNL     1      48.892   4.704  17.923  0.00  0.00    +0.000 A 
ATOM     16  N   UNL     1      48.455   3.633  18.642  0.00  0.00    +0.000 NA
ATOM     17  C   UNL     1      47.522   2.948  18.063  0.00  0.00    +0.000 A 
ATOM     18  N   UNL     1      46.986   3.238  16.839  0.00  0.00    +0.000 N 
ATOM     19  C   UNL     1      47.420   4.281  16.064  0.00  0.00    +0.000 A 
ATOM     20  O   UNL     1      46.967   4.465  14.945  0.00  0.00    +0.000 OA
ATOM     21  C   UNL     1      48.454   5.090  16.672  0.00  0.00    +0.000 A 
ATOM     22  H   UNL     1      46.266   2.658  16.432  0.00  0.00    +0.000 HD
ENDBRANCH   9  12
ENDBRANCH   7  10
ENDBRANCH   1   7
BRANCH   4  23
ATOM     23  C   UNL     1      44.058   5.179  10.146  0.00  0.00    +0.000 C 
BRANCH  23  24
ATOM     24  N   UNL     1      44.615   3.797  10.003  0.00  0.00    +0.000 NA
BRANCH  24  25
ATOM     25  C   UNL     1      43.891   2.840  10.882  0.00  0.00    +0.000 C 
BRANCH  25  26
ATOM     26  C   UNL     1      44.069   3.018  12.407  0.00  0.00    +0.000 C 
BRANCH  26  27
ATOM     27  O   UNL     1      45.445   2.864  12.765  0.00  0.00    +0.000 OA
ATOM     28  H   UNL     1      45.945   2.706  11.944  0.00  0.00    +0.000 HD
ENDBRANCH  26  27
ENDBRANCH  25  26
ENDBRANCH  24  25
BRANCH  24  29
ATOM     29  C   UNL     1      44.494   3.377   8.587  0.00  0.00    +0.000 C 
BRANCH  29  30
ATOM     30  C   UNL     1      45.754   2.747   8.035  0.00  0.00    +0.000 A 
ATOM     31  C   UNL     1      46.683   3.505   7.316  0.00  0.00    +0.000 A 
ATOM     32  C   UNL     1      47.773   2.860   6.755  0.00  0.00    +0.000 A 
ATOM     33  N   UNL     1      48.008   1.535   6.875  0.00  0.00    +0.000 NA
ATOM     34  C   UNL     1      47.112   0.824   7.591  0.00  0.00    +0.000 A 
ATOM     35  C   UNL     1      45.987   1.376   8.183  0.00  0.00    +0.000 A 
ENDBRANCH  29  30
ENDBRANCH  24  29
ENDBRANCH  23  24
ENDBRANCH   4  23
TORSDOF 10
ENDMDL
MODEL 2
REMARK VINA RESULT:    -7.158      2.267      2.814
REMARK INTER + INTRA:         -12.976
REMARK INTER:                 -11.692
REMARK INTRA:                  -1.284
REMARK UNBOUND:                -1.843
REMARK  Name = 
REMARK  10 active torsions:
REMARK  status: ('A' for Active; 'I' for Inactive)
REMARK    1  A    between atoms: C_2  and  C_23
REMARK    2  A    between atoms: N_3  and  C_4
REMARK    3  A    between atoms: C_4  and  C_5
REMARK    4  A    between atoms: C_8  and  C_9
REMARK    5  A    between atoms: C_9  and  N_10
REMARK    6  A    between atoms: N_10  and  C_11
REMARK    7  A    between atoms: N_10  and  C_14
REMARK    8  A    between atoms: C_11  and  C_12
REMARK    9  A    between atoms: C_12  and  O_13
REMARK   10  A    between atoms: C_14  and  C_15
REMARK                            x       y       z     vdW  Elec       q    Type
REMARK                         _______ _______ _______ _____ _____    ______ ____
ROOT
ATOM      1  C   UNL     1      48.107   6.657  13.553  0.00  0.00    +0.000 A 
ATOM      2  C   UNL     1      47.260   5.568  13.802  0.00  0.00    +0.000 A 
ATOM      3  C   UNL     1      46.268   5.213  12.885  0.00  0.00    +0.000 A 
ATOM      4  C   UNL     1      46.076   5.974  11.727  0.00  0.00    +0.000 A 
ATOM      5  C   UNL     1      47.005   6.977  11.415  0.00  0.00    +0.000 A 
ATOM      6  C   UNL     1      48.021   7.307  12.316  0.00  0.00    +0.000 A 
ENDROOT
BRANCH   1   7
ATOM      7  C   UNL     1      49.070   7.127  14.611  0.00  0.00    +0.000 C 
BRANCH   7  10
ATOM      8  O   UNL     1      50.726   5.838  16.428  0.00  0.00    +0.000 OA
ATOM      9  C   UNL     1      49.591   6.142  16.781  0.00  0.00    +0.000 C 
ATOM     10  N   UNL     1      48.678   6.711  15.926  0.00  0.00    +0.000 N 
ATOM     11  H   UNL     1      47.844   7.147  16.304  0.00  0.00    +0.000 HD
BRANCH   9  12
ATOM     12  C   UNL     1      49.106   5.879  18.137  0.00  0.00    +0.000 A 
ATOM     13  C   UNL     1      49.243   4.621  18.712  0.00  0.00    +0.000 A 
ATOM     14  S   UNL     1      48.602   4.531  20.293  0.00  0.00    +0.000 S 
ATOM     15  C   UNL     1      48.168   6.179  20.271  0.00  0.00    +0.000 A 
ATOM     16  N   UNL     1      47.585   6.774  21.348  0.00  0.00    +0.000 NA
ATOM     17  C   UNL     1      47.339   8.035  21.193  0.00  0.00    +0.000 A 
ATOM     18  N   UNL     1      47.627   8.752  20.064  0.00  0.00    +0.000 N 
ATOM     19  C   UNL     1      48.177   8.189  18.944  0.00  0.00    +0.000 A 
ATOM     20  O   UNL     1      48.352   8.846  17.929  0.00  0.00    +0.000 OA
ATOM     21  C   UNL     1      48.486   6.781  19.070  0.00  0.00    +0.000 A 
ATOM     22  H   UNL     1      47.399   9.734  19.996  0.00  0.00    +0.000 HD
ENDBRANCH   9  12
ENDBRANCH   7  10
ENDBRANCH   1   7
BRANCH   4  23
ATOM     23  C   UNL     1      44.866   5.742  10.846  0.00  0.00    +0.000 C 
BRANCH  23  24
ATOM     24  N   UNL     1      44.627   4.312  10.475  0.00  0.00    +0.000 NA
BRANCH  24  25
ATOM     25  C   UNL     1      43.384   3.799  11.112  0.00  0.00    +0.000 C 
BRANCH  25  26
ATOM     26  C   UNL     1      43.550   2.699  12.185  0.00  0.00    +0.000 C 
BRANCH  26  27
ATOM     27  O   UNL     1      42.972   1.474  11.730  0.00  0.00    +0.000 OA
ATOM     28  H   UNL     1      43.680   0.956  11.306  0.00  0.00    +0.000 HD
ENDBRANCH  26  27
ENDBRANCH  25  26
ENDBRANCH  24  25
BRANCH  24  29
ATOM     29  C   UNL     1      44.520   4.213   9.000  0.00  0.00    +0.000 C 
BRANCH  29  30
ATOM     30  C   UNL     1      45.542   3.283   8.384  0.00  0.00    +0.000 A 
ATOM     31  C   UNL     1      46.489   3.757   7.471  0.00  0.00    +0.000 A 
ATOM     32  C   UNL     1      47.341   2.846   6.866  0.00  0.00    +0.000 A 
ATOM     33  N   UNL     1      47.328   1.520   7.120  0.00  0.00    +0.000 NA
ATOM     34  C   UNL     1      46.422   1.085   8.020  0.00  0.00    +0.000 A 
ATOM     35  C   UNL     1      45.522   1.914   8.671  0.00  0.00    +0.000 A 
ENDBRANCH  29  30
ENDBRANCH  24  29
ENDBRANCH  23  24
ENDBRANCH   4  23
TORSDOF 10
ENDMDL
MODEL 3
REMARK VINA RESULT:    -7.010      2.099      2.564
REMARK INTER + INTRA:         -12.746
REMARK INTER:                 -11.569
REMARK INTRA:                  -1.177
REMARK UNBOUND:                -1.843
REMARK  Name = 
REMARK  10 active torsions:
REMARK  status: ('A' for Active; 'I' for Inactive)
REMARK    1  A    between atoms: C_2  and  C_23
REMARK    2  A    between atoms: N_3  and  C_4
REMARK    3  A    between atoms: C_4  and  C_5
REMARK    4  A    between atoms: C_8  and  C_9
REMARK    5  A    between atoms: C_9  and  N_10
REMARK    6  A    between atoms: N_10  and  C_11
REMARK    7  A    between atoms: N_10  and  C_14
REMARK    8  A    between atoms: C_11  and  C_12
REMARK    9  A    between atoms: C_12  and  O_13
REMARK   10  A    between atoms: C_14  and  C_15
REMARK                            x       y       z     vdW  Elec       q    Type
REMARK                         _______ _______ _______ _____ _____    ______ ____
ROOT
ATOM      1  C   UNL     1      48.335   6.696  13.428  0.00  0.00    +0.000 A 
ATOM      2  C   UNL     1      47.401   5.713  13.784  0.00  0.00    +0.000 A 
ATOM      3  C   UNL     1      46.358   5.376  12.919  0.00  0.00    +0.000 A 
ATOM      4  C   UNL     1      46.202   6.056  11.706  0.00  0.00    +0.000 A 
ATOM      5  C   UNL     1      47.208   6.941  11.293  0.00  0.00    +0.000 A 
ATOM      6  C   UNL     1      48.273   7.249  12.144  0.00  0.00    +0.000 A 
ENDROOT
BRANCH   1   7
ATOM      7  C   UNL     1      49.364   7.161  14.425  0.00  0.00    +0.000 C 
BRANCH   7  10
ATOM      8  O   UNL     1      50.872   7.769  16.675  0.00  0.00    +0.000 OA
ATOM      9  C   UNL     1      49.702   7.433  16.825  0.00  0.00    +0.000 C 
ATOM     10  N   UNL     1      48.904   7.040  15.777  0.00  0.00    +0.000 N 
ATOM     11  H   UNL     1      47.900   6.988  15.907  0.00  0.00    +0.000 HD
BRANCH   9  12
ATOM     12  C   UNL     1      49.076   7.383  18.147  0.00  0.00    +0.000 A 
ATOM     13  C   UNL     1      48.383   8.479  18.651  0.00  0.00    +0.000 A 
ATOM     14  S   UNL     1      47.742   8.210  20.212  0.00  0.00    +0.000 S 
ATOM     15  C   UNL     1      48.329   6.609  20.238  0.00  0.00    +0.000 A 
ATOM     16  N   UNL     1      48.100   5.787  21.298  0.00  0.00    +0.000 NA
ATOM     17  C   UNL     1      48.583   4.594  21.161  0.00  0.00    +0.000 A 
ATOM     18  N   UNL     1      49.266   4.149  20.062  0.00  0.00    +0.000 N 
ATOM     19  C   UNL     1      49.552   4.951  18.989  0.00  0.00    +0.000 A 
ATOM     20  O   UNL     1      50.227   4.540  18.058  0.00  0.00    +0.000 OA
ATOM     21  C   UNL     1      49.021   6.294  19.085  0.00  0.00    +0.000 A 
ATOM     22  H   UNL     1      49.630   3.209  20.017  0.00  0.00    +0.000 HD
ENDBRANCH   9  12
ENDBRANCH   7  10
ENDBRANCH   1   7
BRANCH   4  23
ATOM     23  C   UNL     1      44.953   5.864  10.871  0.00  0.00    +0.000 C 
BRANCH  23  24
ATOM     24  N   UNL     1      44.549   4.438  10.667  0.00  0.00    +0.000 NA
BRANCH  24  25
ATOM     25  C   UNL     1      43.328   4.114  11.452  0.00  0.00    +0.000 C 
BRANCH  25  26
ATOM     26  C   UNL     1      42.484   5.306  11.957  0.00  0.00    +0.000 C 
BRANCH  26  27
ATOM     27  O   UNL     1      42.574   5.407  13.380  0.00  0.00    +0.000 OA
ATOM     28  H   UNL     1      41.665   5.442  13.729  0.00  0.00    +0.000 HD
ENDBRANCH  26  27
ENDBRANCH  25  26
ENDBRANCH  24  25
BRANCH  24  29
ATOM     29  C   UNL     1      44.298   4.214   9.223  0.00  0.00    +0.000 C 
BRANCH  29  30
ATOM     30  C   UNL     1      45.347   3.350   8.557  0.00  0.00    +0.000 A 
ATOM     31  C   UNL     1      46.249   3.893   7.637  0.00  0.00    +0.000 A 
ATOM     32  C   UNL     1      47.127   3.040   6.987  0.00  0.00    +0.000 A 
ATOM     33  N   UNL     1      47.180   1.707   7.202  0.00  0.00    +0.000 NA
ATOM     34  C   UNL     1      46.316   1.206   8.109  0.00  0.00    +0.000 A 
ATOM     35  C   UNL     1      45.395   1.974   8.804  0.00  0.00    +0.000 A 
ENDBRANCH  29  30
ENDBRANCH  24  29
ENDBRANCH  23  24
ENDBRANCH   4  23
TORSDOF 10
ENDMDL
MODEL 4
REMARK VINA RESULT:    -6.831      1.304      1.729
REMARK INTER + INTRA:         -12.467
REMARK INTER:                 -10.326
REMARK INTRA:                  -2.141
REMARK UNBOUND:                -1.843
REMARK  Name = 
REMARK  10 active torsions:
REMARK  status: ('A' for Active; 'I' for Inactive)
REMARK    1  A    between atoms: C_2  and  C_23
REMARK    2  A    between atoms: N_3  and  C_4
REMARK    3  A    between atoms: C_4  and  C_5
REMARK    4  A    between atoms: C_8  and  C_9
REMARK    5  A    between atoms: C_9  and  N_10
REMARK    6  A    between atoms: N_10  and  C_11
REMARK    7  A    between atoms: N_10  and  C_14
REMARK    8  A    between atoms: C_11  and  C_12
REMARK    9  A    between atoms: C_12  and  O_13
REMARK   10  A    between atoms: C_14  and  C_15
REMARK                            x       y       z     vdW  Elec       q    Type
REMARK                         _______ _______ _______ _____ _____    ______ ____
ROOT
ATOM      1  C   UNL     1      48.371   8.104  13.325  0.00  0.00    +0.000 A 
ATOM      2  C   UNL     1      48.537   7.280  12.203  0.00  0.00    +0.000 A 
ATOM      3  C   UNL     1      47.441   6.923  11.415  0.00  0.00    +0.000 A 
ATOM      4  C   UNL     1      46.154   7.342  11.767  0.00  0.00    +0.000 A 
ATOM      5  C   UNL     1      46.006   8.270  12.808  0.00  0.00    +0.000 A 
ATOM      6  C   UNL     1      47.110   8.657  13.573  0.00  0.00    +0.000 A 
ENDROOT
BRANCH   1   7
ATOM      7  C   UNL     1      49.528   8.360  14.255  0.00  0.00    +0.000 C 
BRANCH   7  10
ATOM      8  O   UNL     1      48.498   8.722  16.808  0.00  0.00    +0.000 OA
ATOM      9  C   UNL     1      48.998   7.638  16.523  0.00  0.00    +0.000 C 
ATOM     10  N   UNL     1      49.600   7.395  15.312  0.00  0.00    +0.000 N 
ATOM     11  H   UNL     1      49.796   6.439  15.036  0.00  0.00    +0.000 HD
BRANCH   9  12
ATOM     12  C   UNL     1      49.029   6.528  17.477  0.00  0.00    +0.000 A 
ATOM     13  C   UNL     1      49.594   6.685  18.738  0.00  0.00    +0.000 A 
ATOM     14  S   UNL     1      49.534   5.264  19.684  0.00  0.00    +0.000 S 
ATOM     15  C   UNL     1      48.709   4.415  18.458  0.00  0.00    +0.000 A 
ATOM     16  N   UNL     1      48.318   3.123  18.628  0.00  0.00    +0.000 NA
ATOM     17  C   UNL     1      47.679   2.620  17.621  0.00  0.00    +0.000 A 
ATOM     18  N   UNL     1      47.391   3.294  16.466  0.00  0.00    +0.000 N 
ATOM     19  C   UNL     1      47.796   4.582  16.235  0.00  0.00    +0.000 A 
ATOM     20  O   UNL     1      47.584   5.126  15.162  0.00  0.00    +0.000 OA
ATOM     21  C   UNL     1      48.504   5.196  17.337  0.00  0.00    +0.000 A 
ATOM     22  H   UNL     1      46.899   2.845  15.708  0.00  0.00    +0.000 HD
ENDBRANCH   9  12
ENDBRANCH   7  10
ENDBRANCH   1   7
BRANCH   4  23
ATOM     23  C   UNL     1      44.939   6.775  11.062  0.00  0.00    +0.000 C 
BRANCH  23  24
ATOM     24  N   UNL     1      44.750   5.300  11.229  0.00  0.00    +0.000 NA
BRANCH  24  25
ATOM     25  C   UNL     1      43.912   5.005  12.422  0.00  0.00    +0.000 C 
BRANCH  25  26
ATOM     26  C   UNL     1      44.477   3.988  13.440  0.00  0.00    +0.000 C 
BRANCH  26  27
ATOM     27  O   UNL     1      45.803   3.604  13.071  0.00  0.00    +0.000 OA
ATOM     28  H   UNL     1      45.756   2.701  12.709  0.00  0.00    +0.000 HD
ENDBRANCH  26  27
ENDBRANCH  25  26
ENDBRANCH  24  25
BRANCH  24  29
ATOM     29  C   UNL     1      44.106   4.759  10.009  0.00  0.00    +0.000 C 
BRANCH  29  30
ATOM     30  C   UNL     1      45.022   3.882   9.183  0.00  0.00    +0.000 A 
ATOM     31  C   UNL     1      45.830   4.427   8.181  0.00  0.00    +0.000 A 
ATOM     32  C   UNL     1      46.579   3.569   7.393  0.00  0.00    +0.000 A 
ATOM     33  N   UNL     1      46.593   2.226   7.545  0.00  0.00    +0.000 NA
ATOM     34  C   UNL     1      45.823   1.721   8.531  0.00  0.00    +0.000 A 
ATOM     35  C   UNL     1      45.033   2.495   9.366  0.00  0.00    +0.000 A 
ENDBRANCH  29  30
ENDBRANCH  24  29
ENDBRANCH  23  24
ENDBRANCH   4  23
TORSDOF 10
ENDMDL
MODEL 5
REMARK VINA RESULT:    -6.421      2.890      8.101
REMARK INTER + INTRA:         -11.830
REMARK INTER:                  -9.947
REMARK INTRA:                  -1.883
REMARK UNBOUND:                -1.843
REMARK  Name = 
REMARK  10 active torsions:
REMARK  status: ('A' for Active; 'I' for Inactive)
REMARK    1  A    between atoms: C_2  and  C_23
REMARK    2  A    between atoms: N_3  and  C_4
REMARK    3  A    between atoms: C_4  and  C_5
REMARK    4  A    between atoms: C_8  and  C_9
REMARK    5  A    between atoms: C_9  and  N_10
REMARK    6  A    between atoms: N_10  and  C_11
REMARK    7  A    between atoms: N_10  and  C_14
REMARK    8  A    between atoms: C_11  and  C_12
REMARK    9  A    between atoms: C_12  and  O_13
REMARK   10  A    between atoms: C_14  and  C_15
REMARK                            x       y       z     vdW  Elec       q    Type
REMARK                         _______ _______ _______ _____ _____    ______ ____
ROOT
ATOM      1  C   UNL     1      48.418   8.049  13.773  0.00  0.00    +0.000 A 
ATOM      2  C   UNL     1      47.888   8.793  14.837  0.00  0.00    +0.000 A 
ATOM      3  C   UNL     1      48.518   8.801  16.083  0.00  0.00    +0.000 A 
ATOM      4  C   UNL     1      49.660   8.023  16.300  0.00  0.00    +0.000 A 
ATOM      5  C   UNL     1      50.262   7.387  15.205  0.00  0.00    +0.000 A 
ATOM      6  C   UNL     1      49.651   7.411  13.948  0.00  0.00    +0.000 A 
ENDROOT
BRANCH   1   7
ATOM      7  C   UNL     1      47.655   7.923  12.481  0.00  0.00    +0.000 C 
BRANCH   7  10
ATOM      8  O   UNL     1      45.097   7.731  11.419  0.00  0.00    +0.000 OA
ATOM      9  C   UNL     1      45.648   6.708  11.813  0.00  0.00    +0.000 C 
ATOM     10  N   UNL     1      46.879   6.719  12.423  0.00  0.00    +0.000 N 
ATOM     11  H   UNL     1      47.391   5.850  12.528  0.00  0.00    +0.000 HD
BRANCH   9  12
ATOM     12  C   UNL     1      45.011   5.396  11.702  0.00  0.00    +0.000 A 
ATOM     13  C   UNL     1      44.311   4.849  12.773  0.00  0.00    +0.000 A 
ATOM     14  S   UNL     1      43.656   3.308  12.432  0.00  0.00    +0.000 S 
ATOM     15  C   UNL     1      44.247   3.349  10.834  0.00  0.00    +0.000 A 
ATOM     16  N   UNL     1      44.011   2.329   9.964  0.00  0.00    +0.000 NA
ATOM     17  C   UNL     1      44.498   2.514   8.779  0.00  0.00    +0.000 A 
ATOM     18  N   UNL     1      45.192   3.626   8.386  0.00  0.00    +0.000 N 
ATOM     19  C   UNL     1      45.486   4.659   9.236  0.00  0.00    +0.000 A 
ATOM     20  O   UNL     1      46.170   5.601   8.869  0.00  0.00    +0.000 OA
ATOM     21  C   UNL     1      44.950   4.507  10.572  0.00  0.00    +0.000 A 
ATOM     22  H   UNL     1      45.560   3.709   7.450  0.00  0.00    +0.000 HD
ENDBRANCH   9  12
ENDBRANCH   7  10
ENDBRANCH   1   7
BRANCH   4  23
ATOM     23  C   UNL     1      50.213   7.841  17.698  0.00  0.00    +0.000 C 
BRANCH  23  24
ATOM     24  N   UNL     1      50.422   6.417  18.108  0.00  0.00    +0.000 NA
BRANCH  24  25
ATOM     25  C   UNL     1      51.283   6.334  19.318  0.00  0.00    +0.000 C 
BRANCH  25  26
ATOM     26  C   UNL     1      51.128   5.076  20.203  0.00  0.00    +0.000 C 
BRANCH  26  27
ATOM     27  O   UNL     1      51.884   3.993  19.658  0.00  0.00    +0.000 OA
ATOM     28  H   UNL     1      52.804   4.297  19.563  0.00  0.00    +0.000 HD
ENDBRANCH  26  27
ENDBRANCH  25  26
ENDBRANCH  24  25
BRANCH  24  29
ATOM     29  C   UNL     1      49.103   5.799  18.380  0.00  0.00    +0.000 C 
BRANCH  29  30
ATOM     30  C   UNL     1      48.708   4.749  17.364  0.00  0.00    +0.000 A 
ATOM     31  C   UNL     1      47.790   5.037  16.350  0.00  0.00    +0.000 A 
ATOM     32  C   UNL     1      47.394   4.014  15.505  0.00  0.00    +0.000 A 
ATOM     33  N   UNL     1      47.858   2.748  15.586  0.00  0.00    +0.000 NA
ATOM     34  C   UNL     1      48.759   2.495  16.557  0.00  0.00    +0.000 A 
ATOM     35  C   UNL     1      49.211   3.447  17.457  0.00  0.00    +0.000 A 
ENDBRANCH  29  30
ENDBRANCH  24  29
ENDBRANCH  23  24
ENDBRANCH   4  23
TORSDOF 10
ENDMDL
MODEL 6
REMARK VINA RESULT:    -6.398      3.216      8.032
REMARK INTER + INTRA:         -11.794
REMARK INTER:                 -10.114
REMARK INTRA:                  -1.680
REMARK UNBOUND:                -1.843
REMARK  Name = 
REMARK  10 active torsions:
REMARK  status: ('A' for Active; 'I' for Inactive)
REMARK    1  A    between atoms: C_2  and  C_23
REMARK    2  A    between atoms: N_3  and  C_4
REMARK    3  A    between atoms: C_4  and  C_5
REMARK    4  A    between atoms: C_8  and  C_9
REMARK    5  A    between atoms: C_9  and  N_10
REMARK    6  A    between atoms: N_10  and  C_11
REMARK    7  A    between atoms: N_10  and  C_14
REMARK    8  A    between atoms: C_11  and  C_12
REMARK    9  A    between atoms: C_12  and  O_13
REMARK   10  A    between atoms: C_14  and  C_15
REMARK                            x       y       z     vdW  Elec       q    Type
REMARK                         _______ _______ _______ _____ _____    ______ ____
ROOT
ATOM      1  C   UNL     1      48.483   8.062  13.529  0.00  0.00    +0.000 A 
ATOM      2  C   UNL     1      48.053   9.042  14.435  0.00  0.00    +0.000 A 
ATOM      3  C   UNL     1      48.242   8.874  15.808  0.00  0.00    +0.000 A 
ATOM      4  C   UNL     1      48.819   7.698  16.301  0.00  0.00    +0.000 A 
ATOM      5  C   UNL     1      49.366   6.781  15.391  0.00  0.00    +0.000 A 
ATOM      6  C   UNL     1      49.210   6.969  14.015  0.00  0.00    +0.000 A 
ENDROOT
BRANCH   1   7
ATOM      7  C   UNL     1      48.141   8.178  12.067  0.00  0.00    +0.000 C 
BRANCH   7  10
ATOM      8  O   UNL     1      45.391   7.871  11.840  0.00  0.00    +0.000 OA
ATOM      9  C   UNL     1      46.119   6.974  11.426  0.00  0.00    +0.000 C 
ATOM     10  N   UNL     1      47.486   7.006  11.567  0.00  0.00    +0.000 N 
ATOM     11  H   UNL     1      48.058   6.369  11.024  0.00  0.00    +0.000 HD
BRANCH   9  12
ATOM     12  C   UNL     1      45.579   5.774  10.786  0.00  0.00    +0.000 A 
ATOM     13  C   UNL     1      45.831   5.505   9.445  0.00  0.00    +0.000 A 
ATOM     14  S   UNL     1      45.098   4.061   8.899  0.00  0.00    +0.000 S 
ATOM     15  C   UNL     1      44.467   3.730  10.447  0.00  0.00    +0.000 A 
ATOM     16  N   UNL     1      43.743   2.604  10.694  0.00  0.00    +0.000 NA
ATOM     17  C   UNL     1      43.354   2.477  11.921  0.00  0.00    +0.000 A 
ATOM     18  N   UNL     1      43.627   3.368  12.922  0.00  0.00    +0.000 N 
ATOM     19  C   UNL     1      44.319   4.532  12.714  0.00  0.00    +0.000 A 
ATOM     20  O   UNL     1      44.481   5.339  13.617  0.00  0.00    +0.000 OA
ATOM     21  C   UNL     1      44.790   4.716  11.359  0.00  0.00    +0.000 A 
ATOM     22  H   UNL     1      43.286   3.222  13.861  0.00  0.00    +0.000 HD
ENDBRANCH   9  12
ENDBRANCH   7  10
ENDBRANCH   1   7
BRANCH   4  23
ATOM     23  C   UNL     1      48.817   7.404  17.787  0.00  0.00    +0.000 C 
BRANCH  23  24
ATOM     24  N   UNL     1      49.857   6.423  18.231  0.00  0.00    +0.000 NA
BRANCH  24  25
ATOM     25  C   UNL     1      50.715   7.006  19.296  0.00  0.00    +0.000 C 
BRANCH  25  26
ATOM     26  C   UNL     1      51.379   8.369  18.993  0.00  0.00    +0.000 C 
BRANCH  26  27
ATOM     27  O   UNL     1      52.411   8.209  18.017  0.00  0.00    +0.000 OA
ATOM     28  H   UNL     1      52.497   7.256  17.836  0.00  0.00    +0.000 HD
ENDBRANCH  26  27
ENDBRANCH  25  26
ENDBRANCH  24  25
BRANCH  24  29
ATOM     29  C   UNL     1      49.180   5.204  18.735  0.00  0.00    +0.000 C 
BRANCH  29  30
ATOM     30  C   UNL     1      49.336   4.008  17.822  0.00  0.00    +0.000 A 
ATOM     31  C   UNL     1      48.278   3.568  17.022  0.00  0.00    +0.000 A 
ATOM     32  C   UNL     1      48.445   2.413  16.276  0.00  0.00    +0.000 A 
ATOM     33  N   UNL     1      49.585   1.688  16.257  0.00  0.00    +0.000 NA
ATOM     34  C   UNL     1      50.603   2.140  17.019  0.00  0.00    +0.000 A 
ATOM     35  C   UNL     1      50.530   3.279  17.806  0.00  0.00    +0.000 A 
ENDBRANCH  29  30
ENDBRANCH  24  29
ENDBRANCH  23  24
ENDBRANCH   4  23
TORSDOF 10
ENDMDL
MODEL 7
REMARK VINA RESULT:    -6.296      2.473      3.336
REMARK INTER + INTRA:         -11.635
REMARK INTER:                 -10.204
REMARK INTRA:                  -1.431
REMARK UNBOUND:                -1.843
REMARK  Name = 
REMARK  10 active torsions:
REMARK  status: ('A' for Active; 'I' for Inactive)
REMARK    1  A    between atoms: C_2  and  C_23
REMARK    2  A    between atoms: N_3  and  C_4
REMARK    3  A    between atoms: C_4  and  C_5
REMARK    4  A    between atoms: C_8  and  C_9
REMARK    5  A    between atoms: C_9  and  N_10
REMARK    6  A    between atoms: N_10  and  C_11
REMARK    7  A    between atoms: N_10  and  C_14
REMARK    8  A    between atoms: C_11  and  C_12
REMARK    9  A    between atoms: C_12  and  O_13
REMARK   10  A    between atoms: C_14  and  C_15
REMARK                            x       y       z     vdW  Elec       q    Type
REMARK                         _______ _______ _______ _____ _____    ______ ____
ROOT
ATOM      1  C   UNL     1      48.758   8.235  13.532  0.00  0.00    +0.000 A 
ATOM      2  C   UNL     1      48.906   7.419  12.402  0.00  0.00    +0.000 A 
ATOM      3  C   UNL     1      47.791   7.010  11.668  0.00  0.00    +0.000 A 
ATOM      4  C   UNL     1      46.504   7.369  12.085  0.00  0.00    +0.000 A 
ATOM      5  C   UNL     1      46.365   8.290  13.134  0.00  0.00    +0.000 A 
ATOM      6  C   UNL     1      47.487   8.729  13.844  0.00  0.00    +0.000 A 
ENDROOT
BRANCH   1   7
ATOM      7  C   UNL     1      49.946   8.546  14.404  0.00  0.00    +0.000 C 
BRANCH   7  10
ATOM      8  O   UNL     1      49.169   7.821  16.969  0.00  0.00    +0.000 OA
ATOM      9  C   UNL     1      49.923   7.076  16.351  0.00  0.00    +0.000 C 
ATOM     10  N   UNL     1      50.421   7.392  15.109  0.00  0.00    +0.000 N 
ATOM     11  H   UNL     1      50.850   6.666  14.545  0.00  0.00    +0.000 HD
BRANCH   9  12
ATOM     12  C   UNL     1      50.389   5.807  16.913  0.00  0.00    +0.000 A 
ATOM     13  C   UNL     1      49.487   4.806  17.258  0.00  0.00    +0.000 A 
ATOM     14  S   UNL     1      50.241   3.416  17.904  0.00  0.00    +0.000 S 
ATOM     15  C   UNL     1      51.792   4.092  17.697  0.00  0.00    +0.000 A 
ATOM     16  N   UNL     1      52.917   3.402  18.029  0.00  0.00    +0.000 NA
ATOM     17  C   UNL     1      54.021   4.034  17.789  0.00  0.00    +0.000 A 
ATOM     18  N   UNL     1      54.101   5.286  17.244  0.00  0.00    +0.000 N 
ATOM     19  C   UNL     1      52.996   6.032  16.929  0.00  0.00    +0.000 A 
ATOM     20  O   UNL     1      53.106   7.175  16.512  0.00  0.00    +0.000 OA
ATOM     21  C   UNL     1      51.734   5.365  17.165  0.00  0.00    +0.000 A 
ATOM     22  H   UNL     1      54.992   5.734  17.091  0.00  0.00    +0.000 HD
ENDBRANCH   9  12
ENDBRANCH   7  10
ENDBRANCH   1   7
BRANCH   4  23
ATOM     23  C   UNL     1      45.284   6.746  11.439  0.00  0.00    +0.000 C 
BRANCH  23  24
ATOM     24  N   UNL     1      45.261   5.249  11.461  0.00  0.00    +0.000 NA
BRANCH  24  25
ATOM     25  C   UNL     1      44.739   4.746  12.760  0.00  0.00    +0.000 C 
BRANCH  25  26
ATOM     26  C   UNL     1      43.230   4.414  12.827  0.00  0.00    +0.000 C 
BRANCH  26  27
ATOM     27  O   UNL     1      42.521   5.473  13.474  0.00  0.00    +0.000 OA
ATOM     28  H   UNL     1      42.636   6.275  12.934  0.00  0.00    +0.000 HD
ENDBRANCH  26  27
ENDBRANCH  25  26
ENDBRANCH  24  25
BRANCH  24  29
ATOM     29  C   UNL     1      44.407   4.768  10.349  0.00  0.00    +0.000 C 
BRANCH  29  30
ATOM     30  C   UNL     1      45.140   3.880   9.368  0.00  0.00    +0.000 A 
ATOM     31  C   UNL     1      45.818   4.422   8.273  0.00  0.00    +0.000 A 
ATOM     32  C   UNL     1      46.393   3.558   7.355  0.00  0.00    +0.000 A 
ATOM     33  N   UNL     1      46.357   2.212   7.462  0.00  0.00    +0.000 NA
ATOM     34  C   UNL     1      45.716   1.708   8.538  0.00  0.00    +0.000 A 
ATOM     35  C   UNL     1      45.103   2.488   9.505  0.00  0.00    +0.000 A 
ENDBRANCH  29  30
ENDBRANCH  24  29
ENDBRANCH  23  24
ENDBRANCH   4  23
TORSDOF 10
ENDMDL
MODEL 8
REMARK VINA RESULT:    -5.906      3.155      4.956
REMARK INTER + INTRA:         -11.028
REMARK INTER:                  -9.800
REMARK INTRA:                  -1.228
REMARK UNBOUND:                -1.843
REMARK  Name = 
REMARK  10 active torsions:
REMARK  status: ('A' for Active; 'I' for Inactive)
REMARK    1  A    between atoms: C_2  and  C_23
REMARK    2  A    between atoms: N_3  and  C_4
REMARK    3  A    between atoms: C_4  and  C_5
REMARK    4  A    between atoms: C_8  and  C_9
REMARK    5  A    between atoms: C_9  and  N_10
REMARK    6  A    between atoms: N_10  and  C_11
REMARK    7  A    between atoms: N_10  and  C_14
REMARK    8  A    between atoms: C_11  and  C_12
REMARK    9  A    between atoms: C_12  and  O_13
REMARK   10  A    between atoms: C_14  and  C_15
REMARK                            x       y       z     vdW  Elec       q    Type
REMARK                         _______ _______ _______ _____ _____    ______ ____
ROOT
ATOM      1  C   UNL     1      49.937   7.358  15.435  0.00  0.00    +0.000 A 
ATOM      2  C   UNL     1      48.816   6.517  15.472  0.00  0.00    +0.000 A 
ATOM      3  C   UNL     1      48.071   6.274  14.316  0.00  0.00    +0.000 A 
ATOM      4  C   UNL     1      48.405   6.911  13.116  0.00  0.00    +0.000 A 
ATOM      5  C   UNL     1      49.599   7.644  13.049  0.00  0.00    +0.000 A 
ATOM      6  C   UNL     1      50.366   7.855  14.199  0.00  0.00    +0.000 A 
ENDROOT
BRANCH   1   7
ATOM      7  C   UNL     1      50.644   7.735  16.710  0.00  0.00    +0.000 C 
BRANCH   7  10
ATOM      8  O   UNL     1      50.064   5.975  18.777  0.00  0.00    +0.000 OA
ATOM      9  C   UNL     1      51.114   5.830  18.159  0.00  0.00    +0.000 C 
ATOM     10  N   UNL     1      51.519   6.699  17.174  0.00  0.00    +0.000 N 
ATOM     11  H   UNL     1      52.266   6.426  16.544  0.00  0.00    +0.000 HD
BRANCH   9  12
ATOM     12  C   UNL     1      52.041   4.738  18.457  0.00  0.00    +0.000 A 
ATOM     13  C   UNL     1      53.186   4.960  19.215  0.00  0.00    +0.000 A 
ATOM     14  S   UNL     1      54.131   3.553  19.434  0.00  0.00    +0.000 S 
ATOM     15  C   UNL     1      53.016   2.601  18.565  0.00  0.00    +0.000 A 
ATOM     16  N   UNL     1      53.206   1.264  18.394  0.00  0.00    +0.000 NA
ATOM     17  C   UNL     1      52.262   0.670  17.737  0.00  0.00    +0.000 A 
ATOM     18  N   UNL     1      51.147   1.290  17.242  0.00  0.00    +0.000 N 
ATOM     19  C   UNL     1      50.933   2.638  17.356  0.00  0.00    +0.000 A 
ATOM     20  O   UNL     1      49.961   3.167  16.838  0.00  0.00    +0.000 OA
ATOM     21  C   UNL     1      51.953   3.348  18.097  0.00  0.00    +0.000 A 
ATOM     22  H   UNL     1      50.449   0.776  16.725  0.00  0.00    +0.000 HD
ENDBRANCH   9  12
ENDBRANCH   7  10
ENDBRANCH   1   7
BRANCH   4  23
ATOM     23  C   UNL     1      47.475   6.840  11.922  0.00  0.00    +0.000 C 
BRANCH  23  24
ATOM     24  N   UNL     1      46.027   7.034  12.245  0.00  0.00    +0.000 NA
BRANCH  24  25
ATOM     25  C   UNL     1      45.751   8.446  12.619  0.00  0.00    +0.000 C 
BRANCH  25  26
ATOM     26  C   UNL     1      44.715   9.208  11.760  0.00  0.00    +0.000 C 
BRANCH  26  27
ATOM     27  O   UNL     1      44.105  10.247  12.530  0.00  0.00    +0.000 OA
ATOM     28  H   UNL     1      43.836   9.859  13.382  0.00  0.00    +0.000 HD
ENDBRANCH  26  27
ENDBRANCH  25  26
ENDBRANCH  24  25
BRANCH  24  29
ATOM     29  C   UNL     1      45.218   6.654  11.062  0.00  0.00    +0.000 C 
BRANCH  29  30
ATOM     30  C   UNL     1      44.538   5.310  11.204  0.00  0.00    +0.000 A 
ATOM     31  C   UNL     1      44.029   4.887  12.435  0.00  0.00    +0.000 A 
ATOM     32  C   UNL     1      43.500   3.610  12.530  0.00  0.00    +0.000 A 
ATOM     33  N   UNL     1      43.427   2.745  11.494  0.00  0.00    +0.000 NA
ATOM     34  C   UNL     1      43.904   3.180  10.310  0.00  0.00    +0.000 A 
ATOM     35  C   UNL     1      44.459   4.435  10.115  0.00  0.00    +0.000 A 
ENDBRANCH  29  30
ENDBRANCH  24  29
ENDBRANCH  23  24
ENDBRANCH   4  23
TORSDOF 10
ENDMDL
MODEL 9
REMARK VINA RESULT:    -5.821      3.420      8.101
REMARK INTER + INTRA:         -10.897
REMARK INTER:                  -9.000
REMARK INTRA:                  -1.897
REMARK UNBOUND:                -1.843
REMARK  Name = 
REMARK  10 active torsions:
REMARK  status: ('A' for Active; 'I' for Inactive)
REMARK    1  A    between atoms: C_2  and  C_23
REMARK    2  A    between atoms: N_3  and  C_4
REMARK    3  A    between atoms: C_4  and  C_5
REMARK    4  A    between atoms: C_8  and  C_9
REMARK    5  A    between atoms: C_9  and  N_10
REMARK    6  A    between atoms: N_10  and  C_11
REMARK    7  A    between atoms: N_10  and  C_14
REMARK    8  A    between atoms: C_11  and  C_12
REMARK    9  A    between atoms: C_12  and  O_13
REMARK   10  A    between atoms: C_14  and  C_15
REMARK                            x       y       z     vdW  Elec       q    Type
REMARK                         _______ _______ _______ _____ _____    ______ ____
ROOT
ATOM      1  C   UNL     1      49.236   8.064  15.288  0.00  0.00    +0.000 A 
ATOM      2  C   UNL     1      50.374   7.245  15.330  0.00  0.00    +0.000 A 
ATOM      3  C   UNL     1      50.841   6.738  16.544  0.00  0.00    +0.000 A 
ATOM      4  C   UNL     1      50.207   7.085  17.742  0.00  0.00    +0.000 A 
ATOM      5  C   UNL     1      48.997   7.791  17.687  0.00  0.00    +0.000 A 
ATOM      6  C   UNL     1      48.509   8.266  16.467  0.00  0.00    +0.000 A 
ENDROOT
BRANCH   1   7
ATOM      7  C   UNL     1      48.828   8.729  14.000  0.00  0.00    +0.000 C 
BRANCH   7  10
ATOM      8  O   UNL     1      48.568   6.685  12.140  0.00  0.00    +0.000 OA
ATOM      9  C   UNL     1      47.551   7.164  12.633  0.00  0.00    +0.000 C 
ATOM     10  N   UNL     1      47.581   8.228  13.501  0.00  0.00    +0.000 N 
ATOM     11  H   UNL     1      46.757   8.446  14.051  0.00  0.00    +0.000 HD
BRANCH   9  12
ATOM     12  C   UNL     1      46.218   6.662  12.295  0.00  0.00    +0.000 A 
ATOM     13  C   UNL     1      45.265   7.497  11.721  0.00  0.00    +0.000 A 
ATOM     14  S   UNL     1      43.778   6.712  11.419  0.00  0.00    +0.000 S 
ATOM     15  C   UNL     1      44.380   5.227  12.000  0.00  0.00    +0.000 A 
ATOM     16  N   UNL     1      43.615   4.101  11.998  0.00  0.00    +0.000 NA
ATOM     17  C   UNL     1      44.216   3.046  12.444  0.00  0.00    +0.000 A 
ATOM     18  N   UNL     1      45.511   3.013  12.884  0.00  0.00    +0.000 N 
ATOM     19  C   UNL     1      46.306   4.127  12.940  0.00  0.00    +0.000 A 
ATOM     20  O   UNL     1      47.434   4.073  13.407  0.00  0.00    +0.000 OA
ATOM     21  C   UNL     1      45.685   5.334  12.438  0.00  0.00    +0.000 A 
ATOM     22  H   UNL     1      45.924   2.161  13.233  0.00  0.00    +0.000 HD
ENDBRANCH   9  12
ENDBRANCH   7  10
ENDBRANCH   1   7
BRANCH   4  23
ATOM     23  C   UNL     1      50.836   6.734  19.075  0.00  0.00    +0.000 C 
BRANCH  23  24
ATOM     24  N   UNL     1      51.026   5.268  19.311  0.00  0.00    +0.000 NA
BRANCH  24  25
ATOM     25  C   UNL     1      51.767   5.027  20.578  0.00  0.00    +0.000 C 
BRANCH  25  26
ATOM     26  C   UNL     1      53.191   4.437  20.455  0.00  0.00    +0.000 C 
BRANCH  26  27
ATOM     27  O   UNL     1      53.124   3.056  20.094  0.00  0.00    +0.000 OA
ATOM     28  H   UNL     1      53.842   2.884  19.459  0.00  0.00    +0.000 HD
ENDBRANCH  26  27
ENDBRANCH  25  26
ENDBRANCH  24  25
BRANCH  24  29
ATOM     29  C   UNL     1      49.696   4.617  19.368  0.00  0.00    +0.000 C 
BRANCH  29  30
ATOM     30  C   UNL     1      49.454   3.643  18.235  0.00  0.00    +0.000 A 
ATOM     31  C   UNL     1      50.476   2.813  17.767  0.00  0.00    +0.000 A 
ATOM     32  C   UNL     1      50.226   2.009  16.667  0.00  0.00    +0.000 A 
ATOM     33  N   UNL     1      49.040   1.961  16.023  0.00  0.00    +0.000 NA
ATOM     34  C   UNL     1      48.059   2.754  16.503  0.00  0.00    +0.000 A 
ATOM     35  C   UNL     1      48.213   3.599  17.590  0.00  0.00    +0.000 A 
ENDBRANCH  29  30
ENDBRANCH  24  29
ENDBRANCH  23  24
ENDBRANCH   4  23
TORSDOF 10
ENDMDL
