MODEL 1
REMARK VINA RESULT:    -7.775      0.000      0.000
REMARK INTER + INTRA:         -11.481
REMARK INTER:                 -10.502
REMARK INTRA:                  -0.979
REMARK UNBOUND:                -0.979
REMARK  Name = 
REMARK  6 active torsions:
REMARK  status: ('A' for Active; 'I' for Inactive)
REMARK    1  A    between atoms: C_2  and  C_4
REMARK    2  A    between atoms: C_7  and  O_8
REMARK    3  A    between atoms: O_8  and  C_9
REMARK    4  A    between atoms: C_9  and  C_10
REMARK    5  A    between atoms: C_10  and  C_11
REMARK    6  A    between atoms: C_15  and  C_16
REMARK                            x       y       z     vdW  Elec       q    Type
REMARK                         _______ _______ _______ _____ _____    ______ ____
ROOT
ATOM      1  C   UNL     1      43.296   4.977  12.244  0.00  0.00    +0.000 C 
ENDROOT
BRANCH   1   2
ATOM      2  C   UNL     1      44.700   5.033  12.787  0.00  0.00    +0.000 A 
ATOM      3  C   UNL     1      45.377   3.844  13.071  0.00  0.00    +0.000 A 
ATOM      4  C   UNL     1      46.699   3.883  13.491  0.00  0.00    +0.000 A 
ATOM      5  C   UNL     1      47.351   5.106  13.638  0.00  0.00    +0.000 A 
ATOM      6  C   UNL     1      46.712   6.323  13.355  0.00  0.00    +0.000 A 
ATOM      7  C   UNL     1      45.370   6.262  12.930  0.00  0.00    +0.000 A 
BRANCH   6   8
ATOM      8  C   UNL     1      47.384   7.687  13.541  0.00  0.00    +0.000 C 
ATOM      9  C   UNL     1      47.667   8.427  12.222  0.00  0.00    +0.000 C 
ATOM     10  C   UNL     1      48.833   7.791  11.474  0.00  0.00    +0.000 C 
ATOM     11  C   UNL     1      50.085   7.668  12.342  0.00  0.00    +0.000 C 
ATOM     12  N   UNL     1      49.873   7.140  13.688  0.00  0.00    +0.000 NA
ATOM     13  C   UNL     1      48.696   7.700  14.367  0.00  0.00    +0.000 C 
ATOM     14  H   UNL     1      49.797   6.127  13.632  0.00  0.00    +0.000 HD
ENDBRANCH   6   8
ENDBRANCH   1   2
BRANCH   1  15
ATOM     15  C   UNL     1      43.228   3.961  11.103  0.00  0.00    +0.000 C 
BRANCH  15  16
ATOM     16  O   UNL     1      43.743   4.550   9.908  0.00  0.00    +0.000 OA
BRANCH  16  20
ATOM     17  C   UNL     1      46.487   2.501   7.645  0.00  0.00    +0.000 A 
ATOM     18  C   UNL     1      45.708   1.739   8.505  0.00  0.00    +0.000 A 
ATOM     19  C   UNL     1      44.763   2.394   9.296  0.00  0.00    +0.000 A 
ATOM     20  C   UNL     1      44.622   3.778   9.199  0.00  0.00    +0.000 A 
ATOM     21  C   UNL     1      45.448   4.448   8.303  0.00  0.00    +0.000 A 
ATOM     22  N   UNL     1      46.383   3.852   7.521  0.00  0.00    +0.000 NA
BRANCH  17  24
ATOM     23  N   UNL     1      48.607   2.590   6.478  0.00  0.00    +0.000 N 
ATOM     24  C   UNL     1      47.515   1.823   6.794  0.00  0.00    +0.000 C 
ATOM     25  O   UNL     1      47.403   0.671   6.407  0.00  0.00    +0.000 OA
ATOM     26  H   UNL     1      49.348   2.197   5.915  0.00  0.00    +0.000 HD
ATOM     27  H   UNL     1      48.669   3.537   6.832  0.00  0.00    +0.000 HD
ENDBRANCH  17  24
ENDBRANCH  16  20
ENDBRANCH  15  16
ENDBRANCH   1  15
TORSDOF 6
ENDMDL
MODEL 2
REMARK VINA RESULT:    -7.350      1.271      2.160
REMARK INTER + INTRA:         -10.908
REMARK INTER:                 -10.025
REMARK INTRA:                  -0.883
REMARK UNBOUND:                -0.979
REMARK  Name = 
REMARK  6 active torsions:
REMARK  status: ('A' for Active; 'I' for Inactive)
REMARK    1  A    between atoms: C_2  and  C_4
REMARK    2  A    between atoms: C_7  and  O_8
REMARK    3  A    between atoms: O_8  and  C_9
REMARK    4  A    between atoms: C_9  and  C_10
REMARK    5  A    between atoms: C_10  and  C_11
REMARK    6  A    between atoms: C_15  and  C_16
REMARK                            x       y       z     vdW  Elec       q    Type
REMARK                         _______ _______ _______ _____ _____    ______ ____
ROOT
ATOM      1  C   UNL     1      43.613   4.236  12.672  0.00  0.00    +0.000 C 
ENDROOT
BRANCH   1   2
ATOM      2  C   UNL     1      44.508   5.394  12.318  0.00  0.00    +0.000 A 
ATOM      3  C   UNL     1      43.967   6.512  11.678  0.00  0.00    +0.000 A 
ATOM      4  C   UNL     1      44.765   7.619  11.424  0.00  0.00    +0.000 A 
ATOM      5  C   UNL     1      46.108   7.614  11.799  0.00  0.00    +0.000 A 
ATOM      6  C   UNL     1      46.689   6.516  12.452  0.00  0.00    +0.000 A 
ATOM      7  C   UNL     1      45.862   5.403  12.700  0.00  0.00    +0.000 A 
BRANCH   6   8
ATOM      8  C   UNL     1      48.169   6.460  12.845  0.00  0.00    +0.000 C 
ATOM      9  C   UNL     1      48.425   6.689  14.344  0.00  0.00    +0.000 C 
ATOM     10  C   UNL     1      48.231   8.154  14.717  0.00  0.00    +0.000 C 
ATOM     11  C   UNL     1      49.063   9.093  13.843  0.00  0.00    +0.000 C 
ATOM     12  N   UNL     1      49.019   8.826  12.407  0.00  0.00    +0.000 NA
ATOM     13  C   UNL     1      49.123   7.401  12.065  0.00  0.00    +0.000 C 
ATOM     14  H   UNL     1      48.160   9.216  12.029  0.00  0.00    +0.000 HD
ENDBRANCH   6   8
ENDBRANCH   1   2
BRANCH   1  15
ATOM     15  C   UNL     1      43.859   3.082  11.699  0.00  0.00    +0.000 C 
BRANCH  15  16
ATOM     16  O   UNL     1      43.587   3.515  10.365  0.00  0.00    +0.000 OA
BRANCH  16  20
ATOM     17  C   UNL     1      46.435   2.310   7.665  0.00  0.00    +0.000 A 
ATOM     18  C   UNL     1      46.159   3.670   7.703  0.00  0.00    +0.000 A 
ATOM     19  C   UNL     1      45.196   4.126   8.604  0.00  0.00    +0.000 A 
ATOM     20  C   UNL     1      44.547   3.216   9.438  0.00  0.00    +0.000 A 
ATOM     21  C   UNL     1      44.899   1.874   9.326  0.00  0.00    +0.000 A 
ATOM     22  N   UNL     1      45.824   1.389   8.460  0.00  0.00    +0.000 NA
BRANCH  17  24
ATOM     23  N   UNL     1      48.504   2.646   6.453  0.00  0.00    +0.000 N 
ATOM     24  C   UNL     1      47.456   1.796   6.699  0.00  0.00    +0.000 C 
ATOM     25  O   UNL     1      47.374   0.701   6.167  0.00  0.00    +0.000 OA
ATOM     26  H   UNL     1      49.239   2.363   5.820  0.00  0.00    +0.000 HD
ATOM     27  H   UNL     1      48.541   3.540   6.928  0.00  0.00    +0.000 HD
ENDBRANCH  17  24
ENDBRANCH  16  20
ENDBRANCH  15  16
ENDBRANCH   1  15
TORSDOF 6
ENDMDL
MODEL 3
REMARK VINA RESULT:    -7.017      2.411      3.353
REMARK INTER + INTRA:         -10.458
REMARK INTER:                  -9.974
REMARK INTRA:                  -0.484
REMARK UNBOUND:                -0.979
REMARK  Name = 
REMARK  6 active torsions:
REMARK  status: ('A' for Active; 'I' for Inactive)
REMARK    1  A    between atoms: C_2  and  C_4
REMARK    2  A    between atoms: C_7  and  O_8
REMARK    3  A    between atoms: O_8  and  C_9
REMARK    4  A    between atoms: C_9  and  C_10
REMARK    5  A    between atoms: C_10  and  C_11
REMARK    6  A    between atoms: C_15  and  C_16
REMARK                            x       y       z     vdW  Elec       q    Type
REMARK                         _______ _______ _______ _____ _____    ______ ____
ROOT
ATOM      1  C   UNL     1      45.471   3.971  12.417  0.00  0.00    +0.000 C 
ENDROOT
BRANCH   1   2
ATOM      2  C   UNL     1      46.444   4.647  13.347  0.00  0.00    +0.000 A 
ATOM      3  C   UNL     1      47.125   5.790  12.920  0.00  0.00    +0.000 A 
ATOM      4  C   UNL     1      47.958   6.469  13.797  0.00  0.00    +0.000 A 
ATOM      5  C   UNL     1      48.125   6.007  15.102  0.00  0.00    +0.000 A 
ATOM      6  C   UNL     1      47.454   4.869  15.575  0.00  0.00    +0.000 A 
ATOM      7  C   UNL     1      46.612   4.194  14.668  0.00  0.00    +0.000 A 
BRANCH   6   8
ATOM      8  C   UNL     1      47.642   4.311  16.989  0.00  0.00    +0.000 C 
ATOM      9  C   UNL     1      48.666   5.088  17.835  0.00  0.00    +0.000 C 
ATOM     10  C   UNL     1      50.090   4.799  17.375  0.00  0.00    +0.000 C 
ATOM     11  C   UNL     1      50.397   3.302  17.336  0.00  0.00    +0.000 C 
ATOM     12  N   UNL     1      49.379   2.463  16.706  0.00  0.00    +0.000 NA
ATOM     13  C   UNL     1      48.004   2.808  17.093  0.00  0.00    +0.000 C 
ATOM     14  H   UNL     1      49.485   2.525  15.696  0.00  0.00    +0.000 HD
ENDBRANCH   6   8
ENDBRANCH   1   2
BRANCH   1  15
ATOM     15  C   UNL     1      44.940   4.986  11.404  0.00  0.00    +0.000 C 
BRANCH  15  16
ATOM     16  O   UNL     1      44.214   4.304  10.380  0.00  0.00    +0.000 OA
BRANCH  16  20
ATOM     17  C   UNL     1      46.586   2.537   7.534  0.00  0.00    +0.000 A 
ATOM     18  C   UNL     1      45.906   1.679   8.388  0.00  0.00    +0.000 A 
ATOM     19  C   UNL     1      45.089   2.235   9.373  0.00  0.00    +0.000 A 
ATOM     20  C   UNL     1      44.972   3.622   9.471  0.00  0.00    +0.000 A 
ATOM     21  C   UNL     1      45.691   4.394   8.563  0.00  0.00    +0.000 A 
ATOM     22  N   UNL     1      46.501   3.894   7.596  0.00  0.00    +0.000 NA
BRANCH  17  24
ATOM     23  N   UNL     1      48.609   2.691   6.213  0.00  0.00    +0.000 N 
ATOM     24  C   UNL     1      47.476   1.964   6.476  0.00  0.00    +0.000 C 
ATOM     25  O   UNL     1      47.225   0.925   5.888  0.00  0.00    +0.000 OA
ATOM     26  H   UNL     1      49.264   2.361   5.518  0.00  0.00    +0.000 HD
ATOM     27  H   UNL     1      48.788   3.540   6.736  0.00  0.00    +0.000 HD
ENDBRANCH  17  24
ENDBRANCH  16  20
ENDBRANCH  15  16
ENDBRANCH   1  15
TORSDOF 6
ENDMDL
MODEL 4
REMARK VINA RESULT:    -6.620      4.157      7.473
REMARK INTER + INTRA:          -9.920
REMARK INTER:                  -8.898
REMARK INTRA:                  -1.023
REMARK UNBOUND:                -0.979
REMARK  Name = 
REMARK  6 active torsions:
REMARK  status: ('A' for Active; 'I' for Inactive)
REMARK    1  A    between atoms: C_2  and  C_4
REMARK    2  A    between atoms: C_7  and  O_8
REMARK    3  A    between atoms: O_8  and  C_9
REMARK    4  A    between atoms: C_9  and  C_10
REMARK    5  A    between atoms: C_10  and  C_11
REMARK    6  A    between atoms: C_15  and  C_16
REMARK                            x       y       z     vdW  Elec       q    Type
REMARK                         _______ _______ _______ _____ _____    ______ ____
ROOT
ATOM      1  C   UNL     1      48.899   8.385  12.136  0.00  0.00    +0.000 C 
ENDROOT
BRANCH   1   2
ATOM      2  C   UNL     1      47.424   8.110  12.006  0.00  0.00    +0.000 A 
ATOM      3  C   UNL     1      46.512   9.156  12.171  0.00  0.00    +0.000 A 
ATOM      4  C   UNL     1      45.157   8.931  11.970  0.00  0.00    +0.000 A 
ATOM      5  C   UNL     1      44.703   7.662  11.613  0.00  0.00    +0.000 A 
ATOM      6  C   UNL     1      45.586   6.587  11.429  0.00  0.00    +0.000 A 
ATOM      7  C   UNL     1      46.957   6.835  11.637  0.00  0.00    +0.000 A 
BRANCH   6   8
ATOM      8  C   UNL     1      45.120   5.171  11.074  0.00  0.00    +0.000 C 
ATOM      9  C   UNL     1      43.621   5.072  10.745  0.00  0.00    +0.000 C 
ATOM     10  C   UNL     1      42.772   5.191  12.005  0.00  0.00    +0.000 C 
ATOM     11  C   UNL     1      43.190   4.193  13.085  0.00  0.00    +0.000 C 
ATOM     12  N   UNL     1      44.626   4.092  13.334  0.00  0.00    +0.000 NA
ATOM     13  C   UNL     1      45.439   4.062  12.110  0.00  0.00    +0.000 C 
ATOM     14  H   UNL     1      44.910   4.869  13.925  0.00  0.00    +0.000 HD
ENDBRANCH   6   8
ENDBRANCH   1   2
BRANCH   1  15
ATOM     15  C   UNL     1      49.527   7.373  13.096  0.00  0.00    +0.000 C 
BRANCH  15  16
ATOM     16  O   UNL     1      49.116   7.665  14.433  0.00  0.00    +0.000 OA
BRANCH  16  20
ATOM     17  C   UNL     1      47.971   4.560  16.862  0.00  0.00    +0.000 A 
ATOM     18  C   UNL     1      47.391   4.602  15.602  0.00  0.00    +0.000 A 
ATOM     19  C   UNL     1      47.749   5.641  14.742  0.00  0.00    +0.000 A 
ATOM     20  C   UNL     1      48.673   6.597  15.162  0.00  0.00    +0.000 A 
ATOM     21  C   UNL     1      49.201   6.462  16.443  0.00  0.00    +0.000 A 
ATOM     22  N   UNL     1      48.877   5.472  17.312  0.00  0.00    +0.000 NA
BRANCH  17  24
ATOM     23  N   UNL     1      48.411   3.331  18.902  0.00  0.00    +0.000 N 
ATOM     24  C   UNL     1      47.596   3.461  17.806  0.00  0.00    +0.000 C 
ATOM     25  O   UNL     1      46.635   2.731  17.626  0.00  0.00    +0.000 OA
ATOM     26  H   UNL     1      48.214   2.617  19.589  0.00  0.00    +0.000 HD
ATOM     27  H   UNL     1      49.189   3.968  19.021  0.00  0.00    +0.000 HD
ENDBRANCH  17  24
ENDBRANCH  16  20
ENDBRANCH  15  16
ENDBRANCH   1  15
TORSDOF 6
ENDMDL
MODEL 5
REMARK VINA RESULT:    -6.558      3.090      5.570
REMARK INTER + INTRA:          -9.837
REMARK INTER:                  -8.774
REMARK INTRA:                  -1.063
REMARK UNBOUND:                -0.979
REMARK  Name = 
REMARK  6 active torsions:
REMARK  status: ('A' for Active; 'I' for Inactive)
REMARK    1  A    between atoms: C_2  and  C_4
REMARK    2  A    between atoms: C_7  and  O_8
REMARK    3  A    between atoms: O_8  and  C_9
REMARK    4  A    between atoms: C_9  and  C_10
REMARK    5  A    between atoms: C_10  and  C_11
REMARK    6  A    between atoms: C_15  and  C_16
REMARK                            x       y       z     vdW  Elec       q    Type
REMARK                         _______ _______ _______ _____ _____    ______ ____
ROOT
ATOM      1  C   UNL     1      49.205   8.142  13.578  0.00  0.00    +0.000 C 
ENDROOT
BRANCH   1   2
ATOM      2  C   UNL     1      49.693   7.365  14.772  0.00  0.00    +0.000 A 
ATOM      3  C   UNL     1      51.005   7.543  15.221  0.00  0.00    +0.000 A 
ATOM      4  C   UNL     1      51.438   6.897  16.370  0.00  0.00    +0.000 A 
ATOM      5  C   UNL     1      50.570   6.064  17.074  0.00  0.00    +0.000 A 
ATOM      6  C   UNL     1      49.243   5.864  16.664  0.00  0.00    +0.000 A 
ATOM      7  C   UNL     1      48.823   6.529  15.495  0.00  0.00    +0.000 A 
BRANCH   6   8
ATOM      8  C   UNL     1      48.272   4.927  17.390  0.00  0.00    +0.000 C 
ATOM      9  C   UNL     1      48.965   3.868  18.264  0.00  0.00    +0.000 C 
ATOM     10  C   UNL     1      49.603   2.780  17.409  0.00  0.00    +0.000 C 
ATOM     11  C   UNL     1      48.611   2.155  16.427  0.00  0.00    +0.000 C 
ATOM     12  N   UNL     1      47.778   3.096  15.682  0.00  0.00    +0.000 NA
ATOM     13  C   UNL     1      47.237   4.188  16.503  0.00  0.00    +0.000 C 
ATOM     14  H   UNL     1      48.323   3.473  14.911  0.00  0.00    +0.000 HD
ENDBRANCH   6   8
ENDBRANCH   1   2
BRANCH   1  15
ATOM     15  C   UNL     1      48.637   7.177  12.536  0.00  0.00    +0.000 C 
BRANCH  15  16
ATOM     16  O   UNL     1      47.231   7.387  12.407  0.00  0.00    +0.000 OA
BRANCH  16  20
ATOM     17  C   UNL     1      44.957   4.137  11.349  0.00  0.00    +0.000 A 
ATOM     18  C   UNL     1      45.438   4.154  12.650  0.00  0.00    +0.000 A 
ATOM     19  C   UNL     1      46.218   5.238  13.054  0.00  0.00    +0.000 A 
ATOM     20  C   UNL     1      46.486   6.269  12.154  0.00  0.00    +0.000 A 
ATOM     21  C   UNL     1      45.952   6.160  10.873  0.00  0.00    +0.000 A 
ATOM     22  N   UNL     1      45.195   5.121  10.438  0.00  0.00    +0.000 NA
BRANCH  17  24
ATOM     23  N   UNL     1      44.670   2.243   9.867  0.00  0.00    +0.000 N 
ATOM     24  C   UNL     1      44.127   2.980  10.888  0.00  0.00    +0.000 C 
ATOM     25  O   UNL     1      43.046   2.700  11.382  0.00  0.00    +0.000 OA
ATOM     26  H   UNL     1      44.172   1.440   9.511  0.00  0.00    +0.000 HD
ATOM     27  H   UNL     1      45.577   2.501   9.497  0.00  0.00    +0.000 HD
ENDBRANCH  17  24
ENDBRANCH  16  20
ENDBRANCH  15  16
ENDBRANCH   1  15
TORSDOF 6
ENDMDL
MODEL 6
REMARK VINA RESULT:    -6.541      4.929      8.064
REMARK INTER + INTRA:          -9.814
REMARK INTER:                  -9.176
REMARK INTRA:                  -0.639
REMARK UNBOUND:                -0.979
REMARK  Name = 
REMARK  6 active torsions:
REMARK  status: ('A' for Active; 'I' for Inactive)
REMARK    1  A    between atoms: C_2  and  C_4
REMARK    2  A    between atoms: C_7  and  O_8
REMARK    3  A    between atoms: O_8  and  C_9
REMARK    4  A    between atoms: C_9  and  C_10
REMARK    5  A    between atoms: C_10  and  C_11
REMARK    6  A    between atoms: C_15  and  C_16
REMARK                            x       y       z     vdW  Elec       q    Type
REMARK                         _______ _______ _______ _____ _____    ______ ____
ROOT
ATOM      1  C   UNL     1      48.071   5.716  15.116  0.00  0.00    +0.000 C 
ENDROOT
BRANCH   1   2
ATOM      2  C   UNL     1      47.341   5.972  13.824  0.00  0.00    +0.000 A 
ATOM      3  C   UNL     1      47.915   6.809  12.863  0.00  0.00    +0.000 A 
ATOM      4  C   UNL     1      47.292   6.985  11.636  0.00  0.00    +0.000 A 
ATOM      5  C   UNL     1      46.089   6.334  11.362  0.00  0.00    +0.000 A 
ATOM      6  C   UNL     1      45.484   5.478  12.294  0.00  0.00    +0.000 A 
ATOM      7  C   UNL     1      46.133   5.313  13.534  0.00  0.00    +0.000 A 
BRANCH   6   8
ATOM      8  C   UNL     1      44.145   4.776  12.043  0.00  0.00    +0.000 C 
ATOM      9  C   UNL     1      44.254   3.246  11.943  0.00  0.00    +0.000 C 
ATOM     10  C   UNL     1      44.889   2.824  10.624  0.00  0.00    +0.000 C 
ATOM     11  C   UNL     1      44.175   3.428   9.415  0.00  0.00    +0.000 C 
ATOM     12  N   UNL     1      43.868   4.853   9.507  0.00  0.00    +0.000 NA
ATOM     13  C   UNL     1      43.335   5.262  10.814  0.00  0.00    +0.000 C 
ATOM     14  H   UNL     1      44.709   5.382   9.290  0.00  0.00    +0.000 HD
ENDBRANCH   6   8
ENDBRANCH   1   2
BRANCH   1  15
ATOM     15  C   UNL     1      47.471   4.492  15.810  0.00  0.00    +0.000 C 
BRANCH  15  16
ATOM     16  O   UNL     1      47.952   4.421  17.153  0.00  0.00    +0.000 OA
BRANCH  16  20
ATOM     17  C   UNL     1      51.325   2.113  17.534  0.00  0.00    +0.000 A 
ATOM     18  C   UNL     1      51.411   3.412  18.015  0.00  0.00    +0.000 A 
ATOM     19  C   UNL     1      50.289   4.235  17.904  0.00  0.00    +0.000 A 
ATOM     20  C   UNL     1      49.122   3.735  17.327  0.00  0.00    +0.000 A 
ATOM     21  C   UNL     1      49.137   2.417  16.881  0.00  0.00    +0.000 A 
ATOM     22  N   UNL     1      50.206   1.587  16.964  0.00  0.00    +0.000 NA
BRANCH  17  24
ATOM     23  N   UNL     1      52.295   0.017  18.261  0.00  0.00    +0.000 N 
ATOM     24  C   UNL     1      52.518   1.215  17.632  0.00  0.00    +0.000 C 
ATOM     25  O   UNL     1      53.613   1.514  17.183  0.00  0.00    +0.000 OA
ATOM     26  H   UNL     1      53.052  -0.647  18.356  0.00  0.00    +0.000 HD
ATOM     27  H   UNL     1      51.367  -0.199  18.605  0.00  0.00    +0.000 HD
ENDBRANCH  17  24
ENDBRANCH  16  20
ENDBRANCH  15  16
ENDBRANCH   1  15
TORSDOF 6
ENDMDL
MODEL 7
REMARK VINA RESULT:    -6.535      3.963      6.459
REMARK INTER + INTRA:          -9.806
REMARK INTER:                  -8.949
REMARK INTRA:                  -0.857
REMARK UNBOUND:                -0.979
REMARK  Name = 
REMARK  6 active torsions:
REMARK  status: ('A' for Active; 'I' for Inactive)
REMARK    1  A    between atoms: C_2  and  C_4
REMARK    2  A    between atoms: C_7  and  O_8
REMARK    3  A    between atoms: O_8  and  C_9
REMARK    4  A    between atoms: C_9  and  C_10
REMARK    5  A    between atoms: C_10  and  C_11
REMARK    6  A    between atoms: C_15  and  C_16
REMARK                            x       y       z     vdW  Elec       q    Type
REMARK                         _______ _______ _______ _____ _____    ______ ____
ROOT
ATOM      1  C   UNL     1      48.730   7.991  14.738  0.00  0.00    +0.000 C 
ENDROOT
BRANCH   1   2
ATOM      2  C   UNL     1      49.674   7.156  15.563  0.00  0.00    +0.000 A 
ATOM      3  C   UNL     1      51.052   7.357  15.446  0.00  0.00    +0.000 A 
ATOM      4  C   UNL     1      51.926   6.653  16.261  0.00  0.00    +0.000 A 
ATOM      5  C   UNL     1      51.433   5.739  17.192  0.00  0.00    +0.000 A 
ATOM      6  C   UNL     1      50.057   5.514  17.348  0.00  0.00    +0.000 A 
ATOM      7  C   UNL     1      49.186   6.239  16.511  0.00  0.00    +0.000 A 
BRANCH   6   8
ATOM      8  C   UNL     1      49.481   4.492  18.334  0.00  0.00    +0.000 C 
ATOM      9  C   UNL     1      49.456   3.052  17.794  0.00  0.00    +0.000 C 
ATOM     10  C   UNL     1      48.363   2.875  16.747  0.00  0.00    +0.000 C 
ATOM     11  C   UNL     1      46.992   3.321  17.255  0.00  0.00    +0.000 C 
ATOM     12  N   UNL     1      46.960   4.607  17.948  0.00  0.00    +0.000 NA
ATOM     13  C   UNL     1      48.069   4.799  18.894  0.00  0.00    +0.000 C 
ATOM     14  H   UNL     1      46.959   5.351  17.254  0.00  0.00    +0.000 HD
ENDBRANCH   6   8
ENDBRANCH   1   2
BRANCH   1  15
ATOM     15  C   UNL     1      48.902   7.649  13.258  0.00  0.00    +0.000 C 
BRANCH  15  16
ATOM     16  O   UNL     1      48.780   6.237  13.076  0.00  0.00    +0.000 OA
BRANCH  16  20
ATOM     17  C   UNL     1      45.010   4.627  12.853  0.00  0.00    +0.000 A 
ATOM     18  C   UNL     1      45.295   5.654  11.964  0.00  0.00    +0.000 A 
ATOM     19  C   UNL     1      46.563   6.234  12.004  0.00  0.00    +0.000 A 
ATOM     20  C   UNL     1      47.505   5.769  12.922  0.00  0.00    +0.000 A 
ATOM     21  C   UNL     1      47.123   4.731  13.767  0.00  0.00    +0.000 A 
ATOM     22  N   UNL     1      45.899   4.145  13.765  0.00  0.00    +0.000 NA
BRANCH  17  24
ATOM     23  N   UNL     1      43.640   2.650  12.581  0.00  0.00    +0.000 N 
ATOM     24  C   UNL     1      43.653   3.997  12.836  0.00  0.00    +0.000 C 
ATOM     25  O   UNL     1      42.627   4.626  13.037  0.00  0.00    +0.000 OA
ATOM     26  H   UNL     1      42.761   2.153  12.564  0.00  0.00    +0.000 HD
ATOM     27  H   UNL     1      44.517   2.163  12.435  0.00  0.00    +0.000 HD
ENDBRANCH  17  24
ENDBRANCH  16  20
ENDBRANCH  15  16
ENDBRANCH   1  15
TORSDOF 6
ENDMDL
MODEL 8
REMARK VINA RESULT:    -6.172      3.299      4.123
REMARK INTER + INTRA:          -9.316
REMARK INTER:                  -9.278
REMARK INTRA:                  -0.037
REMARK UNBOUND:                -0.979
REMARK  Name = 
REMARK  6 active torsions:
REMARK  status: ('A' for Active; 'I' for Inactive)
REMARK    1  A    between atoms: C_2  and  C_4
REMARK    2  A    between atoms: C_7  and  O_8
REMARK    3  A    between atoms: O_8  and  C_9
REMARK    4  A    between atoms: C_9  and  C_10
REMARK    5  A    between atoms: C_10  and  C_11
REMARK    6  A    between atoms: C_15  and  C_16
REMARK                            x       y       z     vdW  Elec       q    Type
REMARK                         _______ _______ _______ _____ _____    ______ ____
ROOT
ATOM      1  C   UNL     1      44.743   5.018  12.060  0.00  0.00    +0.000 C 
ENDROOT
BRANCH   1   2
ATOM      2  C   UNL     1      44.857   6.519  12.111  0.00  0.00    +0.000 A 
ATOM      3  C   UNL     1      45.799   7.110  12.957  0.00  0.00    +0.000 A 
ATOM      4  C   UNL     1      45.970   8.487  12.949  0.00  0.00    +0.000 A 
ATOM      5  C   UNL     1      45.198   9.283  12.104  0.00  0.00    +0.000 A 
ATOM      6  C   UNL     1      44.247   8.731  11.233  0.00  0.00    +0.000 A 
ATOM      7  C   UNL     1      44.089   7.331  11.256  0.00  0.00    +0.000 A 
BRANCH   6   8
ATOM      8  C   UNL     1      43.355   9.576  10.319  0.00  0.00    +0.000 C 
ATOM      9  C   UNL     1      44.034  10.853   9.794  0.00  0.00    +0.000 C 
ATOM     10  C   UNL     1      44.154  11.904  10.892  0.00  0.00    +0.000 C 
ATOM     11  C   UNL     1      42.812  12.201  11.562  0.00  0.00    +0.000 C 
ATOM     12  N   UNL     1      42.015  11.034  11.930  0.00  0.00    +0.000 NA
ATOM     13  C   UNL     1      41.977   9.991  10.895  0.00  0.00    +0.000 C 
ATOM     14  H   UNL     1      42.379  10.651  12.800  0.00  0.00    +0.000 HD
ENDBRANCH   6   8
ENDBRANCH   1   2
BRANCH   1  15
ATOM     15  C   UNL     1      43.475   4.625  11.300  0.00  0.00    +0.000 C 
BRANCH  15  16
ATOM     16  O   UNL     1      43.685   4.799   9.898  0.00  0.00    +0.000 OA
BRANCH  16  20
ATOM     17  C   UNL     1      46.330   2.319   7.973  0.00  0.00    +0.000 A 
ATOM     18  C   UNL     1      45.451   1.712   8.859  0.00  0.00    +0.000 A 
ATOM     19  C   UNL     1      44.535   2.516   9.538  0.00  0.00    +0.000 A 
ATOM     20  C   UNL     1      44.521   3.892   9.308  0.00  0.00    +0.000 A 
ATOM     21  C   UNL     1      45.441   4.401   8.397  0.00  0.00    +0.000 A 
ATOM     22  N   UNL     1      46.351   3.656   7.720  0.00  0.00    +0.000 NA
BRANCH  17  24
ATOM     23  N   UNL     1      46.991   0.156   7.108  0.00  0.00    +0.000 N 
ATOM     24  C   UNL     1      47.329   1.478   7.240  0.00  0.00    +0.000 C 
ATOM     25  O   UNL     1      48.368   1.928   6.786  0.00  0.00    +0.000 OA
ATOM     26  H   UNL     1      47.611  -0.471   6.616  0.00  0.00    +0.000 HD
ATOM     27  H   UNL     1      46.111  -0.173   7.487  0.00  0.00    +0.000 HD
ENDBRANCH  17  24
ENDBRANCH  16  20
ENDBRANCH  15  16
ENDBRANCH   1  15
TORSDOF 6
ENDMDL
MODEL 9
REMARK VINA RESULT:    -6.046      3.758      6.270
REMARK INTER + INTRA:          -9.145
REMARK INTER:                  -8.610
REMARK INTRA:                  -0.535
REMARK UNBOUND:                -0.979
REMARK  Name = 
REMARK  6 active torsions:
REMARK  status: ('A' for Active; 'I' for Inactive)
REMARK    1  A    between atoms: C_2  and  C_4
REMARK    2  A    between atoms: C_7  and  O_8
REMARK    3  A    between atoms: O_8  and  C_9
REMARK    4  A    between atoms: C_9  and  C_10
REMARK    5  A    between atoms: C_10  and  C_11
REMARK    6  A    between atoms: C_15  and  C_16
REMARK                            x       y       z     vdW  Elec       q    Type
REMARK                         _______ _______ _______ _____ _____    ______ ____
ROOT
ATOM      1  C   UNL     1      50.053   7.734  13.938  0.00  0.00    +0.000 C 
ENDROOT
BRANCH   1   2
ATOM      2  C   UNL     1      49.441   8.027  15.283  0.00  0.00    +0.000 A 
ATOM      3  C   UNL     1      48.846   9.270  15.513  0.00  0.00    +0.000 A 
ATOM      4  C   UNL     1      48.206   9.520  16.718  0.00  0.00    +0.000 A 
ATOM      5  C   UNL     1      48.162   8.535  17.704  0.00  0.00    +0.000 A 
ATOM      6  C   UNL     1      48.738   7.270  17.511  0.00  0.00    +0.000 A 
ATOM      7  C   UNL     1      49.383   7.037  16.281  0.00  0.00    +0.000 A 
BRANCH   6   8
ATOM      8  C   UNL     1      48.741   6.177  18.585  0.00  0.00    +0.000 C 
ATOM      9  C   UNL     1      49.537   4.921  18.192  0.00  0.00    +0.000 C 
ATOM     10  C   UNL     1      48.788   4.098  17.150  0.00  0.00    +0.000 C 
ATOM     11  C   UNL     1      47.363   3.761  17.589  0.00  0.00    +0.000 C 
ATOM     12  N   UNL     1      46.593   4.869  18.149  0.00  0.00    +0.000 NA
ATOM     13  C   UNL     1      47.353   5.705  19.089  0.00  0.00    +0.000 C 
ATOM     14  H   UNL     1      46.237   5.437  17.384  0.00  0.00    +0.000 HD
ENDBRANCH   6   8
ENDBRANCH   1   2
BRANCH   1  15
ATOM     15  C   UNL     1      48.949   7.411  12.931  0.00  0.00    +0.000 C 
BRANCH  15  16
ATOM     16  O   UNL     1      48.374   6.141  13.244  0.00  0.00    +0.000 OA
BRANCH  16  20
ATOM     17  C   UNL     1      44.552   5.279  12.018  0.00  0.00    +0.000 A 
ATOM     18  C   UNL     1      45.221   6.263  11.302  0.00  0.00    +0.000 A 
ATOM     19  C   UNL     1      46.522   6.591  11.685  0.00  0.00    +0.000 A 
ATOM     20  C   UNL     1      47.114   5.927  12.759  0.00  0.00    +0.000 A 
ATOM     21  C   UNL     1      46.360   4.953  13.408  0.00  0.00    +0.000 A 
ATOM     22  N   UNL     1      45.092   4.608  13.073  0.00  0.00    +0.000 NA
BRANCH  17  24
ATOM     23  N   UNL     1      42.248   5.947  11.690  0.00  0.00    +0.000 N 
ATOM     24  C   UNL     1      43.152   4.917  11.634  0.00  0.00    +0.000 C 
ATOM     25  O   UNL     1      42.828   3.792  11.289  0.00  0.00    +0.000 OA
ATOM     26  H   UNL     1      41.285   5.781  11.435  0.00  0.00    +0.000 HD
ATOM     27  H   UNL     1      42.562   6.870  11.967  0.00  0.00    +0.000 HD
ENDBRANCH  17  24
ENDBRANCH  16  20
ENDBRANCH  15  16
ENDBRANCH   1  15
TORSDOF 6
ENDMDL
