MODEL 1
REMARK VINA RESULT:    -7.676      0.000      0.000
REMARK INTER + INTRA:          -8.939
REMARK INTER:                  -8.574
REMARK INTRA:                  -0.365
REMARK UNBOUND:                -0.365
REMARK  Name = 
REMARK  2 active torsions:
REMARK  status: ('A' for Active; 'I' for Inactive)
REMARK    1  A    between atoms: N_5  and  C_6
REMARK    2  A    between atoms: C_6  and  C_7
REMARK                            x       y       z     vdW  Elec       q    Type
REMARK                         _______ _______ _______ _____ _____    ______ ____
ROOT
ATOM      1  C   UNL     1      44.206   3.974  10.988  0.00  0.00    +0.000 A 
ATOM      2  C   UNL     1      43.197   3.904  11.946  0.00  0.00    +0.000 A 
ATOM      3  C   UNL     1      43.188   4.851  12.957  0.00  0.00    +0.000 A 
ATOM      4  N   UNL     1      44.093   5.850  13.073  0.00  0.00    +0.000 NA
ATOM      5  C   UNL     1      45.071   5.921  12.149  0.00  0.00    +0.000 A 
ATOM      6  N   UNL     1      45.984   6.963  12.159  0.00  0.00    +0.000 N 
ATOM      7  C   UNL     1      45.628   8.186  12.884  0.00  0.00    +0.000 C 
ATOM      8  C   UNL     1      46.510   9.312  12.313  0.00  0.00    +0.000 C 
ATOM      9  O   UNL     1      47.915   9.013  12.461  0.00  0.00    +0.000 OA
ATOM     10  C   UNL     1      48.245   7.771  11.810  0.00  0.00    +0.000 C 
ATOM     11  C   UNL     1      47.398   6.606  12.348  0.00  0.00    +0.000 C 
ATOM     12  C   UNL     1      45.140   5.002  11.101  0.00  0.00    +0.000 A 
ENDROOT
BRANCH   1  13
ATOM     13  C   UNL     1      44.305   2.990   9.854  0.00  0.00    +0.000 C 
BRANCH  13  18
ATOM     14  C   UNL     1      47.570   1.751   6.104  0.00  0.00    +0.000 A 
ATOM     15  C   UNL     1      47.176   1.052   7.231  0.00  0.00    +0.000 A 
ATOM     16  C   UNL     1      46.276   1.647   8.117  0.00  0.00    +0.000 A 
ATOM     17  C   UNL     1      45.781   2.920   7.861  0.00  0.00    +0.000 A 
ATOM     18  N   UNL     1      44.924   3.584   8.699  0.00  0.00    +0.000 N 
ATOM     19  N   UNL     1      46.157   3.601   6.761  0.00  0.00    +0.000 NA
ATOM     20  C   UNL     1      47.035   3.012   5.915  0.00  0.00    +0.000 A 
ATOM     21  H   UNL     1      44.612   4.483   8.352  0.00  0.00    +0.000 HD
ENDBRANCH  13  18
ENDBRANCH   1  13
TORSDOF 2
ENDMDL
MODEL 2
REMARK VINA RESULT:    -7.333      2.426      6.332
REMARK INTER + INTRA:          -8.556
REMARK INTER:                  -8.081
REMARK INTRA:                  -0.475
REMARK UNBOUND:                -0.365
REMARK  Name = 
REMARK  2 active torsions:
REMARK  status: ('A' for Active; 'I' for Inactive)
REMARK    1  A    between atoms: N_5  and  C_6
REMARK    2  A    between atoms: C_6  and  C_7
REMARK                            x       y       z     vdW  Elec       q    Type
REMARK                         _______ _______ _______ _____ _____    ______ ____
ROOT
ATOM      1  C   UNL     1      44.512   4.919  12.179  0.00  0.00    +0.000 A 
ATOM      2  C   UNL     1      43.534   4.067  12.687  0.00  0.00    +0.000 A 
ATOM      3  C   UNL     1      43.215   2.930  11.963  0.00  0.00    +0.000 A 
ATOM      4  N   UNL     1      43.798   2.584  10.792  0.00  0.00    +0.000 NA
ATOM      5  C   UNL     1      44.744   3.406  10.296  0.00  0.00    +0.000 A 
ATOM      6  N   UNL     1      45.439   3.075   9.144  0.00  0.00    +0.000 N 
ATOM      7  C   UNL     1      45.454   1.671   8.727  0.00  0.00    +0.000 C 
ATOM      8  C   UNL     1      46.670   1.499   7.796  0.00  0.00    +0.000 C 
ATOM      9  O   UNL     1      46.594   2.377   6.654  0.00  0.00    +0.000 OA
ATOM     10  C   UNL     1      46.502   3.753   7.071  0.00  0.00    +0.000 C 
ATOM     11  C   UNL     1      45.298   3.986   7.998  0.00  0.00    +0.000 C 
ATOM     12  C   UNL     1      45.118   4.566  10.974  0.00  0.00    +0.000 A 
ENDROOT
BRANCH   1  13
ATOM     13  C   UNL     1      44.926   6.179  12.888  0.00  0.00    +0.000 C 
BRANCH  13  18
ATOM     14  C   UNL     1      49.714   7.961  12.504  0.00  0.00    +0.000 A 
ATOM     15  C   UNL     1      48.609   8.150  11.693  0.00  0.00    +0.000 A 
ATOM     16  C   UNL     1      47.411   7.514  12.024  0.00  0.00    +0.000 A 
ATOM     17  C   UNL     1      47.335   6.710  13.154  0.00  0.00    +0.000 A 
ATOM     18  N   UNL     1      46.208   6.024  13.524  0.00  0.00    +0.000 N 
ATOM     19  N   UNL     1      48.408   6.529  13.950  0.00  0.00    +0.000 NA
ATOM     20  C   UNL     1      49.564   7.149  13.612  0.00  0.00    +0.000 A 
ATOM     21  H   UNL     1      46.292   5.521  14.399  0.00  0.00    +0.000 HD
ENDBRANCH  13  18
ENDBRANCH   1  13
TORSDOF 2
ENDMDL
MODEL 3
REMARK VINA RESULT:    -7.087      1.578      1.894
REMARK INTER + INTRA:          -8.281
REMARK INTER:                  -7.837
REMARK INTRA:                  -0.443
REMARK UNBOUND:                -0.365
REMARK  Name = 
REMARK  2 active torsions:
REMARK  status: ('A' for Active; 'I' for Inactive)
REMARK    1  A    between atoms: N_5  and  C_6
REMARK    2  A    between atoms: C_6  and  C_7
REMARK                            x       y       z     vdW  Elec       q    Type
REMARK                         _______ _______ _______ _____ _____    ______ ____
ROOT
ATOM      1  C   UNL     1      45.325   4.977  11.527  0.00  0.00    +0.000 A 
ATOM      2  C   UNL     1      45.387   4.069  12.583  0.00  0.00    +0.000 A 
ATOM      3  C   UNL     1      46.245   4.347  13.635  0.00  0.00    +0.000 A 
ATOM      4  N   UNL     1      47.024   5.450  13.712  0.00  0.00    +0.000 NA
ATOM      5  C   UNL     1      46.967   6.330  12.693  0.00  0.00    +0.000 A 
ATOM      6  N   UNL     1      47.677   7.519  12.742  0.00  0.00    +0.000 N 
ATOM      7  C   UNL     1      48.122   8.004  14.051  0.00  0.00    +0.000 C 
ATOM      8  C   UNL     1      48.382   9.515  13.898  0.00  0.00    +0.000 C 
ATOM      9  O   UNL     1      49.371   9.784  12.882  0.00  0.00    +0.000 OA
ATOM     10  C   UNL     1      48.963   9.239  11.613  0.00  0.00    +0.000 C 
ATOM     11  C   UNL     1      48.696   7.728  11.704  0.00  0.00    +0.000 C 
ATOM     12  C   UNL     1      46.124   6.116  11.603  0.00  0.00    +0.000 A 
ENDROOT
BRANCH   1  13
ATOM     13  C   UNL     1      44.429   4.763  10.338  0.00  0.00    +0.000 C 
BRANCH  13  18
ATOM     14  C   UNL     1      46.851   1.857   6.882  0.00  0.00    +0.000 A 
ATOM     15  C   UNL     1      46.296   1.535   8.108  0.00  0.00    +0.000 A 
ATOM     16  C   UNL     1      45.710   2.546   8.871  0.00  0.00    +0.000 A 
ATOM     17  C   UNL     1      45.681   3.852   8.398  0.00  0.00    +0.000 A 
ATOM     18  N   UNL     1      45.157   4.904   9.104  0.00  0.00    +0.000 N 
ATOM     19  N   UNL     1      46.215   4.168   7.202  0.00  0.00    +0.000 NA
ATOM     20  C   UNL     1      46.785   3.177   6.476  0.00  0.00    +0.000 A 
ATOM     21  H   UNL     1      45.163   5.786   8.607  0.00  0.00    +0.000 HD
ENDBRANCH  13  18
ENDBRANCH   1  13
TORSDOF 2
ENDMDL
MODEL 4
REMARK VINA RESULT:    -6.854      2.477      6.712
REMARK INTER + INTRA:          -8.020
REMARK INTER:                  -7.707
REMARK INTRA:                  -0.314
REMARK UNBOUND:                -0.365
REMARK  Name = 
REMARK  2 active torsions:
REMARK  status: ('A' for Active; 'I' for Inactive)
REMARK    1  A    between atoms: N_5  and  C_6
REMARK    2  A    between atoms: C_6  and  C_7
REMARK                            x       y       z     vdW  Elec       q    Type
REMARK                         _______ _______ _______ _____ _____    ______ ____
ROOT
ATOM      1  C   UNL     1      44.630   5.100  12.047  0.00  0.00    +0.000 A 
ATOM      2  C   UNL     1      43.579   4.346  12.566  0.00  0.00    +0.000 A 
ATOM      3  C   UNL     1      43.185   3.211  11.877  0.00  0.00    +0.000 A 
ATOM      4  N   UNL     1      43.760   2.776  10.732  0.00  0.00    +0.000 NA
ATOM      5  C   UNL     1      44.777   3.502  10.227  0.00  0.00    +0.000 A 
ATOM      6  N   UNL     1      45.465   3.074   9.103  0.00  0.00    +0.000 N 
ATOM      7  C   UNL     1      45.378   1.657   8.739  0.00  0.00    +0.000 C 
ATOM      8  C   UNL     1      46.594   1.355   7.842  0.00  0.00    +0.000 C 
ATOM      9  O   UNL     1      46.608   2.192   6.666  0.00  0.00    +0.000 OA
ATOM     10  C   UNL     1      46.617   3.586   7.030  0.00  0.00    +0.000 C 
ATOM     11  C   UNL     1      45.418   3.948   7.922  0.00  0.00    +0.000 C 
ATOM     12  C   UNL     1      45.229   4.655  10.869  0.00  0.00    +0.000 A 
ENDROOT
BRANCH   1  13
ATOM     13  C   UNL     1      45.129   6.350  12.718  0.00  0.00    +0.000 C 
BRANCH  13  18
ATOM     14  C   UNL     1      46.261  11.164  11.379  0.00  0.00    +0.000 A 
ATOM     15  C   UNL     1      47.023  10.195  12.006  0.00  0.00    +0.000 A 
ATOM     16  C   UNL     1      46.446   8.953  12.280  0.00  0.00    +0.000 A 
ATOM     17  C   UNL     1      45.129   8.700  11.919  0.00  0.00    +0.000 A 
ATOM     18  N   UNL     1      44.483   7.521  12.186  0.00  0.00    +0.000 N 
ATOM     19  N   UNL     1      44.386   9.639  11.302  0.00  0.00    +0.000 NA
ATOM     20  C   UNL     1      44.958  10.840  11.048  0.00  0.00    +0.000 A 
ATOM     21  H   UNL     1      43.541   7.467  11.816  0.00  0.00    +0.000 HD
ENDBRANCH  13  18
ENDBRANCH   1  13
TORSDOF 2
ENDMDL
MODEL 5
REMARK VINA RESULT:    -6.602      5.193      7.823
REMARK INTER + INTRA:          -7.739
REMARK INTER:                  -7.351
REMARK INTRA:                  -0.388
REMARK UNBOUND:                -0.365
REMARK  Name = 
REMARK  2 active torsions:
REMARK  status: ('A' for Active; 'I' for Inactive)
REMARK    1  A    between atoms: N_5  and  C_6
REMARK    2  A    between atoms: C_6  and  C_7
REMARK                            x       y       z     vdW  Elec       q    Type
REMARK                         _______ _______ _______ _____ _____    ______ ____
ROOT
ATOM      1  C   UNL     1      47.385   4.671  15.557  0.00  0.00    +0.000 A 
ATOM      2  C   UNL     1      48.192   5.741  15.178  0.00  0.00    +0.000 A 
ATOM      3  C   UNL     1      47.924   6.370  13.974  0.00  0.00    +0.000 A 
ATOM      4  N   UNL     1      46.919   6.020  13.139  0.00  0.00    +0.000 NA
ATOM      5  C   UNL     1      46.136   4.985  13.500  0.00  0.00    +0.000 A 
ATOM      6  N   UNL     1      45.040   4.621  12.734  0.00  0.00    +0.000 N 
ATOM      7  C   UNL     1      44.493   5.609  11.800  0.00  0.00    +0.000 C 
ATOM      8  C   UNL     1      43.044   5.180  11.499  0.00  0.00    +0.000 C 
ATOM      9  O   UNL     1      42.990   3.851  10.938  0.00  0.00    +0.000 OA
ATOM     10  C   UNL     1      43.596   2.894  11.828  0.00  0.00    +0.000 C 
ATOM     11  C   UNL     1      45.050   3.269  12.158  0.00  0.00    +0.000 C 
ATOM     12  C   UNL     1      46.346   4.307  14.701  0.00  0.00    +0.000 A 
ENDROOT
BRANCH   1  13
ATOM     13  C   UNL     1      47.598   3.920  16.843  0.00  0.00    +0.000 C 
BRANCH  13  18
ATOM     14  C   UNL     1      52.374   2.410  17.921  0.00  0.00    +0.000 A 
ATOM     15  C   UNL     1      51.748   3.631  18.097  0.00  0.00    +0.000 A 
ATOM     16  C   UNL     1      50.423   3.778  17.683  0.00  0.00    +0.000 A 
ATOM     17  C   UNL     1      49.747   2.708  17.111  0.00  0.00    +0.000 A 
ATOM     18  N   UNL     1      48.459   2.784  16.647  0.00  0.00    +0.000 N 
ATOM     19  N   UNL     1      50.351   1.515  16.944  0.00  0.00    +0.000 NA
ATOM     20  C   UNL     1      51.639   1.390  17.345  0.00  0.00    +0.000 A 
ATOM     21  H   UNL     1      48.086   1.907  16.302  0.00  0.00    +0.000 HD
ENDBRANCH  13  18
ENDBRANCH   1  13
TORSDOF 2
ENDMDL
MODEL 6
REMARK VINA RESULT:    -6.148      3.603      7.263
REMARK INTER + INTRA:          -7.232
REMARK INTER:                  -6.796
REMARK INTRA:                  -0.437
REMARK UNBOUND:                -0.365
REMARK  Name = 
REMARK  2 active torsions:
REMARK  status: ('A' for Active; 'I' for Inactive)
REMARK    1  A    between atoms: N_5  and  C_6
REMARK    2  A    between atoms: C_6  and  C_7
REMARK                            x       y       z     vdW  Elec       q    Type
REMARK                         _______ _______ _______ _____ _____    ______ ____
ROOT
ATOM      1  C   UNL     1      46.522   8.788  12.427  0.00  0.00    +0.000 A 
ATOM      2  C   UNL     1      47.597   8.530  13.274  0.00  0.00    +0.000 A 
ATOM      3  C   UNL     1      47.744   7.246  13.774  0.00  0.00    +0.000 A 
ATOM      4  N   UNL     1      46.913   6.217  13.486  0.00  0.00    +0.000 NA
ATOM      5  C   UNL     1      45.871   6.463  12.668  0.00  0.00    +0.000 A 
ATOM      6  N   UNL     1      45.027   5.440  12.267  0.00  0.00    +0.000 N 
ATOM      7  C   UNL     1      45.513   4.062  12.373  0.00  0.00    +0.000 C 
ATOM      8  C   UNL     1      44.658   3.215  11.411  0.00  0.00    +0.000 C 
ATOM      9  O   UNL     1      43.255   3.295  11.737  0.00  0.00    +0.000 OA
ATOM     10  C   UNL     1      42.799   4.661  11.705  0.00  0.00    +0.000 C 
ATOM     11  C   UNL     1      43.613   5.554  12.655  0.00  0.00    +0.000 C 
ATOM     12  C   UNL     1      45.664   7.731  12.126  0.00  0.00    +0.000 A 
ENDROOT
BRANCH   1  13
ATOM     13  C   UNL     1      46.273  10.150  11.838  0.00  0.00    +0.000 C 
BRANCH  13  18
ATOM     14  C   UNL     1      41.626  11.101   9.902  0.00  0.00    +0.000 A 
ATOM     15  C   UNL     1      42.797  10.692   9.289  0.00  0.00    +0.000 A 
ATOM     16  C   UNL     1      43.946  10.531  10.065  0.00  0.00    +0.000 A 
ATOM     17  C   UNL     1      43.906  10.774  11.432  0.00  0.00    +0.000 A 
ATOM     18  N   UNL     1      44.999  10.674  12.253  0.00  0.00    +0.000 N 
ATOM     19  N   UNL     1      42.766  11.166  12.034  0.00  0.00    +0.000 NA
ATOM     20  C   UNL     1      41.661  11.323  11.266  0.00  0.00    +0.000 A 
ATOM     21  H   UNL     1      44.802  10.832  13.234  0.00  0.00    +0.000 HD
ENDBRANCH  13  18
ENDBRANCH   1  13
TORSDOF 2
ENDMDL
MODEL 7
REMARK VINA RESULT:    -5.973      3.234      7.393
REMARK INTER + INTRA:          -7.037
REMARK INTER:                  -6.645
REMARK INTRA:                  -0.392
REMARK UNBOUND:                -0.365
REMARK  Name = 
REMARK  2 active torsions:
REMARK  status: ('A' for Active; 'I' for Inactive)
REMARK    1  A    between atoms: N_5  and  C_6
REMARK    2  A    between atoms: C_6  and  C_7
REMARK                            x       y       z     vdW  Elec       q    Type
REMARK                         _______ _______ _______ _____ _____    ______ ____
ROOT
ATOM      1  C   UNL     1      47.425   7.765  12.050  0.00  0.00    +0.000 A 
ATOM      2  C   UNL     1      46.623   8.895  12.190  0.00  0.00    +0.000 A 
ATOM      3  C   UNL     1      45.266   8.770  11.941  0.00  0.00    +0.000 A 
ATOM      4  N   UNL     1      44.661   7.616  11.577  0.00  0.00    +0.000 NA
ATOM      5  C   UNL     1      45.433   6.520  11.440  0.00  0.00    +0.000 A 
ATOM      6  N   UNL     1      44.871   5.287  11.148  0.00  0.00    +0.000 N 
ATOM      7  C   UNL     1      43.444   5.099  11.419  0.00  0.00    +0.000 C 
ATOM      8  C   UNL     1      43.210   3.579  11.522  0.00  0.00    +0.000 C 
ATOM      9  O   UNL     1      43.602   2.898  10.312  0.00  0.00    +0.000 OA
ATOM     10  C   UNL     1      44.988   3.149  10.009  0.00  0.00    +0.000 C 
ATOM     11  C   UNL     1      45.279   4.653   9.886  0.00  0.00    +0.000 C 
ATOM     12  C   UNL     1      46.807   6.572  11.677  0.00  0.00    +0.000 A 
ENDROOT
BRANCH   1  13
ATOM     13  C   UNL     1      48.910   7.799  12.292  0.00  0.00    +0.000 C 
BRANCH  13  18
ATOM     14  C   UNL     1      48.926   7.626  17.413  0.00  0.00    +0.000 A 
ATOM     15  C   UNL     1      48.624   8.658  16.542  0.00  0.00    +0.000 A 
ATOM     16  C   UNL     1      48.729   8.435  15.167  0.00  0.00    +0.000 A 
ATOM     17  C   UNL     1      49.124   7.192  14.689  0.00  0.00    +0.000 A 
ATOM     18  N   UNL     1      49.285   6.908  13.358  0.00  0.00    +0.000 N 
ATOM     19  N   UNL     1      49.412   6.183  15.534  0.00  0.00    +0.000 NA
ATOM     20  C   UNL     1      49.311   6.417  16.864  0.00  0.00    +0.000 A 
ATOM     21  H   UNL     1      49.528   5.944  13.162  0.00  0.00    +0.000 HD
ENDBRANCH  13  18
ENDBRANCH   1  13
TORSDOF 2
ENDMDL
MODEL 8
REMARK VINA RESULT:    -5.840      3.946      6.169
REMARK INTER + INTRA:          -6.888
REMARK INTER:                  -6.597
REMARK INTRA:                  -0.291
REMARK UNBOUND:                -0.365
REMARK  Name = 
REMARK  2 active torsions:
REMARK  status: ('A' for Active; 'I' for Inactive)
REMARK    1  A    between atoms: N_5  and  C_6
REMARK    2  A    between atoms: C_6  and  C_7
REMARK                            x       y       z     vdW  Elec       q    Type
REMARK                         _______ _______ _______ _____ _____    ______ ____
ROOT
ATOM      1  C   UNL     1      43.733   5.708  11.834  0.00  0.00    +0.000 A 
ATOM      2  C   UNL     1      43.389   4.389  11.543  0.00  0.00    +0.000 A 
ATOM      3  C   UNL     1      44.156   3.376  12.093  0.00  0.00    +0.000 A 
ATOM      4  N   UNL     1      45.218   3.580  12.907  0.00  0.00    +0.000 NA
ATOM      5  C   UNL     1      45.555   4.853  13.190  0.00  0.00    +0.000 A 
ATOM      6  N   UNL     1      46.580   5.136  14.079  0.00  0.00    +0.000 N 
ATOM      7  C   UNL     1      46.990   4.086  15.016  0.00  0.00    +0.000 C 
ATOM      8  C   UNL     1      47.712   4.791  16.180  0.00  0.00    +0.000 C 
ATOM      9  O   UNL     1      48.852   5.547  15.719  0.00  0.00    +0.000 OA
ATOM     10  C   UNL     1      48.454   6.527  14.741  0.00  0.00    +0.000 C 
ATOM     11  C   UNL     1      47.733   5.878  13.549  0.00  0.00    +0.000 C 
ATOM     12  C   UNL     1      44.825   5.924  12.673  0.00  0.00    +0.000 A 
ENDROOT
BRANCH   1  13
ATOM     13  C   UNL     1      42.966   6.878  11.282  0.00  0.00    +0.000 C 
BRANCH  13  18
ATOM     14  C   UNL     1      42.660  11.905  10.344  0.00  0.00    +0.000 A 
ATOM     15  C   UNL     1      41.674  10.938  10.429  0.00  0.00    +0.000 A 
ATOM     16  C   UNL     1      42.046   9.614  10.674  0.00  0.00    +0.000 A 
ATOM     17  C   UNL     1      43.385   9.283  10.836  0.00  0.00    +0.000 A 
ATOM     18  N   UNL     1      43.830   8.003  11.043  0.00  0.00    +0.000 N 
ATOM     19  N   UNL     1      44.347  10.223  10.761  0.00  0.00    +0.000 NA
ATOM     20  C   UNL     1      43.971  11.501  10.517  0.00  0.00    +0.000 A 
ATOM     21  H   UNL     1      44.829   7.926  11.192  0.00  0.00    +0.000 HD
ENDBRANCH  13  18
ENDBRANCH   1  13
TORSDOF 2
ENDMDL
MODEL 9
REMARK VINA RESULT:    -5.735      4.952      8.803
REMARK INTER + INTRA:          -6.771
REMARK INTER:                  -6.471
REMARK INTRA:                  -0.299
REMARK UNBOUND:                -0.365
REMARK  Name = 
REMARK  2 active torsions:
REMARK  status: ('A' for Active; 'I' for Inactive)
REMARK    1  A    between atoms: N_5  and  C_6
REMARK    2  A    between atoms: C_6  and  C_7
REMARK                            x       y       z     vdW  Elec       q    Type
REMARK                         _______ _______ _______ _____ _____    ______ ____
ROOT
ATOM      1  C   UNL     1      47.635   5.323  15.012  0.00  0.00    +0.000 A 
ATOM      2  C   UNL     1      48.341   6.350  14.390  0.00  0.00    +0.000 A 
ATOM      3  C   UNL     1      47.916   6.775  13.141  0.00  0.00    +0.000 A 
ATOM      4  N   UNL     1      46.850   6.263  12.484  0.00  0.00    +0.000 NA
ATOM      5  C   UNL     1      46.165   5.269  13.081  0.00  0.00    +0.000 A 
ATOM      6  N   UNL     1      45.016   4.751  12.504  0.00  0.00    +0.000 N 
ATOM      7  C   UNL     1      44.324   5.562  11.498  0.00  0.00    +0.000 C 
ATOM      8  C   UNL     1      42.877   5.039  11.427  0.00  0.00    +0.000 C 
ATOM      9  O   UNL     1      42.835   3.638  11.082  0.00  0.00    +0.000 OA
ATOM     10  C   UNL     1      43.580   2.854  12.033  0.00  0.00    +0.000 C 
ATOM     11  C   UNL     1      45.038   3.327  12.140  0.00  0.00    +0.000 C 
ATOM     12  C   UNL     1      46.534   4.793  14.340  0.00  0.00    +0.000 A 
ENDROOT
BRANCH   1  13
ATOM     13  C   UNL     1      48.020   4.789  16.364  0.00  0.00    +0.000 C 
BRANCH  13  18
ATOM     14  C   UNL     1      48.242   7.052  20.955  0.00  0.00    +0.000 A 
ATOM     15  C   UNL     1      47.276   6.238  20.392  0.00  0.00    +0.000 A 
ATOM     16  C   UNL     1      47.460   5.771  19.089  0.00  0.00    +0.000 A 
ATOM     17  C   UNL     1      48.602   6.117  18.377  0.00  0.00    +0.000 A 
ATOM     18  N   UNL     1      48.836   5.730  17.084  0.00  0.00    +0.000 N 
ATOM     19  N   UNL     1      49.548   6.905  18.925  0.00  0.00    +0.000 NA
ATOM     20  C   UNL     1      49.352   7.354  20.188  0.00  0.00    +0.000 A 
ATOM     21  H   UNL     1      49.735   6.018  16.717  0.00  0.00    +0.000 HD
ENDBRANCH  13  18
ENDBRANCH   1  13
TORSDOF 2
ENDMDL
