MODEL 1
REMARK VINA RESULT:    -7.839      0.000      0.000
REMARK INTER + INTRA:         -11.772
REMARK INTER:                 -11.046
REMARK INTRA:                  -0.725
REMARK UNBOUND:                -0.725
REMARK  Name = 
REMARK  7 active torsions:
REMARK  status: ('A' for Active; 'I' for Inactive)
REMARK    1  A    between atoms: C_2  and  C_3
REMARK    2  A    between atoms: C_3  and  C_4
REMARK    3  A    between atoms: C_4  and  C_5
REMARK    4  A    between atoms: C_8  and  C_9
REMARK    5  A    between atoms: C_9  and  O_10
REMARK    6  A    between atoms: O_10  and  C_11
REMARK    7  A    between atoms: C_11  and  C_12
REMARK                            x       y       z     vdW  Elec       q    Type
REMARK                         _______ _______ _______ _____ _____    ______ ____
ROOT
ATOM      1  C   UNL     1      47.547   5.138  14.817  0.00  0.00    +0.000 C 
ENDROOT
BRANCH   1   2
ATOM      2  C   UNL     1      46.456   4.891  13.812  0.00  0.00    +0.000 A 
ATOM      3  C   UNL     1      45.670   5.947  13.338  0.00  0.00    +0.000 A 
ATOM      4  C   UNL     1      44.677   5.711  12.392  0.00  0.00    +0.000 A 
ATOM      5  C   UNL     1      44.470   4.420  11.889  0.00  0.00    +0.000 A 
ATOM      6  C   UNL     1      45.256   3.363  12.362  0.00  0.00    +0.000 A 
ATOM      7  C   UNL     1      46.242   3.599  13.316  0.00  0.00    +0.000 A 
BRANCH   5   8
ATOM      8  C   UNL     1      43.462   4.191  10.794  0.00  0.00    +0.000 C 
BRANCH   8   9
ATOM      9  O   UNL     1      43.976   3.302   9.804  0.00  0.00    +0.000 OA
BRANCH   9  10
ATOM     10  C   UNL     1      44.536   3.997   8.684  0.00  0.00    +0.000 C 
BRANCH  10  11
ATOM     11  C   UNL     1      45.626   3.164   8.058  0.00  0.00    +0.000 A 
ATOM     12  C   UNL     1      45.764   1.821   8.408  0.00  0.00    +0.000 A 
ATOM     13  C   UNL     1      46.760   1.065   7.800  0.00  0.00    +0.000 A 
ATOM     14  C   UNL     1      47.586   1.666   6.859  0.00  0.00    +0.000 A 
ATOM     15  C   UNL     1      47.378   3.003   6.562  0.00  0.00    +0.000 A 
ATOM     16  N   UNL     1      46.419   3.760   7.132  0.00  0.00    +0.000 NA
ENDBRANCH  10  11
ENDBRANCH   9  10
ENDBRANCH   8   9
ENDBRANCH   5   8
ENDBRANCH   1   2
BRANCH   1  17
ATOM     17  C   UNL     1      47.327   4.369  16.121  0.00  0.00    +0.000 C 
BRANCH  17  19
ATOM     18  O   UNL     1      48.536   2.323  16.080  0.00  0.00    +0.000 OA
ATOM     19  C   UNL     1      48.535   3.502  16.419  0.00  0.00    +0.000 C 
ATOM     20  N   UNL     1      49.559   4.121  17.109  0.00  0.00    +0.000 N 
ATOM     21  C   UNL     1      49.559   5.526  17.558  0.00  0.00    +0.000 C 
ATOM     22  C   UNL     1      50.802   5.692  18.437  0.00  0.00    +0.000 C 
ATOM     23  C   UNL     1      51.424   4.336  18.358  0.00  0.00    +0.000 A 
ATOM     24  N   UNL     1      52.565   4.028  19.046  0.00  0.00    +0.000 NA
ATOM     25  C   UNL     1      52.934   2.794  18.965  0.00  0.00    +0.000 A 
ATOM     26  N   UNL     1      52.283   1.841  18.232  0.00  0.00    +0.000 N 
ATOM     27  C   UNL     1      51.223   2.133  17.411  0.00  0.00    +0.000 A 
ATOM     28  O   UNL     1      50.853   1.309  16.587  0.00  0.00    +0.000 OA
ATOM     29  C   UNL     1      50.699   3.513  17.587  0.00  0.00    +0.000 A 
ATOM     30  H   UNL     1      52.663   0.913  18.128  0.00  0.00    +0.000 HD
ENDBRANCH  17  19
ENDBRANCH   1  17
TORSDOF 7
ENDMDL
MODEL 2
REMARK VINA RESULT:    -7.800      2.235      2.836
REMARK INTER + INTRA:         -11.717
REMARK INTER:                 -11.024
REMARK INTRA:                  -0.693
REMARK UNBOUND:                -0.725
REMARK  Name = 
REMARK  7 active torsions:
REMARK  status: ('A' for Active; 'I' for Inactive)
REMARK    1  A    between atoms: C_2  and  C_3
REMARK    2  A    between atoms: C_3  and  C_4
REMARK    3  A    between atoms: C_4  and  C_5
REMARK    4  A    between atoms: C_8  and  C_9
REMARK    5  A    between atoms: C_9  and  O_10
REMARK    6  A    between atoms: O_10  and  C_11
REMARK    7  A    between atoms: C_11  and  C_12
REMARK                            x       y       z     vdW  Elec       q    Type
REMARK                         _______ _______ _______ _____ _____    ______ ____
ROOT
ATOM      1  C   UNL     1      48.596   6.386  13.736  0.00  0.00    +0.000 C 
ENDROOT
BRANCH   1   2
ATOM      2  C   UNL     1      47.322   6.000  13.036  0.00  0.00    +0.000 A 
ATOM      3  C   UNL     1      46.487   5.010  13.568  0.00  0.00    +0.000 A 
ATOM      4  C   UNL     1      45.301   4.674  12.924  0.00  0.00    +0.000 A 
ATOM      5  C   UNL     1      44.919   5.337  11.750  0.00  0.00    +0.000 A 
ATOM      6  C   UNL     1      45.753   6.327  11.218  0.00  0.00    +0.000 A 
ATOM      7  C   UNL     1      46.946   6.655  11.858  0.00  0.00    +0.000 A 
BRANCH   5   8
ATOM      8  C   UNL     1      43.587   5.038  11.115  0.00  0.00    +0.000 C 
BRANCH   8   9
ATOM      9  O   UNL     1      43.757   4.434   9.833  0.00  0.00    +0.000 OA
BRANCH   9  10
ATOM     10  C   UNL     1      44.236   3.087   9.923  0.00  0.00    +0.000 C 
BRANCH  10  11
ATOM     11  C   UNL     1      45.274   2.841   8.858  0.00  0.00    +0.000 A 
ATOM     12  C   UNL     1      45.762   3.907   8.101  0.00  0.00    +0.000 A 
ATOM     13  C   UNL     1      46.737   3.661   7.141  0.00  0.00    +0.000 A 
ATOM     14  C   UNL     1      47.201   2.363   6.965  0.00  0.00    +0.000 A 
ATOM     15  C   UNL     1      46.670   1.363   7.762  0.00  0.00    +0.000 A 
ATOM     16  N   UNL     1      45.727   1.571   8.703  0.00  0.00    +0.000 NA
ENDBRANCH  10  11
ENDBRANCH   9  10
ENDBRANCH   8   9
ENDBRANCH   5   8
ENDBRANCH   1   2
BRANCH   1  17
ATOM     17  C   UNL     1      48.343   7.019  15.105  0.00  0.00    +0.000 C 
BRANCH  17  19
ATOM     18  O   UNL     1      48.711   4.811  15.904  0.00  0.00    +0.000 OA
ATOM     19  C   UNL     1      48.574   5.994  16.198  0.00  0.00    +0.000 C 
ATOM     20  N   UNL     1      48.570   6.486  17.489  0.00  0.00    +0.000 N 
ATOM     21  C   UNL     1      48.367   7.899  17.864  0.00  0.00    +0.000 C 
ATOM     22  C   UNL     1      48.251   7.921  19.391  0.00  0.00    +0.000 C 
ATOM     23  C   UNL     1      48.451   6.482  19.741  0.00  0.00    +0.000 A 
ATOM     24  N   UNL     1      48.387   6.042  21.034  0.00  0.00    +0.000 NA
ATOM     25  C   UNL     1      48.478   4.763  21.179  0.00  0.00    +0.000 A 
ATOM     26  N   UNL     1      48.660   3.881  20.151  0.00  0.00    +0.000 N 
ATOM     27  C   UNL     1      48.877   4.285  18.857  0.00  0.00    +0.000 A 
ATOM     28  O   UNL     1      49.294   3.481  18.036  0.00  0.00    +0.000 OA
ATOM     29  C   UNL     1      48.646   5.738  18.643  0.00  0.00    +0.000 A 
ATOM     30  H   UNL     1      48.817   2.900  20.326  0.00  0.00    +0.000 HD
ENDBRANCH  17  19
ENDBRANCH   1  17
TORSDOF 7
ENDMDL
MODEL 3
REMARK VINA RESULT:    -7.709      2.361      3.091
REMARK INTER + INTRA:         -11.590
REMARK INTER:                 -10.721
REMARK INTRA:                  -0.868
REMARK UNBOUND:                -0.725
REMARK  Name = 
REMARK  7 active torsions:
REMARK  status: ('A' for Active; 'I' for Inactive)
REMARK    1  A    between atoms: C_2  and  C_3
REMARK    2  A    between atoms: C_3  and  C_4
REMARK    3  A    between atoms: C_4  and  C_5
REMARK    4  A    between atoms: C_8  and  C_9
REMARK    5  A    between atoms: C_9  and  O_10
REMARK    6  A    between atoms: O_10  and  C_11
REMARK    7  A    between atoms: C_11  and  C_12
REMARK                            x       y       z     vdW  Elec       q    Type
REMARK                         _______ _______ _______ _____ _____    ______ ____
ROOT
ATOM      1  C   UNL     1      46.680   7.878  13.056  0.00  0.00    +0.000 C 
ENDROOT
BRANCH   1   2
ATOM      2  C   UNL     1      45.878   6.747  12.473  0.00  0.00    +0.000 A 
ATOM      3  C   UNL     1      46.187   6.231  11.210  0.00  0.00    +0.000 A 
ATOM      4  C   UNL     1      45.452   5.171  10.688  0.00  0.00    +0.000 A 
ATOM      5  C   UNL     1      44.411   4.597  11.430  0.00  0.00    +0.000 A 
ATOM      6  C   UNL     1      44.102   5.112  12.694  0.00  0.00    +0.000 A 
ATOM      7  C   UNL     1      44.832   6.180  13.211  0.00  0.00    +0.000 A 
BRANCH   5   8
ATOM      8  C   UNL     1      43.687   3.387  10.901  0.00  0.00    +0.000 C 
BRANCH   8   9
ATOM      9  O   UNL     1      43.980   3.181   9.520  0.00  0.00    +0.000 OA
BRANCH   9  10
ATOM     10  C   UNL     1      44.618   1.921   9.279  0.00  0.00    +0.000 C 
BRANCH  10  11
ATOM     11  C   UNL     1      45.695   2.084   8.237  0.00  0.00    +0.000 A 
ATOM     12  C   UNL     1      45.826   3.293   7.554  0.00  0.00    +0.000 A 
ATOM     13  C   UNL     1      46.843   3.429   6.615  0.00  0.00    +0.000 A 
ATOM     14  C   UNL     1      47.702   2.360   6.387  0.00  0.00    +0.000 A 
ATOM     15  C   UNL     1      47.509   1.198   7.114  0.00  0.00    +0.000 A 
ATOM     16  N   UNL     1      46.534   1.037   8.032  0.00  0.00    +0.000 NA
ENDBRANCH  10  11
ENDBRANCH   9  10
ENDBRANCH   8   9
ENDBRANCH   5   8
ENDBRANCH   1   2
BRANCH   1  17
ATOM     17  C   UNL     1      48.157   7.520  13.231  0.00  0.00    +0.000 C 
BRANCH  17  19
ATOM     18  O   UNL     1      48.112   5.354  14.209  0.00  0.00    +0.000 OA
ATOM     19  C   UNL     1      48.319   6.550  14.386  0.00  0.00    +0.000 C 
ATOM     20  N   UNL     1      48.658   7.117  15.598  0.00  0.00    +0.000 N 
ATOM     21  C   UNL     1      48.873   8.557  15.838  0.00  0.00    +0.000 C 
ATOM     22  C   UNL     1      49.033   8.716  17.352  0.00  0.00    +0.000 C 
ATOM     23  C   UNL     1      48.936   7.304  17.828  0.00  0.00    +0.000 A 
ATOM     24  N   UNL     1      48.993   6.988  19.158  0.00  0.00    +0.000 NA
ATOM     25  C   UNL     1      48.796   5.742  19.431  0.00  0.00    +0.000 A 
ATOM     26  N   UNL     1      48.577   4.772  18.492  0.00  0.00    +0.000 N 
ATOM     27  C   UNL     1      48.657   5.014  17.144  0.00  0.00    +0.000 A 
ATOM     28  O   UNL     1      48.717   4.073  16.365  0.00  0.00    +0.000 OA
ATOM     29  C   UNL     1      48.751   6.459  16.805  0.00  0.00    +0.000 A 
ATOM     30  H   UNL     1      48.520   3.799  18.751  0.00  0.00    +0.000 HD
ENDBRANCH  17  19
ENDBRANCH   1  17
TORSDOF 7
ENDMDL
MODEL 4
REMARK VINA RESULT:    -7.578      2.821      3.453
REMARK INTER + INTRA:         -11.404
REMARK INTER:                 -10.401
REMARK INTRA:                  -1.003
REMARK UNBOUND:                -0.725
REMARK  Name = 
REMARK  7 active torsions:
REMARK  status: ('A' for Active; 'I' for Inactive)
REMARK    1  A    between atoms: C_2  and  C_3
REMARK    2  A    between atoms: C_3  and  C_4
REMARK    3  A    between atoms: C_4  and  C_5
REMARK    4  A    between atoms: C_8  and  C_9
REMARK    5  A    between atoms: C_9  and  O_10
REMARK    6  A    between atoms: O_10  and  C_11
REMARK    7  A    between atoms: C_11  and  C_12
REMARK                            x       y       z     vdW  Elec       q    Type
REMARK                         _______ _______ _______ _____ _____    ______ ____
ROOT
ATOM      1  C   UNL     1      47.586   7.257  13.414  0.00  0.00    +0.000 C 
ENDROOT
BRANCH   1   2
ATOM      2  C   UNL     1      46.557   6.372  12.765  0.00  0.00    +0.000 A 
ATOM      3  C   UNL     1      45.845   5.433  13.520  0.00  0.00    +0.000 A 
ATOM      4  C   UNL     1      44.881   4.633  12.915  0.00  0.00    +0.000 A 
ATOM      5  C   UNL     1      44.599   4.774  11.550  0.00  0.00    +0.000 A 
ATOM      6  C   UNL     1      45.310   5.713  10.794  0.00  0.00    +0.000 A 
ATOM      7  C   UNL     1      46.282   6.506  11.399  0.00  0.00    +0.000 A 
BRANCH   5   8
ATOM      8  C   UNL     1      43.486   3.975  10.924  0.00  0.00    +0.000 C 
BRANCH   8   9
ATOM      9  O   UNL     1      43.842   3.544   9.612  0.00  0.00    +0.000 OA
BRANCH   9  10
ATOM     10  C   UNL     1      44.540   2.293   9.619  0.00  0.00    +0.000 C 
BRANCH  10  11
ATOM     11  C   UNL     1      45.573   2.278   8.521  0.00  0.00    +0.000 A 
ATOM     12  C   UNL     1      45.854   3.446   7.813  0.00  0.00    +0.000 A 
ATOM     13  C   UNL     1      46.829   3.414   6.822  0.00  0.00    +0.000 A 
ATOM     14  C   UNL     1      47.496   2.223   6.566  0.00  0.00    +0.000 A 
ATOM     15  C   UNL     1      47.163   1.110   7.319  0.00  0.00    +0.000 A 
ATOM     16  N   UNL     1      46.225   1.110   8.289  0.00  0.00    +0.000 NA
ENDBRANCH  10  11
ENDBRANCH   9  10
ENDBRANCH   8   9
ENDBRANCH   5   8
ENDBRANCH   1   2
BRANCH   1  17
ATOM     17  C   UNL     1      48.657   6.460  14.159  0.00  0.00    +0.000 C 
BRANCH  17  19
ATOM     18  O   UNL     1      49.208   8.092  15.797  0.00  0.00    +0.000 OA
ATOM     19  C   UNL     1      48.777   6.964  15.584  0.00  0.00    +0.000 C 
ATOM     20  N   UNL     1      48.417   6.064  16.568  0.00  0.00    +0.000 N 
ATOM     21  C   UNL     1      47.933   4.690  16.333  0.00  0.00    +0.000 C 
ATOM     22  C   UNL     1      47.852   4.026  17.711  0.00  0.00    +0.000 C 
ATOM     23  C   UNL     1      48.267   5.138  18.619  0.00  0.00    +0.000 A 
ATOM     24  N   UNL     1      48.369   4.961  19.971  0.00  0.00    +0.000 NA
ATOM     25  C   UNL     1      48.833   5.975  20.619  0.00  0.00    +0.000 A 
ATOM     26  N   UNL     1      49.176   7.167  20.044  0.00  0.00    +0.000 N 
ATOM     27  C   UNL     1      48.953   7.442  18.719  0.00  0.00    +0.000 A 
ATOM     28  O   UNL     1      49.030   8.595  18.320  0.00  0.00    +0.000 OA
ATOM     29  C   UNL     1      48.546   6.251  17.927  0.00  0.00    +0.000 A 
ATOM     30  H   UNL     1      49.447   7.959  20.607  0.00  0.00    +0.000 HD
ENDBRANCH  17  19
ENDBRANCH   1  17
TORSDOF 7
ENDMDL
MODEL 5
REMARK VINA RESULT:    -7.530      2.136      2.639
REMARK INTER + INTRA:         -11.336
REMARK INTER:                 -10.330
REMARK INTRA:                  -1.006
REMARK UNBOUND:                -0.725
REMARK  Name = 
REMARK  7 active torsions:
REMARK  status: ('A' for Active; 'I' for Inactive)
REMARK    1  A    between atoms: C_2  and  C_3
REMARK    2  A    between atoms: C_3  and  C_4
REMARK    3  A    between atoms: C_4  and  C_5
REMARK    4  A    between atoms: C_8  and  C_9
REMARK    5  A    between atoms: C_9  and  O_10
REMARK    6  A    between atoms: O_10  and  C_11
REMARK    7  A    between atoms: C_11  and  C_12
REMARK                            x       y       z     vdW  Elec       q    Type
REMARK                         _______ _______ _______ _____ _____    ______ ____
ROOT
ATOM      1  C   UNL     1      48.403   6.921  13.295  0.00  0.00    +0.000 C 
ENDROOT
BRANCH   1   2
ATOM      2  C   UNL     1      47.229   6.162  12.740  0.00  0.00    +0.000 A 
ATOM      3  C   UNL     1      46.696   5.068  13.432  0.00  0.00    +0.000 A 
ATOM      4  C   UNL     1      45.597   4.384  12.921  0.00  0.00    +0.000 A 
ATOM      5  C   UNL     1      45.001   4.797  11.722  0.00  0.00    +0.000 A 
ATOM      6  C   UNL     1      45.533   5.891  11.030  0.00  0.00    +0.000 A 
ATOM      7  C   UNL     1      46.639   6.568  11.537  0.00  0.00    +0.000 A 
BRANCH   5   8
ATOM      8  C   UNL     1      43.753   4.115  11.228  0.00  0.00    +0.000 C 
BRANCH   8   9
ATOM      9  O   UNL     1      43.898   3.707   9.868  0.00  0.00    +0.000 OA
BRANCH   9  10
ATOM     10  C   UNL     1      44.486   2.407   9.747  0.00  0.00    +0.000 C 
BRANCH  10  11
ATOM     11  C   UNL     1      45.486   2.401   8.619  0.00  0.00    +0.000 A 
ATOM     12  C   UNL     1      45.731   3.570   7.899  0.00  0.00    +0.000 A 
ATOM     13  C   UNL     1      46.676   3.547   6.879  0.00  0.00    +0.000 A 
ATOM     14  C   UNL     1      47.351   2.364   6.608  0.00  0.00    +0.000 A 
ATOM     15  C   UNL     1      47.055   1.249   7.374  0.00  0.00    +0.000 A 
ATOM     16  N   UNL     1      46.147   1.241   8.371  0.00  0.00    +0.000 NA
ENDBRANCH  10  11
ENDBRANCH   9  10
ENDBRANCH   8   9
ENDBRANCH   5   8
ENDBRANCH   1   2
BRANCH   1  17
ATOM     17  C   UNL     1      48.297   7.143  14.804  0.00  0.00    +0.000 C 
BRANCH  17  19
ATOM     18  O   UNL     1      50.613   7.572  15.122  0.00  0.00    +0.000 OA
ATOM     19  C   UNL     1      49.643   6.900  15.458  0.00  0.00    +0.000 C 
ATOM     20  N   UNL     1      49.682   5.875  16.383  0.00  0.00    +0.000 N 
ATOM     21  C   UNL     1      48.536   5.031  16.772  0.00  0.00    +0.000 C 
ATOM     22  C   UNL     1      49.105   3.927  17.666  0.00  0.00    +0.000 C 
ATOM     23  C   UNL     1      50.552   4.293  17.734  0.00  0.00    +0.000 A 
ATOM     24  N   UNL     1      51.455   3.529  18.421  0.00  0.00    +0.000 NA
ATOM     25  C   UNL     1      52.683   3.909  18.312  0.00  0.00    +0.000 A 
ATOM     26  N   UNL     1      53.093   5.003  17.602  0.00  0.00    +0.000 N 
ATOM     27  C   UNL     1      52.213   5.882  17.021  0.00  0.00    +0.000 A 
ATOM     28  O   UNL     1      52.613   6.970  16.634  0.00  0.00    +0.000 OA
ATOM     29  C   UNL     1      50.806   5.398  17.020  0.00  0.00    +0.000 A 
ATOM     30  H   UNL     1      54.053   5.310  17.624  0.00  0.00    +0.000 HD
ENDBRANCH  17  19
ENDBRANCH   1  17
TORSDOF 7
ENDMDL
MODEL 6
REMARK VINA RESULT:    -7.396      1.413      2.247
REMARK INTER + INTRA:         -11.149
REMARK INTER:                 -10.469
REMARK INTRA:                  -0.679
REMARK UNBOUND:                -0.725
REMARK  Name = 
REMARK  7 active torsions:
REMARK  status: ('A' for Active; 'I' for Inactive)
REMARK    1  A    between atoms: C_2  and  C_3
REMARK    2  A    between atoms: C_3  and  C_4
REMARK    3  A    between atoms: C_4  and  C_5
REMARK    4  A    between atoms: C_8  and  C_9
REMARK    5  A    between atoms: C_9  and  O_10
REMARK    6  A    between atoms: O_10  and  C_11
REMARK    7  A    between atoms: C_11  and  C_12
REMARK                            x       y       z     vdW  Elec       q    Type
REMARK                         _______ _______ _______ _____ _____    ______ ____
ROOT
ATOM      1  C   UNL     1      47.398   5.271  14.915  0.00  0.00    +0.000 C 
ENDROOT
BRANCH   1   2
ATOM      2  C   UNL     1      46.445   4.868  13.823  0.00  0.00    +0.000 A 
ATOM      3  C   UNL     1      46.389   3.542  13.379  0.00  0.00    +0.000 A 
ATOM      4  C   UNL     1      45.491   3.175  12.382  0.00  0.00    +0.000 A 
ATOM      5  C   UNL     1      44.619   4.122  11.830  0.00  0.00    +0.000 A 
ATOM      6  C   UNL     1      44.674   5.448  12.274  0.00  0.00    +0.000 A 
ATOM      7  C   UNL     1      45.581   5.817  13.264  0.00  0.00    +0.000 A 
BRANCH   5   8
ATOM      8  C   UNL     1      43.582   3.696  10.824  0.00  0.00    +0.000 C 
BRANCH   8   9
ATOM      9  O   UNL     1      44.162   2.880   9.808  0.00  0.00    +0.000 OA
BRANCH   9  10
ATOM     10  C   UNL     1      44.654   3.649   8.704  0.00  0.00    +0.000 C 
BRANCH  10  11
ATOM     11  C   UNL     1      45.691   2.855   7.950  0.00  0.00    +0.000 A 
ATOM     12  C   UNL     1      46.402   3.450   6.909  0.00  0.00    +0.000 A 
ATOM     13  C   UNL     1      47.371   2.706   6.244  0.00  0.00    +0.000 A 
ATOM     14  C   UNL     1      47.606   1.395   6.637  0.00  0.00    +0.000 A 
ATOM     15  C   UNL     1      46.862   0.881   7.686  0.00  0.00    +0.000 A 
ATOM     16  N   UNL     1      45.918   1.578   8.352  0.00  0.00    +0.000 NA
ENDBRANCH  10  11
ENDBRANCH   9  10
ENDBRANCH   8   9
ENDBRANCH   5   8
ENDBRANCH   1   2
BRANCH   1  17
ATOM     17  C   UNL     1      47.374   4.304  16.099  0.00  0.00    +0.000 C 
BRANCH  17  19
ATOM     18  O   UNL     1      48.524   5.756  17.588  0.00  0.00    +0.000 OA
ATOM     19  C   UNL     1      48.490   4.646  17.068  0.00  0.00    +0.000 C 
ATOM     20  N   UNL     1      49.436   3.660  17.261  0.00  0.00    +0.000 N 
ATOM     21  C   UNL     1      49.433   2.334  16.614  0.00  0.00    +0.000 C 
ATOM     22  C   UNL     1      50.765   1.677  16.983  0.00  0.00    +0.000 C 
ATOM     23  C   UNL     1      51.389   2.708  17.865  0.00  0.00    +0.000 A 
ATOM     24  N   UNL     1      52.637   2.538  18.399  0.00  0.00    +0.000 NA
ATOM     25  C   UNL     1      53.090   3.549  19.059  0.00  0.00    +0.000 A 
ATOM     26  N   UNL     1      52.397   4.711  19.262  0.00  0.00    +0.000 N 
ATOM     27  C   UNL     1      51.091   4.873  18.874  0.00  0.00    +0.000 A 
ATOM     28  O   UNL     1      50.445   5.814  19.309  0.00  0.00    +0.000 OA
ATOM     29  C   UNL     1      50.592   3.777  18.000  0.00  0.00    +0.000 A 
ATOM     30  H   UNL     1      52.759   5.436  19.862  0.00  0.00    +0.000 HD
ENDBRANCH  17  19
ENDBRANCH   1  17
TORSDOF 7
ENDMDL
MODEL 7
REMARK VINA RESULT:    -7.262      3.647      8.690
REMARK INTER + INTRA:         -10.960
REMARK INTER:                  -9.708
REMARK INTRA:                  -1.252
REMARK UNBOUND:                -0.725
REMARK  Name = 
REMARK  7 active torsions:
REMARK  status: ('A' for Active; 'I' for Inactive)
REMARK    1  A    between atoms: C_2  and  C_3
REMARK    2  A    between atoms: C_3  and  C_4
REMARK    3  A    between atoms: C_4  and  C_5
REMARK    4  A    between atoms: C_8  and  C_9
REMARK    5  A    between atoms: C_9  and  O_10
REMARK    6  A    between atoms: O_10  and  C_11
REMARK    7  A    between atoms: C_11  and  C_12
REMARK                            x       y       z     vdW  Elec       q    Type
REMARK                         _______ _______ _______ _____ _____    ______ ____
ROOT
ATOM      1  C   UNL     1      49.419   7.706  13.128  0.00  0.00    +0.000 C 
ENDROOT
BRANCH   1   2
ATOM      2  C   UNL     1      49.410   7.893  14.621  0.00  0.00    +0.000 A 
ATOM      3  C   UNL     1      48.435   8.688  15.235  0.00  0.00    +0.000 A 
ATOM      4  C   UNL     1      48.424   8.838  16.618  0.00  0.00    +0.000 A 
ATOM      5  C   UNL     1      49.372   8.178  17.410  0.00  0.00    +0.000 A 
ATOM      6  C   UNL     1      50.346   7.382  16.797  0.00  0.00    +0.000 A 
ATOM      7  C   UNL     1      50.363   7.241  15.412  0.00  0.00    +0.000 A 
BRANCH   5   8
ATOM      8  C   UNL     1      49.291   8.265  18.911  0.00  0.00    +0.000 C 
BRANCH   8   9
ATOM      9  O   UNL     1      49.248   6.965  19.497  0.00  0.00    +0.000 OA
BRANCH   9  10
ATOM     10  C   UNL     1      47.961   6.349  19.366  0.00  0.00    +0.000 C 
BRANCH  10  11
ATOM     11  C   UNL     1      48.078   5.090  18.545  0.00  0.00    +0.000 A 
ATOM     12  C   UNL     1      49.286   4.394  18.505  0.00  0.00    +0.000 A 
ATOM     13  C   UNL     1      49.363   3.222  17.761  0.00  0.00    +0.000 A 
ATOM     14  C   UNL     1      48.237   2.774  17.083  0.00  0.00    +0.000 A 
ATOM     15  C   UNL     1      47.073   3.519  17.181  0.00  0.00    +0.000 A 
ATOM     16  N   UNL     1      46.967   4.657  17.897  0.00  0.00    +0.000 NA
ENDBRANCH  10  11
ENDBRANCH   9  10
ENDBRANCH   8   9
ENDBRANCH   5   8
ENDBRANCH   1   2
BRANCH   1  17
ATOM     17  C   UNL     1      48.009   7.658  12.536  0.00  0.00    +0.000 C 
BRANCH  17  19
ATOM     18  O   UNL     1      48.125   5.359  13.129  0.00  0.00    +0.000 OA
ATOM     19  C   UNL     1      47.414   6.277  12.732  0.00  0.00    +0.000 C 
ATOM     20  N   UNL     1      46.081   6.148  12.397  0.00  0.00    +0.000 N 
ATOM     21  C   UNL     1      45.221   7.230  11.882  0.00  0.00    +0.000 C 
ATOM     22  C   UNL     1      43.901   6.569  11.476  0.00  0.00    +0.000 C 
ATOM     23  C   UNL     1      44.136   5.143  11.856  0.00  0.00    +0.000 A 
ATOM     24  N   UNL     1      43.198   4.175  11.626  0.00  0.00    +0.000 NA
ATOM     25  C   UNL     1      43.573   2.974  11.912  0.00  0.00    +0.000 A 
ATOM     26  N   UNL     1      44.794   2.652  12.438  0.00  0.00    +0.000 N 
ATOM     27  C   UNL     1      45.709   3.600  12.822  0.00  0.00    +0.000 A 
ATOM     28  O   UNL     1      46.657   3.274  13.521  0.00  0.00    +0.000 OA
ATOM     29  C   UNL     1      45.357   4.976  12.383  0.00  0.00    +0.000 A 
ATOM     30  H   UNL     1      45.004   1.709  12.729  0.00  0.00    +0.000 HD
ENDBRANCH  17  19
ENDBRANCH   1  17
TORSDOF 7
ENDMDL
MODEL 8
REMARK VINA RESULT:    -7.117      1.956      2.869
REMARK INTER + INTRA:         -10.755
REMARK INTER:                  -9.932
REMARK INTRA:                  -0.823
REMARK UNBOUND:                -0.725
REMARK  Name = 
REMARK  7 active torsions:
REMARK  status: ('A' for Active; 'I' for Inactive)
REMARK    1  A    between atoms: C_2  and  C_3
REMARK    2  A    between atoms: C_3  and  C_4
REMARK    3  A    between atoms: C_4  and  C_5
REMARK    4  A    between atoms: C_8  and  C_9
REMARK    5  A    between atoms: C_9  and  O_10
REMARK    6  A    between atoms: O_10  and  C_11
REMARK    7  A    between atoms: C_11  and  C_12
REMARK                            x       y       z     vdW  Elec       q    Type
REMARK                         _______ _______ _______ _____ _____    ______ ____
ROOT
ATOM      1  C   UNL     1      49.327   7.446  15.074  0.00  0.00    +0.000 C 
ENDROOT
BRANCH   1   2
ATOM      2  C   UNL     1      48.208   7.243  14.090  0.00  0.00    +0.000 A 
ATOM      3  C   UNL     1      48.073   6.030  13.404  0.00  0.00    +0.000 A 
ATOM      4  C   UNL     1      47.023   5.845  12.510  0.00  0.00    +0.000 A 
ATOM      5  C   UNL     1      46.078   6.860  12.306  0.00  0.00    +0.000 A 
ATOM      6  C   UNL     1      46.212   8.072  12.992  0.00  0.00    +0.000 A 
ATOM      7  C   UNL     1      47.270   8.260  13.878  0.00  0.00    +0.000 A 
BRANCH   5   8
ATOM      8  C   UNL     1      44.890   6.615  11.414  0.00  0.00    +0.000 C 
BRANCH   8   9
ATOM      9  O   UNL     1      44.446   5.263  11.516  0.00  0.00    +0.000 OA
BRANCH   9  10
ATOM     10  C   UNL     1      43.706   4.842  10.364  0.00  0.00    +0.000 C 
BRANCH  10  11
ATOM     11  C   UNL     1      44.579   3.988   9.480  0.00  0.00    +0.000 A 
ATOM     12  C   UNL     1      44.609   2.605   9.656  0.00  0.00    +0.000 A 
ATOM     13  C   UNL     1      45.402   1.836   8.812  0.00  0.00    +0.000 A 
ATOM     14  C   UNL     1      46.140   2.464   7.817  0.00  0.00    +0.000 A 
ATOM     15  C   UNL     1      46.050   3.841   7.704  0.00  0.00    +0.000 A 
ATOM     16  N   UNL     1      45.287   4.614   8.504  0.00  0.00    +0.000 NA
ENDBRANCH  10  11
ENDBRANCH   9  10
ENDBRANCH   8   9
ENDBRANCH   5   8
ENDBRANCH   1   2
BRANCH   1  17
ATOM     17  C   UNL     1      48.966   6.960  16.479  0.00  0.00    +0.000 C 
BRANCH  17  19
ATOM     18  O   UNL     1      51.150   6.505  17.299  0.00  0.00    +0.000 OA
ATOM     19  C   UNL     1      50.054   6.042  17.003  0.00  0.00    +0.000 C 
ATOM     20  N   UNL     1      49.724   4.702  17.067  0.00  0.00    +0.000 N 
ATOM     21  C   UNL     1      48.424   4.123  16.679  0.00  0.00    +0.000 C 
ATOM     22  C   UNL     1      48.601   2.603  16.739  0.00  0.00    +0.000 C 
ATOM     23  C   UNL     1      50.012   2.471  17.214  0.00  0.00    +0.000 A 
ATOM     24  N   UNL     1      50.604   1.249  17.375  0.00  0.00    +0.000 NA
ATOM     25  C   UNL     1      51.853   1.287  17.694  0.00  0.00    +0.000 A 
ATOM     26  N   UNL     1      52.563   2.437  17.898  0.00  0.00    +0.000 N 
ATOM     27  C   UNL     1      51.979   3.679  17.893  0.00  0.00    +0.000 A 
ATOM     28  O   UNL     1      52.594   4.637  18.338  0.00  0.00    +0.000 OA
ATOM     29  C   UNL     1      50.576   3.672  17.400  0.00  0.00    +0.000 A 
ATOM     30  H   UNL     1      53.513   2.412  18.235  0.00  0.00    +0.000 HD
ENDBRANCH  17  19
ENDBRANCH   1  17
TORSDOF 7
ENDMDL
MODEL 9
REMARK VINA RESULT:    -6.642      3.878      8.937
REMARK INTER + INTRA:         -10.085
REMARK INTER:                  -8.418
REMARK INTRA:                  -1.667
REMARK UNBOUND:                -0.725
REMARK  Name = 
REMARK  7 active torsions:
REMARK  status: ('A' for Active; 'I' for Inactive)
REMARK    1  A    between atoms: C_2  and  C_3
REMARK    2  A    between atoms: C_3  and  C_4
REMARK    3  A    between atoms: C_4  and  C_5
REMARK    4  A    between atoms: C_8  and  C_9
REMARK    5  A    between atoms: C_9  and  O_10
REMARK    6  A    between atoms: O_10  and  C_11
REMARK    7  A    between atoms: C_11  and  C_12
REMARK                            x       y       z     vdW  Elec       q    Type
REMARK                         _______ _______ _______ _____ _____    ______ ____
ROOT
ATOM      1  C   UNL     1      48.473   9.250  13.787  0.00  0.00    +0.000 C 
ENDROOT
BRANCH   1   2
ATOM      2  C   UNL     1      48.740   8.760  15.184  0.00  0.00    +0.000 A 
ATOM      3  C   UNL     1      49.637   7.711  15.413  0.00  0.00    +0.000 A 
ATOM      4  C   UNL     1      49.893   7.279  16.710  0.00  0.00    +0.000 A 
ATOM      5  C   UNL     1      49.272   7.903  17.800  0.00  0.00    +0.000 A 
ATOM      6  C   UNL     1      48.374   8.952  17.572  0.00  0.00    +0.000 A 
ATOM      7  C   UNL     1      48.112   9.377  16.272  0.00  0.00    +0.000 A 
BRANCH   5   8
ATOM      8  C   UNL     1      49.629   7.496  19.205  0.00  0.00    +0.000 C 
BRANCH   8   9
ATOM      9  O   UNL     1      48.599   6.696  19.783  0.00  0.00    +0.000 OA
BRANCH   9  10
ATOM     10  C   UNL     1      49.027   5.352  20.034  0.00  0.00    +0.000 C 
BRANCH  10  11
ATOM     11  C   UNL     1      48.676   4.475  18.858  0.00  0.00    +0.000 A 
ATOM     12  C   UNL     1      47.463   4.656  18.193  0.00  0.00    +0.000 A 
ATOM     13  C   UNL     1      47.172   3.852  17.096  0.00  0.00    +0.000 A 
ATOM     14  C   UNL     1      48.096   2.897  16.691  0.00  0.00    +0.000 A 
ATOM     15  C   UNL     1      49.279   2.788  17.402  0.00  0.00    +0.000 A 
ATOM     16  N   UNL     1      49.592   3.554  18.467  0.00  0.00    +0.000 NA
ENDBRANCH  10  11
ENDBRANCH   9  10
ENDBRANCH   8   9
ENDBRANCH   5   8
ENDBRANCH   1   2
BRANCH   1  17
ATOM     17  C   UNL     1      48.442   8.113  12.764  0.00  0.00    +0.000 C 
BRANCH  17  19
ATOM     18  O   UNL     1      46.245   8.597  11.995  0.00  0.00    +0.000 OA
ATOM     19  C   UNL     1      47.006   7.746  12.444  0.00  0.00    +0.000 C 
ATOM     20  N   UNL     1      46.643   6.445  12.735  0.00  0.00    +0.000 N 
ATOM     21  C   UNL     1      47.533   5.419  13.311  0.00  0.00    +0.000 C 
ATOM     22  C   UNL     1      46.642   4.215  13.629  0.00  0.00    +0.000 C 
ATOM     23  C   UNL     1      45.306   4.676  13.145  0.00  0.00    +0.000 A 
ATOM     24  N   UNL     1      44.188   3.900  13.274  0.00  0.00    +0.000 NA
ATOM     25  C   UNL     1      43.088   4.463  12.904  0.00  0.00    +0.000 A 
ATOM     26  N   UNL     1      43.004   5.726  12.386  0.00  0.00    +0.000 N 
ATOM     27  C   UNL     1      44.112   6.485  12.101  0.00  0.00    +0.000 A 
ATOM     28  O   UNL     1      43.996   7.482  11.402  0.00  0.00    +0.000 OA
ATOM     29  C   UNL     1      45.376   5.915  12.638  0.00  0.00    +0.000 A 
ATOM     30  H   UNL     1      42.134   6.086  12.026  0.00  0.00    +0.000 HD
ENDBRANCH  17  19
ENDBRANCH   1  17
TORSDOF 7
ENDMDL
