MODEL 1
REMARK VINA RESULT:    -8.188      0.000      0.000
REMARK INTER + INTRA:         -12.268
REMARK INTER:                 -11.061
REMARK INTRA:                  -1.208
REMARK UNBOUND:                -1.208
REMARK  Name = 
REMARK  6 active torsions:
REMARK  status: ('A' for Active; 'I' for Inactive)
REMARK    1  A    between atoms: C_2  and  C_19
REMARK    2  A    between atoms: N_3  and  C_4
REMARK    3  A    between atoms: C_4  and  C_5
REMARK    4  A    between atoms: C_8  and  C_9
REMARK    5  A    between atoms: C_9  and  C_10
REMARK    6  A    between atoms: C_10  and  C_11
REMARK                            x       y       z     vdW  Elec       q    Type
REMARK                         _______ _______ _______ _____ _____    ______ ____
ROOT
ATOM      1  O   UNL     1      49.455   6.885  13.786  0.00  0.00    +0.000 OA
ATOM      2  C   UNL     1      48.581   6.683  14.622  0.00  0.00    +0.000 C 
ATOM      3  N   UNL     1      47.249   6.898  14.359  0.00  0.00    +0.000 N 
ATOM      4  H   UNL     1      46.587   6.930  15.126  0.00  0.00    +0.000 HD
ENDROOT
BRANCH   2   5
ATOM      5  C   UNL     1      48.914   6.172  15.954  0.00  0.00    +0.000 A 
ATOM      6  C   UNL     1      49.792   6.869  16.778  0.00  0.00    +0.000 A 
ATOM      7  S   UNL     1      50.002   6.133  18.307  0.00  0.00    +0.000 S 
ATOM      8  C   UNL     1      48.917   4.887  17.927  0.00  0.00    +0.000 A 
ATOM      9  N   UNL     1      48.593   3.922  18.836  0.00  0.00    +0.000 NA
ATOM     10  C   UNL     1      47.721   3.070  18.420  0.00  0.00    +0.000 A 
ATOM     11  N   UNL     1      47.155   3.066  17.171  0.00  0.00    +0.000 N 
ATOM     12  C   UNL     1      47.497   3.978  16.201  0.00  0.00    +0.000 A 
ATOM     13  O   UNL     1      47.048   3.892  15.063  0.00  0.00    +0.000 OA
ATOM     14  C   UNL     1      48.430   5.001  16.636  0.00  0.00    +0.000 A 
ATOM     15  H   UNL     1      46.509   2.349  16.890  0.00  0.00    +0.000 HD
ENDBRANCH   2   5
BRANCH   3  16
ATOM     16  C   UNL     1      46.855   7.541  13.132  0.00  0.00    +0.000 C 
BRANCH  16  17
ATOM     17  C   UNL     1      46.151   6.605  12.185  0.00  0.00    +0.000 A 
ATOM     18  C   UNL     1      46.463   6.602  10.821  0.00  0.00    +0.000 A 
ATOM     19  C   UNL     1      45.862   5.685   9.952  0.00  0.00    +0.000 A 
ATOM     20  C   UNL     1      44.937   4.745  10.424  0.00  0.00    +0.000 A 
ATOM     21  C   UNL     1      44.589   4.786  11.783  0.00  0.00    +0.000 A 
ATOM     22  C   UNL     1      45.185   5.707  12.651  0.00  0.00    +0.000 A 
BRANCH  20  23
ATOM     23  C   UNL     1      44.255   3.741   9.513  0.00  0.00    +0.000 C 
BRANCH  23  24
ATOM     24  C   UNL     1      44.921   2.361   9.457  0.00  0.00    +0.000 C 
BRANCH  24  25
ATOM     25  C   UNL     1      45.804   2.201   8.246  0.00  0.00    +0.000 A 
ATOM     26  C   UNL     1      45.917   3.228   7.312  0.00  0.00    +0.000 A 
ATOM     27  C   UNL     1      46.724   3.034   6.194  0.00  0.00    +0.000 A 
ATOM     28  C   UNL     1      47.396   1.828   6.040  0.00  0.00    +0.000 A 
ATOM     29  C   UNL     1      47.234   0.861   7.017  0.00  0.00    +0.000 A 
ATOM     30  N   UNL     1      46.462   1.023   8.114  0.00  0.00    +0.000 NA
ENDBRANCH  24  25
ENDBRANCH  23  24
ENDBRANCH  20  23
ENDBRANCH  16  17
ENDBRANCH   3  16
TORSDOF 6
ENDMDL
MODEL 2
REMARK VINA RESULT:    -8.091      2.913      5.151
REMARK INTER + INTRA:         -12.136
REMARK INTER:                 -11.357
REMARK INTRA:                  -0.780
REMARK UNBOUND:                -1.208
REMARK  Name = 
REMARK  6 active torsions:
REMARK  status: ('A' for Active; 'I' for Inactive)
REMARK    1  A    between atoms: C_2  and  C_19
REMARK    2  A    between atoms: N_3  and  C_4
REMARK    3  A    between atoms: C_4  and  C_5
REMARK    4  A    between atoms: C_8  and  C_9
REMARK    5  A    between atoms: C_9  and  C_10
REMARK    6  A    between atoms: C_10  and  C_11
REMARK                            x       y       z     vdW  Elec       q    Type
REMARK                         _______ _______ _______ _____ _____    ______ ____
ROOT
ATOM      1  O   UNL     1      44.255   4.914  12.599  0.00  0.00    +0.000 OA
ATOM      2  C   UNL     1      44.697   5.710  11.779  0.00  0.00    +0.000 C 
ATOM      3  N   UNL     1      44.525   5.543  10.425  0.00  0.00    +0.000 N 
ATOM      4  H   UNL     1      45.080   6.091   9.779  0.00  0.00    +0.000 HD
ENDROOT
BRANCH   2   5
ATOM      5  C   UNL     1      45.421   6.910  12.205  0.00  0.00    +0.000 A 
ATOM      6  C   UNL     1      45.012   8.170  11.780  0.00  0.00    +0.000 A 
ATOM      7  S   UNL     1      45.955   9.437  12.434  0.00  0.00    +0.000 S 
ATOM      8  C   UNL     1      46.915   8.353  13.317  0.00  0.00    +0.000 A 
ATOM      9  N   UNL     1      47.903   8.790  14.149  0.00  0.00    +0.000 NA
ATOM     10  C   UNL     1      48.514   7.853  14.788  0.00  0.00    +0.000 A 
ATOM     11  N   UNL     1      48.257   6.512  14.659  0.00  0.00    +0.000 N 
ATOM     12  C   UNL     1      47.317   6.020  13.787  0.00  0.00    +0.000 A 
ATOM     13  O   UNL     1      47.175   4.813  13.620  0.00  0.00    +0.000 OA
ATOM     14  C   UNL     1      46.552   7.036  13.087  0.00  0.00    +0.000 A 
ATOM     15  H   UNL     1      48.797   5.824  15.155  0.00  0.00    +0.000 HD
ENDBRANCH   2   5
BRANCH   3  16
ATOM     16  C   UNL     1      43.959   4.317   9.921  0.00  0.00    +0.000 C 
BRANCH  16  17
ATOM     17  C   UNL     1      44.917   3.552   9.047  0.00  0.00    +0.000 A 
ATOM     18  C   UNL     1      45.105   2.177   9.227  0.00  0.00    +0.000 A 
ATOM     19  C   UNL     1      45.939   1.451   8.370  0.00  0.00    +0.000 A 
ATOM     20  C   UNL     1      46.604   2.079   7.309  0.00  0.00    +0.000 A 
ATOM     21  C   UNL     1      46.453   3.466   7.165  0.00  0.00    +0.000 A 
ATOM     22  C   UNL     1      45.624   4.194   8.025  0.00  0.00    +0.000 A 
BRANCH  20  23
ATOM     23  C   UNL     1      47.526   1.330   6.365  0.00  0.00    +0.000 C 
BRANCH  23  24
ATOM     24  C   UNL     1      47.536   1.850   4.923  0.00  0.00    +0.000 C 
BRANCH  24  25
ATOM     25  C   UNL     1      46.914   0.873   3.958  0.00  0.00    +0.000 A 
ATOM     26  C   UNL     1      45.842   1.258   3.155  0.00  0.00    +0.000 A 
ATOM     27  C   UNL     1      45.279   0.321   2.293  0.00  0.00    +0.000 A 
ATOM     28  C   UNL     1      45.798  -0.967   2.252  0.00  0.00    +0.000 A 
ATOM     29  C   UNL     1      46.867  -1.266   3.079  0.00  0.00    +0.000 A 
ATOM     30  N   UNL     1      47.437  -0.376   3.922  0.00  0.00    +0.000 NA
ENDBRANCH  24  25
ENDBRANCH  23  24
ENDBRANCH  20  23
ENDBRANCH  16  17
ENDBRANCH   3  16
TORSDOF 6
ENDMDL
MODEL 3
REMARK VINA RESULT:    -7.871      1.508      1.728
REMARK INTER + INTRA:         -11.840
REMARK INTER:                 -10.935
REMARK INTRA:                  -0.905
REMARK UNBOUND:                -1.208
REMARK  Name = 
REMARK  6 active torsions:
REMARK  status: ('A' for Active; 'I' for Inactive)
REMARK    1  A    between atoms: C_2  and  C_19
REMARK    2  A    between atoms: N_3  and  C_4
REMARK    3  A    between atoms: C_4  and  C_5
REMARK    4  A    between atoms: C_8  and  C_9
REMARK    5  A    between atoms: C_9  and  C_10
REMARK    6  A    between atoms: C_10  and  C_11
REMARK                            x       y       z     vdW  Elec       q    Type
REMARK                         _______ _______ _______ _____ _____    ______ ____
ROOT
ATOM      1  O   UNL     1      50.271   6.623  15.383  0.00  0.00    +0.000 OA
ATOM      2  C   UNL     1      49.112   6.681  15.778  0.00  0.00    +0.000 C 
ATOM      3  N   UNL     1      48.039   6.628  14.920  0.00  0.00    +0.000 N 
ATOM      4  H   UNL     1      47.119   6.894  15.253  0.00  0.00    +0.000 HD
ENDROOT
BRANCH   2   5
ATOM      5  C   UNL     1      48.806   6.787  17.207  0.00  0.00    +0.000 A 
ATOM      6  C   UNL     1      48.386   7.997  17.751  0.00  0.00    +0.000 A 
ATOM      7  S   UNL     1      48.029   7.893  19.420  0.00  0.00    +0.000 S 
ATOM      8  C   UNL     1      48.396   6.238  19.460  0.00  0.00    +0.000 A 
ATOM      9  N   UNL     1      48.250   5.503  20.600  0.00  0.00    +0.000 NA
ATOM     10  C   UNL     1      48.523   4.251  20.465  0.00  0.00    +0.000 A 
ATOM     11  N   UNL     1      48.956   3.658  19.307  0.00  0.00    +0.000 N 
ATOM     12  C   UNL     1      49.179   4.368  18.152  0.00  0.00    +0.000 A 
ATOM     13  O   UNL     1      49.660   3.830  17.159  0.00  0.00    +0.000 OA
ATOM     14  C   UNL     1      48.828   5.774  18.229  0.00  0.00    +0.000 A 
ATOM     15  H   UNL     1      49.192   2.682  19.274  0.00  0.00    +0.000 HD
ENDBRANCH   2   5
BRANCH   3  16
ATOM     16  C   UNL     1      48.257   6.678  13.497  0.00  0.00    +0.000 C 
BRANCH  16  17
ATOM     17  C   UNL     1      47.118   6.081  12.714  0.00  0.00    +0.000 A 
ATOM     18  C   UNL     1      46.700   6.659  11.510  0.00  0.00    +0.000 A 
ATOM     19  C   UNL     1      45.690   6.066  10.744  0.00  0.00    +0.000 A 
ATOM     20  C   UNL     1      45.073   4.879  11.161  0.00  0.00    +0.000 A 
ATOM     21  C   UNL     1      45.459   4.333  12.394  0.00  0.00    +0.000 A 
ATOM     22  C   UNL     1      46.465   4.929  13.163  0.00  0.00    +0.000 A 
BRANCH  20  23
ATOM     23  C   UNL     1      43.967   4.211  10.366  0.00  0.00    +0.000 C 
BRANCH  23  24
ATOM     24  C   UNL     1      44.240   2.753   9.976  0.00  0.00    +0.000 C 
BRANCH  24  25
ATOM     25  C   UNL     1      45.220   2.639   8.838  0.00  0.00    +0.000 A 
ATOM     26  C   UNL     1      45.414   3.705   7.962  0.00  0.00    +0.000 A 
ATOM     27  C   UNL     1      46.311   3.554   6.908  0.00  0.00    +0.000 A 
ATOM     28  C   UNL     1      46.990   2.351   6.757  0.00  0.00    +0.000 A 
ATOM     29  C   UNL     1      46.743   1.344   7.674  0.00  0.00    +0.000 A 
ATOM     30  N   UNL     1      45.882   1.464   8.709  0.00  0.00    +0.000 NA
ENDBRANCH  24  25
ENDBRANCH  23  24
ENDBRANCH  20  23
ENDBRANCH  16  17
ENDBRANCH   3  16
TORSDOF 6
ENDMDL
MODEL 4
REMARK VINA RESULT:    -7.581      1.769      2.252
REMARK INTER + INTRA:         -11.448
REMARK INTER:                 -10.602
REMARK INTRA:                  -0.846
REMARK UNBOUND:                -1.208
REMARK  Name = 
REMARK  6 active torsions:
REMARK  status: ('A' for Active; 'I' for Inactive)
REMARK    1  A    between atoms: C_2  and  C_19
REMARK    2  A    between atoms: N_3  and  C_4
REMARK    3  A    between atoms: C_4  and  C_5
REMARK    4  A    between atoms: C_8  and  C_9
REMARK    5  A    between atoms: C_9  and  C_10
REMARK    6  A    between atoms: C_10  and  C_11
REMARK                            x       y       z     vdW  Elec       q    Type
REMARK                         _______ _______ _______ _____ _____    ______ ____
ROOT
ATOM      1  O   UNL     1      49.287   6.987  15.373  0.00  0.00    +0.000 OA
ATOM      2  C   UNL     1      48.426   6.163  15.660  0.00  0.00    +0.000 C 
ATOM      3  N   UNL     1      47.443   5.789  14.776  0.00  0.00    +0.000 N 
ATOM      4  H   UNL     1      46.634   5.279  15.114  0.00  0.00    +0.000 HD
ENDROOT
BRANCH   2   5
ATOM      5  C   UNL     1      48.415   5.508  16.971  0.00  0.00    +0.000 A 
ATOM      6  C   UNL     1      48.559   4.128  17.071  0.00  0.00    +0.000 A 
ATOM      7  S   UNL     1      48.575   3.571  18.688  0.00  0.00    +0.000 S 
ATOM      8  C   UNL     1      48.418   5.145  19.298  0.00  0.00    +0.000 A 
ATOM      9  N   UNL     1      48.418   5.393  20.639  0.00  0.00    +0.000 NA
ATOM     10  C   UNL     1      48.339   6.641  20.950  0.00  0.00    +0.000 A 
ATOM     11  N   UNL     1      48.232   7.672  20.054  0.00  0.00    +0.000 N 
ATOM     12  C   UNL     1      48.164   7.469  18.697  0.00  0.00    +0.000 A 
ATOM     13  O   UNL     1      47.970   8.401  17.923  0.00  0.00    +0.000 OA
ATOM     14  C   UNL     1      48.312   6.084  18.286  0.00  0.00    +0.000 A 
ATOM     15  H   UNL     1      48.132   8.625  20.359  0.00  0.00    +0.000 HD
ENDBRANCH   2   5
BRANCH   3  16
ATOM     16  C   UNL     1      47.295   6.495  13.529  0.00  0.00    +0.000 C 
BRANCH  16  17
ATOM     17  C   UNL     1      46.434   5.753  12.540  0.00  0.00    +0.000 A 
ATOM     18  C   UNL     1      46.263   6.239  11.239  0.00  0.00    +0.000 A 
ATOM     19  C   UNL     1      45.523   5.515  10.297  0.00  0.00    +0.000 A 
ATOM     20  C   UNL     1      44.937   4.287  10.631  0.00  0.00    +0.000 A 
ATOM     21  C   UNL     1      45.068   3.831  11.951  0.00  0.00    +0.000 A 
ATOM     22  C   UNL     1      45.802   4.557  12.895  0.00  0.00    +0.000 A 
BRANCH  20  23
ATOM     23  C   UNL     1      44.118   3.478   9.643  0.00  0.00    +0.000 C 
BRANCH  23  24
ATOM     24  C   UNL     1      44.703   2.106   9.288  0.00  0.00    +0.000 C 
BRANCH  24  25
ATOM     25  C   UNL     1      45.745   2.192   8.202  0.00  0.00    +0.000 A 
ATOM     26  C   UNL     1      45.813   3.309   7.374  0.00  0.00    +0.000 A 
ATOM     27  C   UNL     1      46.774   3.342   6.367  0.00  0.00    +0.000 A 
ATOM     28  C   UNL     1      47.639   2.266   6.215  0.00  0.00    +0.000 A 
ATOM     29  C   UNL     1      47.508   1.195   7.084  0.00  0.00    +0.000 A 
ATOM     30  N   UNL     1      46.588   1.139   8.072  0.00  0.00    +0.000 NA
ENDBRANCH  24  25
ENDBRANCH  23  24
ENDBRANCH  20  23
ENDBRANCH  16  17
ENDBRANCH   3  16
TORSDOF 6
ENDMDL
MODEL 5
REMARK VINA RESULT:    -7.213      2.461      3.348
REMARK INTER + INTRA:         -10.951
REMARK INTER:                  -9.823
REMARK INTRA:                  -1.128
REMARK UNBOUND:                -1.208
REMARK  Name = 
REMARK  6 active torsions:
REMARK  status: ('A' for Active; 'I' for Inactive)
REMARK    1  A    between atoms: C_2  and  C_19
REMARK    2  A    between atoms: N_3  and  C_4
REMARK    3  A    between atoms: C_4  and  C_5
REMARK    4  A    between atoms: C_8  and  C_9
REMARK    5  A    between atoms: C_9  and  C_10
REMARK    6  A    between atoms: C_10  and  C_11
REMARK                            x       y       z     vdW  Elec       q    Type
REMARK                         _______ _______ _______ _____ _____    ______ ____
ROOT
ATOM      1  O   UNL     1      49.230   4.856  16.290  0.00  0.00    +0.000 OA
ATOM      2  C   UNL     1      48.591   5.874  16.532  0.00  0.00    +0.000 C 
ATOM      3  N   UNL     1      48.078   6.674  15.539  0.00  0.00    +0.000 N 
ATOM      4  H   UNL     1      47.750   7.605  15.766  0.00  0.00    +0.000 HD
ENDROOT
BRANCH   2   5
ATOM      5  C   UNL     1      48.316   6.282  17.912  0.00  0.00    +0.000 A 
ATOM      6  C   UNL     1      47.519   5.493  18.737  0.00  0.00    +0.000 A 
ATOM      7  S   UNL     1      47.368   6.119  20.320  0.00  0.00    +0.000 S 
ATOM      8  C   UNL     1      48.374   7.437  19.964  0.00  0.00    +0.000 A 
ATOM      9  N   UNL     1      48.709   8.355  20.915  0.00  0.00    +0.000 NA
ATOM     10  C   UNL     1      49.517   9.273  20.508  0.00  0.00    +0.000 A 
ATOM     11  N   UNL     1      50.007   9.383  19.233  0.00  0.00    +0.000 N 
ATOM     12  C   UNL     1      49.649   8.520  18.225  0.00  0.00    +0.000 A 
ATOM     13  O   UNL     1      50.025   8.700  17.072  0.00  0.00    +0.000 OA
ATOM     14  C   UNL     1      48.789   7.429  18.643  0.00  0.00    +0.000 A 
ATOM     15  H   UNL     1      50.604  10.146  18.964  0.00  0.00    +0.000 HD
ENDBRANCH   2   5
BRANCH   3  16
ATOM     16  C   UNL     1      48.433   6.425  14.165  0.00  0.00    +0.000 C 
BRANCH  16  17
ATOM     17  C   UNL     1      47.314   5.793  13.381  0.00  0.00    +0.000 A 
ATOM     18  C   UNL     1      46.790   6.426  12.248  0.00  0.00    +0.000 A 
ATOM     19  C   UNL     1      45.800   5.807  11.477  0.00  0.00    +0.000 A 
ATOM     20  C   UNL     1      45.309   4.540  11.817  0.00  0.00    +0.000 A 
ATOM     21  C   UNL     1      45.799   3.933  12.983  0.00  0.00    +0.000 A 
ATOM     22  C   UNL     1      46.785   4.554  13.758  0.00  0.00    +0.000 A 
BRANCH  20  23
ATOM     23  C   UNL     1      44.227   3.841  11.014  0.00  0.00    +0.000 C 
BRANCH  23  24
ATOM     24  C   UNL     1      44.157   4.242   9.536  0.00  0.00    +0.000 C 
BRANCH  24  25
ATOM     25  C   UNL     1      45.166   3.505   8.694  0.00  0.00    +0.000 A 
ATOM     26  C   UNL     1      45.354   2.134   8.854  0.00  0.00    +0.000 A 
ATOM     27  C   UNL     1      46.311   1.491   8.073  0.00  0.00    +0.000 A 
ATOM     28  C   UNL     1      47.051   2.229   7.157  0.00  0.00    +0.000 A 
ATOM     29  C   UNL     1      46.799   3.586   7.058  0.00  0.00    +0.000 A 
ATOM     30  N   UNL     1      45.873   4.235   7.798  0.00  0.00    +0.000 NA
ENDBRANCH  24  25
ENDBRANCH  23  24
ENDBRANCH  20  23
ENDBRANCH  16  17
ENDBRANCH   3  16
TORSDOF 6
ENDMDL
MODEL 6
REMARK VINA RESULT:    -6.905      2.156      2.697
REMARK INTER + INTRA:         -10.535
REMARK INTER:                  -9.465
REMARK INTRA:                  -1.070
REMARK UNBOUND:                -1.208
REMARK  Name = 
REMARK  6 active torsions:
REMARK  status: ('A' for Active; 'I' for Inactive)
REMARK    1  A    between atoms: C_2  and  C_19
REMARK    2  A    between atoms: N_3  and  C_4
REMARK    3  A    between atoms: C_4  and  C_5
REMARK    4  A    between atoms: C_8  and  C_9
REMARK    5  A    between atoms: C_9  and  C_10
REMARK    6  A    between atoms: C_10  and  C_11
REMARK                            x       y       z     vdW  Elec       q    Type
REMARK                         _______ _______ _______ _____ _____    ______ ____
ROOT
ATOM      1  O   UNL     1      48.388   8.966  16.026  0.00  0.00    +0.000 OA
ATOM      2  C   UNL     1      48.524   7.759  16.194  0.00  0.00    +0.000 C 
ATOM      3  N   UNL     1      48.510   6.865  15.149  0.00  0.00    +0.000 N 
ATOM      4  H   UNL     1      48.408   5.875  15.339  0.00  0.00    +0.000 HD
ENDROOT
BRANCH   2   5
ATOM      5  C   UNL     1      48.735   7.202  17.532  0.00  0.00    +0.000 A 
ATOM      6  C   UNL     1      47.836   7.472  18.559  0.00  0.00    +0.000 A 
ATOM      7  S   UNL     1      48.235   6.683  20.023  0.00  0.00    +0.000 S 
ATOM      8  C   UNL     1      49.593   5.943  19.328  0.00  0.00    +0.000 A 
ATOM      9  N   UNL     1      50.371   5.075  20.036  0.00  0.00    +0.000 NA
ATOM     10  C   UNL     1      51.339   4.556  19.362  0.00  0.00    +0.000 A 
ATOM     11  N   UNL     1      51.628   4.839  18.052  0.00  0.00    +0.000 N 
ATOM     12  C   UNL     1      50.913   5.753  17.317  0.00  0.00    +0.000 A 
ATOM     13  O   UNL     1      51.252   6.059  16.179  0.00  0.00    +0.000 OA
ATOM     14  C   UNL     1      49.770   6.322  18.009  0.00  0.00    +0.000 A 
ATOM     15  H   UNL     1      52.423   4.432  17.590  0.00  0.00    +0.000 HD
ENDBRANCH   2   5
BRANCH   3  16
ATOM     16  C   UNL     1      48.158   7.315  13.827  0.00  0.00    +0.000 C 
BRANCH  16  17
ATOM     17  C   UNL     1      47.210   6.377  13.128  0.00  0.00    +0.000 A 
ATOM     18  C   UNL     1      46.898   5.131  13.685  0.00  0.00    +0.000 A 
ATOM     19  C   UNL     1      45.963   4.288  13.074  0.00  0.00    +0.000 A 
ATOM     20  C   UNL     1      45.314   4.669  11.891  0.00  0.00    +0.000 A 
ATOM     21  C   UNL     1      45.670   5.895  11.309  0.00  0.00    +0.000 A 
ATOM     22  C   UNL     1      46.609   6.736  11.916  0.00  0.00    +0.000 A 
BRANCH  20  23
ATOM     23  C   UNL     1      44.304   3.780  11.191  0.00  0.00    +0.000 C 
BRANCH  23  24
ATOM     24  C   UNL     1      44.069   4.107   9.712  0.00  0.00    +0.000 C 
BRANCH  24  25
ATOM     25  C   UNL     1      45.088   3.455   8.813  0.00  0.00    +0.000 A 
ATOM     26  C   UNL     1      45.328   2.085   8.892  0.00  0.00    +0.000 A 
ATOM     27  C   UNL     1      46.294   1.523   8.062  0.00  0.00    +0.000 A 
ATOM     28  C   UNL     1      46.990   2.337   7.177  0.00  0.00    +0.000 A 
ATOM     29  C   UNL     1      46.688   3.688   7.159  0.00  0.00    +0.000 A 
ATOM     30  N   UNL     1      45.753   4.260   7.949  0.00  0.00    +0.000 NA
ENDBRANCH  24  25
ENDBRANCH  23  24
ENDBRANCH  20  23
ENDBRANCH  16  17
ENDBRANCH   3  16
TORSDOF 6
ENDMDL
MODEL 7
REMARK VINA RESULT:    -6.751      3.370      8.194
REMARK INTER + INTRA:         -10.327
REMARK INTER:                  -9.349
REMARK INTRA:                  -0.978
REMARK UNBOUND:                -1.208
REMARK  Name = 
REMARK  6 active torsions:
REMARK  status: ('A' for Active; 'I' for Inactive)
REMARK    1  A    between atoms: C_2  and  C_19
REMARK    2  A    between atoms: N_3  and  C_4
REMARK    3  A    between atoms: C_4  and  C_5
REMARK    4  A    between atoms: C_8  and  C_9
REMARK    5  A    between atoms: C_9  and  C_10
REMARK    6  A    between atoms: C_10  and  C_11
REMARK                            x       y       z     vdW  Elec       q    Type
REMARK                         _______ _______ _______ _____ _____    ______ ____
ROOT
ATOM      1  O   UNL     1      45.687   7.822  12.048  0.00  0.00    +0.000 OA
ATOM      2  C   UNL     1      46.327   6.900  11.555  0.00  0.00    +0.000 C 
ATOM      3  N   UNL     1      47.697   6.827  11.643  0.00  0.00    +0.000 N 
ATOM      4  H   UNL     1      48.203   6.180  11.049  0.00  0.00    +0.000 HD
ENDROOT
BRANCH   2   5
ATOM      5  C   UNL     1      45.655   5.800  10.859  0.00  0.00    +0.000 A 
ATOM      6  C   UNL     1      45.842   5.609   9.493  0.00  0.00    +0.000 A 
ATOM      7  S   UNL     1      45.014   4.242   8.888  0.00  0.00    +0.000 S 
ATOM      8  C   UNL     1      44.406   3.851  10.422  0.00  0.00    +0.000 A 
ATOM      9  N   UNL     1      43.644   2.738  10.625  0.00  0.00    +0.000 NA
ATOM     10  C   UNL     1      43.295   2.548  11.850  0.00  0.00    +0.000 A 
ATOM     11  N   UNL     1      43.608   3.376  12.897  0.00  0.00    +0.000 N 
ATOM     12  C   UNL     1      44.318   4.540  12.733  0.00  0.00    +0.000 A 
ATOM     13  O   UNL     1      44.500   5.311  13.669  0.00  0.00    +0.000 OA
ATOM     14  C   UNL     1      44.792   4.773  11.381  0.00  0.00    +0.000 A 
ATOM     15  H   UNL     1      43.271   3.196  13.828  0.00  0.00    +0.000 HD
ENDBRANCH   2   5
BRANCH   3  16
ATOM     16  C   UNL     1      48.440   7.940  12.176  0.00  0.00    +0.000 C 
BRANCH  16  17
ATOM     17  C   UNL     1      49.107   7.619  13.488  0.00  0.00    +0.000 A 
ATOM     18  C   UNL     1      48.456   6.834  14.446  0.00  0.00    +0.000 A 
ATOM     19  C   UNL     1      49.101   6.475  15.635  0.00  0.00    +0.000 A 
ATOM     20  C   UNL     1      50.414   6.889  15.895  0.00  0.00    +0.000 A 
ATOM     21  C   UNL     1      51.043   7.720  14.955  0.00  0.00    +0.000 A 
ATOM     22  C   UNL     1      50.396   8.084  13.769  0.00  0.00    +0.000 A 
BRANCH  20  23
ATOM     23  C   UNL     1      51.144   6.531  17.176  0.00  0.00    +0.000 C 
BRANCH  23  24
ATOM     24  C   UNL     1      50.410   5.537  18.083  0.00  0.00    +0.000 C 
BRANCH  24  25
ATOM     25  C   UNL     1      50.863   4.117  17.860  0.00  0.00    +0.000 A 
ATOM     26  C   UNL     1      52.132   3.708  18.261  0.00  0.00    +0.000 A 
ATOM     27  C   UNL     1      52.523   2.394  18.017  0.00  0.00    +0.000 A 
ATOM     28  C   UNL     1      51.641   1.527  17.385  0.00  0.00    +0.000 A 
ATOM     29  C   UNL     1      50.396   2.012  17.023  0.00  0.00    +0.000 A 
ATOM     30  N   UNL     1      49.988   3.280  17.251  0.00  0.00    +0.000 NA
ENDBRANCH  24  25
ENDBRANCH  23  24
ENDBRANCH  20  23
ENDBRANCH  16  17
ENDBRANCH   3  16
TORSDOF 6
ENDMDL
MODEL 8
REMARK VINA RESULT:    -6.647      2.211      3.066
REMARK INTER + INTRA:         -10.186
REMARK INTER:                  -9.151
REMARK INTRA:                  -1.035
REMARK UNBOUND:                -1.208
REMARK  Name = 
REMARK  6 active torsions:
REMARK  status: ('A' for Active; 'I' for Inactive)
REMARK    1  A    between atoms: C_2  and  C_19
REMARK    2  A    between atoms: N_3  and  C_4
REMARK    3  A    between atoms: C_4  and  C_5
REMARK    4  A    between atoms: C_8  and  C_9
REMARK    5  A    between atoms: C_9  and  C_10
REMARK    6  A    between atoms: C_10  and  C_11
REMARK                            x       y       z     vdW  Elec       q    Type
REMARK                         _______ _______ _______ _____ _____    ______ ____
ROOT
ATOM      1  O   UNL     1      47.238   5.299  17.867  0.00  0.00    +0.000 OA
ATOM      2  C   UNL     1      48.091   5.586  17.034  0.00  0.00    +0.000 C 
ATOM      3  N   UNL     1      47.987   5.209  15.716  0.00  0.00    +0.000 N 
ATOM      4  H   UNL     1      48.799   5.272  15.113  0.00  0.00    +0.000 HD
ENDROOT
BRANCH   2   5
ATOM      5  C   UNL     1      49.268   6.377  17.401  0.00  0.00    +0.000 A 
ATOM      6  C   UNL     1      49.148   7.737  17.671  0.00  0.00    +0.000 A 
ATOM      7  S   UNL     1      50.627   8.461  18.132  0.00  0.00    +0.000 S 
ATOM      8  C   UNL     1      51.459   6.989  18.011  0.00  0.00    +0.000 A 
ATOM      9  N   UNL     1      52.782   6.891  18.325  0.00  0.00    +0.000 NA
ATOM     10  C   UNL     1      53.265   5.700  18.230  0.00  0.00    +0.000 A 
ATOM     11  N   UNL     1      52.564   4.595  17.823  0.00  0.00    +0.000 N 
ATOM     12  C   UNL     1      51.247   4.655  17.435  0.00  0.00    +0.000 A 
ATOM     13  O   UNL     1      50.672   3.671  16.983  0.00  0.00    +0.000 OA
ATOM     14  C   UNL     1      50.634   5.962  17.583  0.00  0.00    +0.000 A 
ATOM     15  H   UNL     1      53.007   3.697  17.729  0.00  0.00    +0.000 HD
ENDBRANCH   2   5
BRANCH   3  16
ATOM     16  C   UNL     1      46.943   4.304  15.310  0.00  0.00    +0.000 C 
BRANCH  16  17
ATOM     17  C   UNL     1      46.503   4.525  13.887  0.00  0.00    +0.000 A 
ATOM     18  C   UNL     1      45.638   3.622  13.259  0.00  0.00    +0.000 A 
ATOM     19  C   UNL     1      45.172   3.862  11.962  0.00  0.00    +0.000 A 
ATOM     20  C   UNL     1      45.555   5.013  11.260  0.00  0.00    +0.000 A 
ATOM     21  C   UNL     1      46.463   5.888  11.875  0.00  0.00    +0.000 A 
ATOM     22  C   UNL     1      46.935   5.645  13.169  0.00  0.00    +0.000 A 
BRANCH  20  23
ATOM     23  C   UNL     1      45.081   5.305   9.849  0.00  0.00    +0.000 C 
BRANCH  23  24
ATOM     24  C   UNL     1      44.448   4.114   9.120  0.00  0.00    +0.000 C 
BRANCH  24  25
ATOM     25  C   UNL     1      45.473   3.261   8.419  0.00  0.00    +0.000 A 
ATOM     26  C   UNL     1      46.363   3.827   7.509  0.00  0.00    +0.000 A 
ATOM     27  C   UNL     1      47.281   3.003   6.864  0.00  0.00    +0.000 A 
ATOM     28  C   UNL     1      47.289   1.642   7.144  0.00  0.00    +0.000 A 
ATOM     29  C   UNL     1      46.374   1.160   8.064  0.00  0.00    +0.000 A 
ATOM     30  N   UNL     1      45.475   1.937   8.709  0.00  0.00    +0.000 NA
ENDBRANCH  24  25
ENDBRANCH  23  24
ENDBRANCH  20  23
ENDBRANCH  16  17
ENDBRANCH   3  16
TORSDOF 6
ENDMDL
MODEL 9
REMARK VINA RESULT:    -6.613      1.967      3.385
REMARK INTER + INTRA:         -10.141
REMARK INTER:                  -9.200
REMARK INTRA:                  -0.940
REMARK UNBOUND:                -1.208
REMARK  Name = 
REMARK  6 active torsions:
REMARK  status: ('A' for Active; 'I' for Inactive)
REMARK    1  A    between atoms: C_2  and  C_19
REMARK    2  A    between atoms: N_3  and  C_4
REMARK    3  A    between atoms: C_4  and  C_5
REMARK    4  A    between atoms: C_8  and  C_9
REMARK    5  A    between atoms: C_9  and  C_10
REMARK    6  A    between atoms: C_10  and  C_11
REMARK                            x       y       z     vdW  Elec       q    Type
REMARK                         _______ _______ _______ _____ _____    ______ ____
ROOT
ATOM      1  O   UNL     1      48.050   4.893  17.162  0.00  0.00    +0.000 OA
ATOM      2  C   UNL     1      48.416   5.575  16.211  0.00  0.00    +0.000 C 
ATOM      3  N   UNL     1      47.735   5.597  15.017  0.00  0.00    +0.000 N 
ATOM      4  H   UNL     1      48.177   5.994  14.196  0.00  0.00    +0.000 HD
ENDROOT
BRANCH   2   5
ATOM      5  C   UNL     1      49.600   6.432  16.308  0.00  0.00    +0.000 A 
ATOM      6  C   UNL     1      50.753   5.976  16.940  0.00  0.00    +0.000 A 
ATOM      7  S   UNL     1      52.034   7.107  16.895  0.00  0.00    +0.000 S 
ATOM      8  C   UNL     1      51.105   8.220  16.017  0.00  0.00    +0.000 A 
ATOM      9  N   UNL     1      51.627   9.408  15.596  0.00  0.00    +0.000 NA
ATOM     10  C   UNL     1      50.817  10.128  14.900  0.00  0.00    +0.000 A 
ATOM     11  N   UNL     1      49.521   9.794  14.601  0.00  0.00    +0.000 N 
ATOM     12  C   UNL     1      48.932   8.639  15.056  0.00  0.00    +0.000 A 
ATOM     13  O   UNL     1      47.743   8.411  14.856  0.00  0.00    +0.000 OA
ATOM     14  C   UNL     1      49.819   7.759  15.793  0.00  0.00    +0.000 A 
ATOM     15  H   UNL     1      48.923  10.418  14.087  0.00  0.00    +0.000 HD
ENDBRANCH   2   5
BRANCH   3  16
ATOM     16  C   UNL     1      46.654   4.672  14.792  0.00  0.00    +0.000 C 
BRANCH  16  17
ATOM     17  C   UNL     1      46.162   4.688  13.369  0.00  0.00    +0.000 A 
ATOM     18  C   UNL     1      46.328   5.824  12.569  0.00  0.00    +0.000 A 
ATOM     19  C   UNL     1      45.937   5.816  11.226  0.00  0.00    +0.000 A 
ATOM     20  C   UNL     1      45.373   4.672  10.647  0.00  0.00    +0.000 A 
ATOM     21  C   UNL     1      45.160   3.554  11.466  0.00  0.00    +0.000 A 
ATOM     22  C   UNL     1      45.546   3.563  12.812  0.00  0.00    +0.000 A 
BRANCH  20  23
ATOM     23  C   UNL     1      44.925   4.627   9.198  0.00  0.00    +0.000 C 
BRANCH  23  24
ATOM     24  C   UNL     1      44.614   3.225   8.660  0.00  0.00    +0.000 C 
BRANCH  24  25
ATOM     25  C   UNL     1      45.732   2.676   7.812  0.00  0.00    +0.000 A 
ATOM     26  C   UNL     1      46.213   3.399   6.722  0.00  0.00    +0.000 A 
ATOM     27  C   UNL     1      47.231   2.848   5.948  0.00  0.00    +0.000 A 
ATOM     28  C   UNL     1      47.741   1.600   6.281  0.00  0.00    +0.000 A 
ATOM     29  C   UNL     1      47.210   0.950   7.382  0.00  0.00    +0.000 A 
ATOM     30  N   UNL     1      46.226   1.462   8.154  0.00  0.00    +0.000 NA
ENDBRANCH  24  25
ENDBRANCH  23  24
ENDBRANCH  20  23
ENDBRANCH  16  17
ENDBRANCH   3  16
TORSDOF 6
ENDMDL
