MODEL 1
REMARK VINA RESULT:    -7.881      0.000      0.000
REMARK INTER + INTRA:         -12.268
REMARK INTER:                 -11.106
REMARK INTRA:                  -1.162
REMARK UNBOUND:                -1.162
REMARK  Name = 
REMARK  9 active torsions:
REMARK  status: ('A' for Active; 'I' for Inactive)
REMARK    1  A    between atoms: C_1  and  C_2
REMARK    2  A    between atoms: C_2  and  N_3
REMARK    3  A    between atoms: C_2  and  C_11
REMARK    4  A    between atoms: N_3  and  C_4
REMARK    5  A    between atoms: C_4  and  C_5
REMARK    6  A    between atoms: C_14  and  C_15
REMARK    7  A    between atoms: C_15  and  N_16
REMARK    8  A    between atoms: N_16  and  C_17
REMARK    9  A    between atoms: C_18  and  C_20
REMARK                            x       y       z     vdW  Elec       q    Type
REMARK                         _______ _______ _______ _____ _____    ______ ____
ROOT
ATOM      1  C   UNL     1      45.227   5.066  11.857  0.00  0.00    +0.000 A 
ATOM      2  C   UNL     1      45.783   4.666  13.081  0.00  0.00    +0.000 A 
ATOM      3  C   UNL     1      46.931   5.286  13.585  0.00  0.00    +0.000 A 
ATOM      4  C   UNL     1      47.557   6.326  12.881  0.00  0.00    +0.000 A 
ATOM      5  C   UNL     1      47.033   6.699  11.639  0.00  0.00    +0.000 A 
ATOM      6  C   UNL     1      45.872   6.091  11.146  0.00  0.00    +0.000 A 
ENDROOT
BRANCH   1   8
ATOM      7  C   UNL     1      43.563   3.191  12.216  0.00  0.00    +0.000 C 
ATOM      8  C   UNL     1      43.932   4.415  11.364  0.00  0.00    +0.000 C 
BRANCH   8   9
ATOM      9  N   UNL     1      44.053   4.100   9.930  0.00  0.00    +0.000 NA
ATOM     10  H   UNL     1      43.160   4.314   9.484  0.00  0.00    +0.000 HD
BRANCH   9  11
ATOM     11  C   UNL     1      44.343   2.680   9.668  0.00  0.00    +0.000 C 
BRANCH  11  12
ATOM     12  C   UNL     1      45.414   2.478   8.606  0.00  0.00    +0.000 A 
ATOM     13  C   UNL     1      45.850   3.556   7.837  0.00  0.00    +0.000 A 
ATOM     14  C   UNL     1      46.864   3.357   6.903  0.00  0.00    +0.000 A 
ATOM     15  C   UNL     1      47.420   2.093   6.765  0.00  0.00    +0.000 A 
ATOM     16  C   UNL     1      46.934   1.074   7.568  0.00  0.00    +0.000 A 
ATOM     17  N   UNL     1      45.948   1.236   8.480  0.00  0.00    +0.000 NA
ENDBRANCH  11  12
ENDBRANCH   9  11
ENDBRANCH   8   9
ENDBRANCH   1   8
BRANCH   4  18
ATOM     18  C   UNL     1      48.704   7.102  13.494  0.00  0.00    +0.000 C 
BRANCH  18  19
ATOM     19  N   UNL     1      48.525   7.604  14.858  0.00  0.00    +0.000 N 
ATOM     20  C   UNL     1      47.737   8.815  15.048  0.00  0.00    +0.000 C 
ATOM     21  C   UNL     1      49.369   7.042  15.837  0.00  0.00    +0.000 C 
ATOM     22  O   UNL     1      50.149   6.136  15.551  0.00  0.00    +0.000 OA
BRANCH  21  23
ATOM     23  C   UNL     1      49.286   7.505  17.233  0.00  0.00    +0.000 A 
ATOM     24  C   UNL     1      49.802   8.706  17.692  0.00  0.00    +0.000 A 
ATOM     25  S   UNL     1      49.504   8.995  19.346  0.00  0.00    +0.000 S 
ATOM     26  C   UNL     1      48.541   7.602  19.471  0.00  0.00    +0.000 A 
ATOM     27  N   UNL     1      47.873   7.312  20.621  0.00  0.00    +0.000 NA
ATOM     28  C   UNL     1      47.129   6.262  20.552  0.00  0.00    +0.000 A 
ATOM     29  N   UNL     1      47.027   5.446  19.448  0.00  0.00    +0.000 N 
ATOM     30  C   UNL     1      47.795   5.616  18.320  0.00  0.00    +0.000 A 
ATOM     31  O   UNL     1      47.869   4.731  17.474  0.00  0.00    +0.000 OA
ATOM     32  C   UNL     1      48.542   6.865  18.299  0.00  0.00    +0.000 A 
ATOM     33  H   UNL     1      46.490   4.594  19.491  0.00  0.00    +0.000 HD
ENDBRANCH  21  23
ENDBRANCH  18  19
ENDBRANCH   4  18
TORSDOF 7
ENDMDL
MODEL 2
REMARK VINA RESULT:    -7.874      1.729      1.933
REMARK INTER + INTRA:         -12.258
REMARK INTER:                 -11.208
REMARK INTRA:                  -1.049
REMARK UNBOUND:                -1.162
REMARK  Name = 
REMARK  9 active torsions:
REMARK  status: ('A' for Active; 'I' for Inactive)
REMARK    1  A    between atoms: C_1  and  C_2
REMARK    2  A    between atoms: C_2  and  N_3
REMARK    3  A    between atoms: C_2  and  C_11
REMARK    4  A    between atoms: N_3  and  C_4
REMARK    5  A    between atoms: C_4  and  C_5
REMARK    6  A    between atoms: C_14  and  C_15
REMARK    7  A    between atoms: C_15  and  N_16
REMARK    8  A    between atoms: N_16  and  C_17
REMARK    9  A    between atoms: C_18  and  C_20
REMARK                            x       y       z     vdW  Elec       q    Type
REMARK                         _______ _______ _______ _____ _____    ______ ____
ROOT
ATOM      1  C   UNL     1      44.577   5.774  11.167  0.00  0.00    +0.000 A 
ATOM      2  C   UNL     1      45.843   5.865  10.568  0.00  0.00    +0.000 A 
ATOM      3  C   UNL     1      46.804   6.758  11.055  0.00  0.00    +0.000 A 
ATOM      4  C   UNL     1      46.530   7.585  12.154  0.00  0.00    +0.000 A 
ATOM      5  C   UNL     1      45.255   7.531  12.727  0.00  0.00    +0.000 A 
ATOM      6  C   UNL     1      44.302   6.622  12.252  0.00  0.00    +0.000 A 
ENDROOT
BRANCH   1   8
ATOM      7  C   UNL     1      43.353   3.619  11.684  0.00  0.00    +0.000 C 
ATOM      8  C   UNL     1      43.570   4.741  10.657  0.00  0.00    +0.000 C 
BRANCH   8   9
ATOM      9  N   UNL     1      44.003   4.238   9.342  0.00  0.00    +0.000 NA
ATOM     10  H   UNL     1      43.224   4.347   8.691  0.00  0.00    +0.000 HD
BRANCH   9  11
ATOM     11  C   UNL     1      44.365   2.810   9.354  0.00  0.00    +0.000 C 
BRANCH  11  12
ATOM     12  C   UNL     1      45.508   2.479   8.405  0.00  0.00    +0.000 A 
ATOM     13  C   UNL     1      46.085   3.481   7.626  0.00  0.00    +0.000 A 
ATOM     14  C   UNL     1      47.159   3.162   6.799  0.00  0.00    +0.000 A 
ATOM     15  C   UNL     1      47.634   1.858   6.776  0.00  0.00    +0.000 A 
ATOM     16  C   UNL     1      47.009   0.921   7.580  0.00  0.00    +0.000 A 
ATOM     17  N   UNL     1      45.961   1.199   8.390  0.00  0.00    +0.000 NA
ENDBRANCH  11  12
ENDBRANCH   9  11
ENDBRANCH   8   9
ENDBRANCH   1   8
BRANCH   4  18
ATOM     18  C   UNL     1      47.616   8.436  12.777  0.00  0.00    +0.000 C 
BRANCH  18  19
ATOM     19  N   UNL     1      48.043   8.095  14.136  0.00  0.00    +0.000 N 
ATOM     20  C   UNL     1      47.805   9.064  15.197  0.00  0.00    +0.000 C 
ATOM     21  C   UNL     1      48.908   6.988  14.250  0.00  0.00    +0.000 C 
ATOM     22  O   UNL     1      49.214   6.323  13.262  0.00  0.00    +0.000 OA
BRANCH  21  23
ATOM     23  C   UNL     1      49.418   6.586  15.572  0.00  0.00    +0.000 A 
ATOM     24  C   UNL     1      50.470   7.205  16.227  0.00  0.00    +0.000 A 
ATOM     25  S   UNL     1      50.798   6.553  17.769  0.00  0.00    +0.000 S 
ATOM     26  C   UNL     1      49.448   5.526  17.681  0.00  0.00    +0.000 A 
ATOM     27  N   UNL     1      49.083   4.758  18.742  0.00  0.00    +0.000 NA
ATOM     28  C   UNL     1      48.002   4.079  18.559  0.00  0.00    +0.000 A 
ATOM     29  N   UNL     1      47.278   4.064  17.388  0.00  0.00    +0.000 N 
ATOM     30  C   UNL     1      47.691   4.705  16.245  0.00  0.00    +0.000 A 
ATOM     31  O   UNL     1      47.167   4.458  15.164  0.00  0.00    +0.000 OA
ATOM     32  C   UNL     1      48.825   5.595  16.447  0.00  0.00    +0.000 A 
ATOM     33  H   UNL     1      46.488   3.444  17.286  0.00  0.00    +0.000 HD
ENDBRANCH  21  23
ENDBRANCH  18  19
ENDBRANCH   4  18
TORSDOF 7
ENDMDL
MODEL 3
REMARK VINA RESULT:    -7.585      2.288      2.736
REMARK INTER + INTRA:         -11.851
REMARK INTER:                 -10.661
REMARK INTRA:                  -1.190
REMARK UNBOUND:                -1.162
REMARK  Name = 
REMARK  9 active torsions:
REMARK  status: ('A' for Active; 'I' for Inactive)
REMARK    1  A    between atoms: C_1  and  C_2
REMARK    2  A    between atoms: C_2  and  N_3
REMARK    3  A    between atoms: C_2  and  C_11
REMARK    4  A    between atoms: N_3  and  C_4
REMARK    5  A    between atoms: C_4  and  C_5
REMARK    6  A    between atoms: C_14  and  C_15
REMARK    7  A    between atoms: C_15  and  N_16
REMARK    8  A    between atoms: N_16  and  C_17
REMARK    9  A    between atoms: C_18  and  C_20
REMARK                            x       y       z     vdW  Elec       q    Type
REMARK                         _______ _______ _______ _____ _____    ______ ____
ROOT
ATOM      1  C   UNL     1      44.426   4.873  11.657  0.00  0.00    +0.000 A 
ATOM      2  C   UNL     1      45.058   4.705  12.898  0.00  0.00    +0.000 A 
ATOM      3  C   UNL     1      45.923   5.684  13.401  0.00  0.00    +0.000 A 
ATOM      4  C   UNL     1      46.180   6.859  12.681  0.00  0.00    +0.000 A 
ATOM      5  C   UNL     1      45.587   7.012  11.423  0.00  0.00    +0.000 A 
ATOM      6  C   UNL     1      44.706   6.042  10.930  0.00  0.00    +0.000 A 
ENDROOT
BRANCH   1   8
ATOM      7  C   UNL     1      43.430   2.584  12.077  0.00  0.00    +0.000 C 
ATOM      8  C   UNL     1      43.434   3.818  11.163  0.00  0.00    +0.000 C 
BRANCH   8   9
ATOM      9  N   UNL     1      43.723   3.489   9.757  0.00  0.00    +0.000 NA
ATOM     10  H   UNL     1      42.833   3.381   9.268  0.00  0.00    +0.000 HD
BRANCH   9  11
ATOM     11  C   UNL     1      44.466   2.227   9.595  0.00  0.00    +0.000 C 
BRANCH  11  12
ATOM     12  C   UNL     1      45.515   2.291   8.495  0.00  0.00    +0.000 A 
ATOM     13  C   UNL     1      45.727   3.480   7.798  0.00  0.00    +0.000 A 
ATOM     14  C   UNL     1      46.725   3.528   6.827  0.00  0.00    +0.000 A 
ATOM     15  C   UNL     1      47.489   2.395   6.582  0.00  0.00    +0.000 A 
ATOM     16  C   UNL     1      47.218   1.254   7.318  0.00  0.00    +0.000 A 
ATOM     17  N   UNL     1      46.253   1.175   8.264  0.00  0.00    +0.000 NA
ENDBRANCH  11  12
ENDBRANCH   9  11
ENDBRANCH   8   9
ENDBRANCH   1   8
BRANCH   4  18
ATOM     18  C   UNL     1      46.988   7.985  13.290  0.00  0.00    +0.000 C 
BRANCH  18  19
ATOM     19  N   UNL     1      48.421   7.754  13.489  0.00  0.00    +0.000 N 
ATOM     20  C   UNL     1      49.133   6.954  12.502  0.00  0.00    +0.000 C 
ATOM     21  C   UNL     1      48.925   8.076  14.765  0.00  0.00    +0.000 C 
ATOM     22  O   UNL     1      48.201   8.586  15.618  0.00  0.00    +0.000 OA
BRANCH  21  23
ATOM     23  C   UNL     1      50.347   7.849  15.073  0.00  0.00    +0.000 A 
ATOM     24  C   UNL     1      51.378   8.684  14.673  0.00  0.00    +0.000 A 
ATOM     25  S   UNL     1      52.915   8.192  15.227  0.00  0.00    +0.000 S 
ATOM     26  C   UNL     1      52.240   6.937  16.149  0.00  0.00    +0.000 A 
ATOM     27  N   UNL     1      53.014   6.178  16.972  0.00  0.00    +0.000 NA
ATOM     28  C   UNL     1      52.360   5.306  17.661  0.00  0.00    +0.000 A 
ATOM     29  N   UNL     1      51.003   5.094  17.567  0.00  0.00    +0.000 N 
ATOM     30  C   UNL     1      50.208   5.732  16.644  0.00  0.00    +0.000 A 
ATOM     31  O   UNL     1      49.072   5.332  16.414  0.00  0.00    +0.000 OA
ATOM     32  C   UNL     1      50.875   6.820  15.947  0.00  0.00    +0.000 A 
ATOM     33  H   UNL     1      50.569   4.338  18.075  0.00  0.00    +0.000 HD
ENDBRANCH  21  23
ENDBRANCH  18  19
ENDBRANCH   4  18
TORSDOF 7
ENDMDL
MODEL 4
REMARK VINA RESULT:    -7.301      1.761      2.324
REMARK INTER + INTRA:         -11.450
REMARK INTER:                 -10.352
REMARK INTRA:                  -1.098
REMARK UNBOUND:                -1.162
REMARK  Name = 
REMARK  9 active torsions:
REMARK  status: ('A' for Active; 'I' for Inactive)
REMARK    1  A    between atoms: C_1  and  C_2
REMARK    2  A    between atoms: C_2  and  N_3
REMARK    3  A    between atoms: C_2  and  C_11
REMARK    4  A    between atoms: N_3  and  C_4
REMARK    5  A    between atoms: C_4  and  C_5
REMARK    6  A    between atoms: C_14  and  C_15
REMARK    7  A    between atoms: C_15  and  N_16
REMARK    8  A    between atoms: N_16  and  C_17
REMARK    9  A    between atoms: C_18  and  C_20
REMARK                            x       y       z     vdW  Elec       q    Type
REMARK                         _______ _______ _______ _____ _____    ______ ____
ROOT
ATOM      1  C   UNL     1      45.038   6.041  12.116  0.00  0.00    +0.000 A 
ATOM      2  C   UNL     1      45.454   5.065  13.034  0.00  0.00    +0.000 A 
ATOM      3  C   UNL     1      46.668   5.195  13.719  0.00  0.00    +0.000 A 
ATOM      4  C   UNL     1      47.499   6.305  13.508  0.00  0.00    +0.000 A 
ATOM      5  C   UNL     1      47.111   7.259  12.561  0.00  0.00    +0.000 A 
ATOM      6  C   UNL     1      45.886   7.137  11.893  0.00  0.00    +0.000 A 
ENDROOT
BRANCH   1   8
ATOM      7  C   UNL     1      42.702   5.078  12.288  0.00  0.00    +0.000 C 
ATOM      8  C   UNL     1      43.675   5.905  11.434  0.00  0.00    +0.000 C 
BRANCH   8   9
ATOM      9  N   UNL     1      43.855   5.357  10.078  0.00  0.00    +0.000 NA
ATOM     10  H   UNL     1      43.032   5.606   9.526  0.00  0.00    +0.000 HD
BRANCH   9  11
ATOM     11  C   UNL     1      43.971   3.889  10.053  0.00  0.00    +0.000 C 
BRANCH  11  12
ATOM     12  C   UNL     1      45.021   3.392   9.070  0.00  0.00    +0.000 A 
ATOM     13  C   UNL     1      45.332   2.035   9.004  0.00  0.00    +0.000 A 
ATOM     14  C   UNL     1      46.263   1.597   8.065  0.00  0.00    +0.000 A 
ATOM     15  C   UNL     1      46.852   2.521   7.213  0.00  0.00    +0.000 A 
ATOM     16  C   UNL     1      46.489   3.851   7.340  0.00  0.00    +0.000 A 
ATOM     17  N   UNL     1      45.592   4.307   8.245  0.00  0.00    +0.000 NA
ENDBRANCH  11  12
ENDBRANCH   9  11
ENDBRANCH   8   9
ENDBRANCH   1   8
BRANCH   4  18
ATOM     18  C   UNL     1      48.733   6.527  14.358  0.00  0.00    +0.000 C 
BRANCH  18  19
ATOM     19  N   UNL     1      48.528   6.863  15.769  0.00  0.00    +0.000 N 
ATOM     20  C   UNL     1      48.496   8.270  16.144  0.00  0.00    +0.000 C 
ATOM     21  C   UNL     1      48.671   5.799  16.682  0.00  0.00    +0.000 C 
ATOM     22  O   UNL     1      48.884   4.654  16.288  0.00  0.00    +0.000 OA
BRANCH  21  23
ATOM     23  C   UNL     1      48.515   6.044  18.126  0.00  0.00    +0.000 A 
ATOM     24  C   UNL     1      47.337   5.850  18.831  0.00  0.00    +0.000 A 
ATOM     25  S   UNL     1      47.477   6.164  20.502  0.00  0.00    +0.000 S 
ATOM     26  C   UNL     1      49.151   6.419  20.368  0.00  0.00    +0.000 A 
ATOM     27  N   UNL     1      49.917   6.627  21.473  0.00  0.00    +0.000 NA
ATOM     28  C   UNL     1      51.179   6.738  21.230  0.00  0.00    +0.000 A 
ATOM     29  N   UNL     1      51.738   6.707  19.973  0.00  0.00    +0.000 N 
ATOM     30  C   UNL     1      50.989   6.649  18.822  0.00  0.00    +0.000 A 
ATOM     31  O   UNL     1      51.497   6.885  17.732  0.00  0.00    +0.000 OA
ATOM     32  C   UNL     1      49.578   6.380  19.052  0.00  0.00    +0.000 A 
ATOM     33  H   UNL     1      52.724   6.884  19.849  0.00  0.00    +0.000 HD
ENDBRANCH  21  23
ENDBRANCH  18  19
ENDBRANCH   4  18
TORSDOF 7
ENDMDL
MODEL 5
REMARK VINA RESULT:    -6.799      3.524      4.836
REMARK INTER + INTRA:         -10.743
REMARK INTER:                  -9.902
REMARK INTRA:                  -0.841
REMARK UNBOUND:                -1.162
REMARK  Name = 
REMARK  9 active torsions:
REMARK  status: ('A' for Active; 'I' for Inactive)
REMARK    1  A    between atoms: C_1  and  C_2
REMARK    2  A    between atoms: C_2  and  N_3
REMARK    3  A    between atoms: C_2  and  C_11
REMARK    4  A    between atoms: N_3  and  C_4
REMARK    5  A    between atoms: C_4  and  C_5
REMARK    6  A    between atoms: C_14  and  C_15
REMARK    7  A    between atoms: C_15  and  N_16
REMARK    8  A    between atoms: N_16  and  C_17
REMARK    9  A    between atoms: C_18  and  C_20
REMARK                            x       y       z     vdW  Elec       q    Type
REMARK                         _______ _______ _______ _____ _____    ______ ____
ROOT
ATOM      1  C   UNL     1      45.023   4.640  11.776  0.00  0.00    +0.000 A 
ATOM      2  C   UNL     1      45.718   3.962  12.788  0.00  0.00    +0.000 A 
ATOM      3  C   UNL     1      46.803   4.560  13.439  0.00  0.00    +0.000 A 
ATOM      4  C   UNL     1      47.223   5.855  13.099  0.00  0.00    +0.000 A 
ATOM      5  C   UNL     1      46.562   6.518  12.060  0.00  0.00    +0.000 A 
ATOM      6  C   UNL     1      45.464   5.926  11.425  0.00  0.00    +0.000 A 
ENDROOT
BRANCH   1   8
ATOM      7  C   UNL     1      43.354   2.741  11.910  0.00  0.00    +0.000 C 
ATOM      8  C   UNL     1      43.799   3.987  11.130  0.00  0.00    +0.000 C 
BRANCH   8   9
ATOM      9  N   UNL     1      44.082   3.705   9.712  0.00  0.00    +0.000 NA
ATOM     10  H   UNL     1      43.211   3.811   9.189  0.00  0.00    +0.000 HD
BRANCH   9  11
ATOM     11  C   UNL     1      44.569   2.335   9.477  0.00  0.00    +0.000 C 
BRANCH  11  12
ATOM     12  C   UNL     1      45.613   2.256   8.372  0.00  0.00    +0.000 A 
ATOM     13  C   UNL     1      45.923   3.388   7.619  0.00  0.00    +0.000 A 
ATOM     14  C   UNL     1      46.914   3.304   6.645  0.00  0.00    +0.000 A 
ATOM     15  C   UNL     1      47.575   2.098   6.451  0.00  0.00    +0.000 A 
ATOM     16  C   UNL     1      47.211   1.020   7.241  0.00  0.00    +0.000 A 
ATOM     17  N   UNL     1      46.249   1.070   8.192  0.00  0.00    +0.000 NA
ENDBRANCH  11  12
ENDBRANCH   9  11
ENDBRANCH   8   9
ENDBRANCH   1   8
BRANCH   4  18
ATOM     18  C   UNL     1      48.293   6.563  13.904  0.00  0.00    +0.000 C 
BRANCH  18  19
ATOM     19  N   UNL     1      48.527   7.979  13.615  0.00  0.00    +0.000 N 
ATOM     20  C   UNL     1      47.663   8.964  14.253  0.00  0.00    +0.000 C 
ATOM     21  C   UNL     1      49.373   8.253  12.521  0.00  0.00    +0.000 C 
ATOM     22  O   UNL     1      49.926   7.341  11.909  0.00  0.00    +0.000 OA
BRANCH  21  23
ATOM     23  C   UNL     1      49.644   9.647  12.132  0.00  0.00    +0.000 A 
ATOM     24  C   UNL     1      48.891  10.366  11.217  0.00  0.00    +0.000 A 
ATOM     25  S   UNL     1      49.413  11.977  11.012  0.00  0.00    +0.000 S 
ATOM     26  C   UNL     1      50.563  11.818  12.251  0.00  0.00    +0.000 A 
ATOM     27  N   UNL     1      51.295  12.887  12.667  0.00  0.00    +0.000 NA
ATOM     28  C   UNL     1      52.080  12.638  13.659  0.00  0.00    +0.000 A 
ATOM     29  N   UNL     1      52.235  11.401  14.242  0.00  0.00    +0.000 N 
ATOM     30  C   UNL     1      51.630  10.265  13.758  0.00  0.00    +0.000 A 
ATOM     31  O   UNL     1      51.991   9.156  14.134  0.00  0.00    +0.000 OA
ATOM     32  C   UNL     1      50.629  10.523  12.735  0.00  0.00    +0.000 A 
ATOM     33  H   UNL     1      52.929  11.259  14.960  0.00  0.00    +0.000 HD
ENDBRANCH  21  23
ENDBRANCH  18  19
ENDBRANCH   4  18
TORSDOF 7
ENDMDL
MODEL 6
REMARK VINA RESULT:    -6.699      1.554      2.375
REMARK INTER + INTRA:         -10.602
REMARK INTER:                  -9.518
REMARK INTRA:                  -1.084
REMARK UNBOUND:                -1.162
REMARK  Name = 
REMARK  9 active torsions:
REMARK  status: ('A' for Active; 'I' for Inactive)
REMARK    1  A    between atoms: C_1  and  C_2
REMARK    2  A    between atoms: C_2  and  N_3
REMARK    3  A    between atoms: C_2  and  C_11
REMARK    4  A    between atoms: N_3  and  C_4
REMARK    5  A    between atoms: C_4  and  C_5
REMARK    6  A    between atoms: C_14  and  C_15
REMARK    7  A    between atoms: C_15  and  N_16
REMARK    8  A    between atoms: N_16  and  C_17
REMARK    9  A    between atoms: C_18  and  C_20
REMARK                            x       y       z     vdW  Elec       q    Type
REMARK                         _______ _______ _______ _____ _____    ______ ____
ROOT
ATOM      1  C   UNL     1      46.997   6.758  12.223  0.00  0.00    +0.000 A 
ATOM      2  C   UNL     1      48.120   7.490  11.812  0.00  0.00    +0.000 A 
ATOM      3  C   UNL     1      49.195   7.704  12.682  0.00  0.00    +0.000 A 
ATOM      4  C   UNL     1      49.180   7.191  13.987  0.00  0.00    +0.000 A 
ATOM      5  C   UNL     1      48.043   6.499  14.417  0.00  0.00    +0.000 A 
ATOM      6  C   UNL     1      46.978   6.267  13.538  0.00  0.00    +0.000 A 
ENDROOT
BRANCH   1   8
ATOM      7  C   UNL     1      44.710   7.477  11.407  0.00  0.00    +0.000 C 
ATOM      8  C   UNL     1      45.867   6.482  11.228  0.00  0.00    +0.000 C 
BRANCH   8   9
ATOM      9  N   UNL     1      45.438   5.078  11.346  0.00  0.00    +0.000 NA
ATOM     10  H   UNL     1      46.273   4.491  11.331  0.00  0.00    +0.000 HD
BRANCH   9  11
ATOM     11  C   UNL     1      44.574   4.637  10.237  0.00  0.00    +0.000 C 
BRANCH  11  12
ATOM     12  C   UNL     1      45.317   3.810   9.198  0.00  0.00    +0.000 A 
ATOM     13  C   UNL     1      45.321   2.418   9.284  0.00  0.00    +0.000 A 
ATOM     14  C   UNL     1      45.969   1.680   8.296  0.00  0.00    +0.000 A 
ATOM     15  C   UNL     1      46.588   2.346   7.247  0.00  0.00    +0.000 A 
ATOM     16  C   UNL     1      46.537   3.730   7.232  0.00  0.00    +0.000 A 
ATOM     17  N   UNL     1      45.920   4.474   8.179  0.00  0.00    +0.000 NA
ENDBRANCH  11  12
ENDBRANCH   9  11
ENDBRANCH   8   9
ENDBRANCH   1   8
BRANCH   4  18
ATOM     18  C   UNL     1      50.402   7.287  14.877  0.00  0.00    +0.000 C 
BRANCH  18  19
ATOM     19  N   UNL     1      50.177   7.461  16.314  0.00  0.00    +0.000 N 
ATOM     20  C   UNL     1      49.841   8.792  16.802  0.00  0.00    +0.000 C 
ATOM     21  C   UNL     1      50.591   6.393  17.135  0.00  0.00    +0.000 C 
ATOM     22  O   UNL     1      51.044   5.360  16.645  0.00  0.00    +0.000 OA
BRANCH  21  23
ATOM     23  C   UNL     1      50.436   6.487  18.596  0.00  0.00    +0.000 A 
ATOM     24  C   UNL     1      51.385   7.024  19.452  0.00  0.00    +0.000 A 
ATOM     25  S   UNL     1      50.901   7.047  21.087  0.00  0.00    +0.000 S 
ATOM     26  C   UNL     1      49.348   6.486  20.691  0.00  0.00    +0.000 A 
ATOM     27  N   UNL     1      48.377   6.386  21.639  0.00  0.00    +0.000 NA
ATOM     28  C   UNL     1      47.230   6.011  21.186  0.00  0.00    +0.000 A 
ATOM     29  N   UNL     1      46.977   5.682  19.873  0.00  0.00    +0.000 N 
ATOM     30  C   UNL     1      47.961   5.625  18.914  0.00  0.00    +0.000 A 
ATOM     31  O   UNL     1      47.752   5.082  17.835  0.00  0.00    +0.000 OA
ATOM     32  C   UNL     1      49.236   6.175  19.347  0.00  0.00    +0.000 A 
ATOM     33  H   UNL     1      46.077   5.316  19.603  0.00  0.00    +0.000 HD
ENDBRANCH  21  23
ENDBRANCH  18  19
ENDBRANCH   4  18
TORSDOF 7
ENDMDL
MODEL 7
REMARK VINA RESULT:    -6.544      4.193      5.628
REMARK INTER + INTRA:         -10.384
REMARK INTER:                  -9.301
REMARK INTRA:                  -1.083
REMARK UNBOUND:                -1.162
REMARK  Name = 
REMARK  9 active torsions:
REMARK  status: ('A' for Active; 'I' for Inactive)
REMARK    1  A    between atoms: C_1  and  C_2
REMARK    2  A    between atoms: C_2  and  N_3
REMARK    3  A    between atoms: C_2  and  C_11
REMARK    4  A    between atoms: N_3  and  C_4
REMARK    5  A    between atoms: C_4  and  C_5
REMARK    6  A    between atoms: C_14  and  C_15
REMARK    7  A    between atoms: C_15  and  N_16
REMARK    8  A    between atoms: N_16  and  C_17
REMARK    9  A    between atoms: C_18  and  C_20
REMARK                            x       y       z     vdW  Elec       q    Type
REMARK                         _______ _______ _______ _____ _____    ______ ____
ROOT
ATOM      1  C   UNL     1      45.458   6.174  11.569  0.00  0.00    +0.000 A 
ATOM      2  C   UNL     1      44.721   7.334  11.850  0.00  0.00    +0.000 A 
ATOM      3  C   UNL     1      45.360   8.509  12.261  0.00  0.00    +0.000 A 
ATOM      4  C   UNL     1      46.755   8.560  12.402  0.00  0.00    +0.000 A 
ATOM      5  C   UNL     1      47.491   7.394  12.166  0.00  0.00    +0.000 A 
ATOM      6  C   UNL     1      46.852   6.226  11.734  0.00  0.00    +0.000 A 
ENDROOT
BRANCH   1   8
ATOM      7  C   UNL     1      45.076   3.695  11.913  0.00  0.00    +0.000 C 
ATOM      8  C   UNL     1      44.739   4.925  11.056  0.00  0.00    +0.000 C 
BRANCH   8   9
ATOM      9  N   UNL     1      45.046   4.730   9.629  0.00  0.00    +0.000 NA
ATOM     10  H   UNL     1      44.555   5.452   9.099  0.00  0.00    +0.000 HD
BRANCH   9  11
ATOM     11  C   UNL     1      44.597   3.427   9.109  0.00  0.00    +0.000 C 
BRANCH  11  12
ATOM     12  C   UNL     1      45.642   2.743   8.239  0.00  0.00    +0.000 A 
ATOM     13  C   UNL     1      46.351   3.476   7.288  0.00  0.00    +0.000 A 
ATOM     14  C   UNL     1      47.334   2.838   6.535  0.00  0.00    +0.000 A 
ATOM     15  C   UNL     1      47.589   1.491   6.754  0.00  0.00    +0.000 A 
ATOM     16  C   UNL     1      46.844   0.833   7.718  0.00  0.00    +0.000 A 
ATOM     17  N   UNL     1      45.880   1.424   8.461  0.00  0.00    +0.000 NA
ENDBRANCH  11  12
ENDBRANCH   9  11
ENDBRANCH   8   9
ENDBRANCH   1   8
BRANCH   4  18
ATOM     18  C   UNL     1      47.460   9.868  12.694  0.00  0.00    +0.000 C 
BRANCH  18  19
ATOM     19  N   UNL     1      48.925   9.857  12.696  0.00  0.00    +0.000 N 
ATOM     20  C   UNL     1      49.610   9.572  13.950  0.00  0.00    +0.000 C 
ATOM     21  C   UNL     1      49.546  10.409  11.558  0.00  0.00    +0.000 C 
ATOM     22  O   UNL     1      48.878  10.802  10.604  0.00  0.00    +0.000 OA
BRANCH  21  23
ATOM     23  C   UNL     1      51.016  10.472  11.480  0.00  0.00    +0.000 A 
ATOM     24  C   UNL     1      51.765  11.612  11.725  0.00  0.00    +0.000 A 
ATOM     25  S   UNL     1      53.449  11.364  11.612  0.00  0.00    +0.000 S 
ATOM     26  C   UNL     1      53.242   9.694  11.387  0.00  0.00    +0.000 A 
ATOM     27  N   UNL     1      54.314   8.858  11.329  0.00  0.00    +0.000 NA
ATOM     28  C   UNL     1      54.008   7.609  11.222  0.00  0.00    +0.000 A 
ATOM     29  N   UNL     1      52.723   7.126  11.121  0.00  0.00    +0.000 N 
ATOM     30  C   UNL     1      51.622   7.943  11.024  0.00  0.00    +0.000 A 
ATOM     31  O   UNL     1      50.537   7.491  10.675  0.00  0.00    +0.000 OA
ATOM     32  C   UNL     1      51.907   9.346  11.282  0.00  0.00    +0.000 A 
ATOM     33  H   UNL     1      52.560   6.144  10.956  0.00  0.00    +0.000 HD
ENDBRANCH  21  23
ENDBRANCH  18  19
ENDBRANCH   4  18
TORSDOF 7
ENDMDL
MODEL 8
REMARK VINA RESULT:    -6.542      2.481      2.844
REMARK INTER + INTRA:         -10.380
REMARK INTER:                  -9.699
REMARK INTRA:                  -0.681
REMARK UNBOUND:                -1.162
REMARK  Name = 
REMARK  9 active torsions:
REMARK  status: ('A' for Active; 'I' for Inactive)
REMARK    1  A    between atoms: C_1  and  C_2
REMARK    2  A    between atoms: C_2  and  N_3
REMARK    3  A    between atoms: C_2  and  C_11
REMARK    4  A    between atoms: N_3  and  C_4
REMARK    5  A    between atoms: C_4  and  C_5
REMARK    6  A    between atoms: C_14  and  C_15
REMARK    7  A    between atoms: C_15  and  N_16
REMARK    8  A    between atoms: N_16  and  C_17
REMARK    9  A    between atoms: C_18  and  C_20
REMARK                            x       y       z     vdW  Elec       q    Type
REMARK                         _______ _______ _______ _____ _____    ______ ____
ROOT
ATOM      1  C   UNL     1      45.520   6.487  11.722  0.00  0.00    +0.000 A 
ATOM      2  C   UNL     1      46.379   5.723  12.526  0.00  0.00    +0.000 A 
ATOM      3  C   UNL     1      47.183   6.331  13.497  0.00  0.00    +0.000 A 
ATOM      4  C   UNL     1      47.149   7.720  13.695  0.00  0.00    +0.000 A 
ATOM      5  C   UNL     1      46.328   8.491  12.866  0.00  0.00    +0.000 A 
ATOM      6  C   UNL     1      45.509   7.878  11.909  0.00  0.00    +0.000 A 
ENDROOT
BRANCH   1   8
ATOM      7  C   UNL     1      43.707   4.748  11.405  0.00  0.00    +0.000 C 
ATOM      8  C   UNL     1      44.604   5.787  10.715  0.00  0.00    +0.000 C 
BRANCH   8   9
ATOM      9  N   UNL     1      45.415   5.212   9.627  0.00  0.00    +0.000 NA
ATOM     10  H   UNL     1      45.657   5.966   8.982  0.00  0.00    +0.000 HD
BRANCH   9  11
ATOM     11  C   UNL     1      44.702   4.184   8.851  0.00  0.00    +0.000 C 
BRANCH  11  12
ATOM     12  C   UNL     1      45.639   3.261   8.085  0.00  0.00    +0.000 A 
ATOM     13  C   UNL     1      45.824   1.945   8.505  0.00  0.00    +0.000 A 
ATOM     14  C   UNL     1      46.651   1.106   7.762  0.00  0.00    +0.000 A 
ATOM     15  C   UNL     1      47.265   1.597   6.618  0.00  0.00    +0.000 A 
ATOM     16  C   UNL     1      47.029   2.916   6.266  0.00  0.00    +0.000 A 
ATOM     17  N   UNL     1      46.235   3.756   6.969  0.00  0.00    +0.000 NA
ENDBRANCH  11  12
ENDBRANCH   9  11
ENDBRANCH   8   9
ENDBRANCH   1   8
BRANCH   4  18
ATOM     18  C   UNL     1      47.897   8.361  14.845  0.00  0.00    +0.000 C 
BRANCH  18  19
ATOM     19  N   UNL     1      49.236   7.849  15.146  0.00  0.00    +0.000 N 
ATOM     20  C   UNL     1      50.181   7.702  14.047  0.00  0.00    +0.000 C 
ATOM     21  C   UNL     1      49.401   7.269  16.420  0.00  0.00    +0.000 C 
ATOM     22  O   UNL     1      48.482   7.269  17.236  0.00  0.00    +0.000 OA
BRANCH  21  23
ATOM     23  C   UNL     1      50.703   6.697  16.805  0.00  0.00    +0.000 A 
ATOM     24  C   UNL     1      51.859   7.437  16.992  0.00  0.00    +0.000 A 
ATOM     25  S   UNL     1      53.198   6.506  17.490  0.00  0.00    +0.000 S 
ATOM     26  C   UNL     1      52.244   5.107  17.623  0.00  0.00    +0.000 A 
ATOM     27  N   UNL     1      52.762   3.951  18.117  0.00  0.00    +0.000 NA
ATOM     28  C   UNL     1      51.909   2.990  18.225  0.00  0.00    +0.000 A 
ATOM     29  N   UNL     1      50.591   3.069  17.837  0.00  0.00    +0.000 N 
ATOM     30  C   UNL     1      50.064   4.165  17.197  0.00  0.00    +0.000 A 
ATOM     31  O   UNL     1      48.974   4.100  16.639  0.00  0.00    +0.000 OA
ATOM     32  C   UNL     1      50.949   5.320  17.183  0.00  0.00    +0.000 A 
ATOM     33  H   UNL     1      49.999   2.252  17.872  0.00  0.00    +0.000 HD
ENDBRANCH  21  23
ENDBRANCH  18  19
ENDBRANCH   4  18
TORSDOF 7
ENDMDL
MODEL 9
REMARK VINA RESULT:    -6.480      1.860      2.189
REMARK INTER + INTRA:         -10.293
REMARK INTER:                 -10.382
REMARK INTRA:                   0.089
REMARK UNBOUND:                -1.162
REMARK  Name = 
REMARK  9 active torsions:
REMARK  status: ('A' for Active; 'I' for Inactive)
REMARK    1  A    between atoms: C_1  and  C_2
REMARK    2  A    between atoms: C_2  and  N_3
REMARK    3  A    between atoms: C_2  and  C_11
REMARK    4  A    between atoms: N_3  and  C_4
REMARK    5  A    between atoms: C_4  and  C_5
REMARK    6  A    between atoms: C_14  and  C_15
REMARK    7  A    between atoms: C_15  and  N_16
REMARK    8  A    between atoms: N_16  and  C_17
REMARK    9  A    between atoms: C_18  and  C_20
REMARK                            x       y       z     vdW  Elec       q    Type
REMARK                         _______ _______ _______ _____ _____    ______ ____
ROOT
ATOM      1  C   UNL     1      44.956   4.835  11.913  0.00  0.00    +0.000 A 
ATOM      2  C   UNL     1      45.655   4.072  12.860  0.00  0.00    +0.000 A 
ATOM      3  C   UNL     1      46.691   4.636  13.613  0.00  0.00    +0.000 A 
ATOM      4  C   UNL     1      47.058   5.980  13.442  0.00  0.00    +0.000 A 
ATOM      5  C   UNL     1      46.395   6.733  12.467  0.00  0.00    +0.000 A 
ATOM      6  C   UNL     1      45.345   6.172  11.730  0.00  0.00    +0.000 A 
ENDROOT
BRANCH   1   8
ATOM      7  C   UNL     1      43.386   2.855  11.757  0.00  0.00    +0.000 C 
ATOM      8  C   UNL     1      43.783   4.211  11.154  0.00  0.00    +0.000 C 
BRANCH   8   9
ATOM      9  N   UNL     1      44.113   4.126   9.720  0.00  0.00    +0.000 NA
ATOM     10  H   UNL     1      43.317   4.486   9.192  0.00  0.00    +0.000 HD
BRANCH   9  11
ATOM     11  C   UNL     1      44.356   2.748   9.259  0.00  0.00    +0.000 C 
BRANCH  11  12
ATOM     12  C   UNL     1      45.532   2.642   8.299  0.00  0.00    +0.000 A 
ATOM     13  C   UNL     1      46.226   1.439   8.172  0.00  0.00    +0.000 A 
ATOM     14  C   UNL     1      47.270   1.353   7.254  0.00  0.00    +0.000 A 
ATOM     15  C   UNL     1      47.590   2.462   6.483  0.00  0.00    +0.000 A 
ATOM     16  C   UNL     1      46.852   3.620   6.667  0.00  0.00    +0.000 A 
ATOM     17  N   UNL     1      45.836   3.735   7.554  0.00  0.00    +0.000 NA
ENDBRANCH  11  12
ENDBRANCH   9  11
ENDBRANCH   8   9
ENDBRANCH   1   8
BRANCH   4  18
ATOM     18  C   UNL     1      48.070   6.633  14.360  0.00  0.00    +0.000 C 
BRANCH  18  19
ATOM     19  N   UNL     1      48.535   5.857  15.512  0.00  0.00    +0.000 N 
ATOM     20  C   UNL     1      47.647   4.840  16.060  0.00  0.00    +0.000 C 
ATOM     21  C   UNL     1      49.675   6.357  16.171  0.00  0.00    +0.000 C 
ATOM     22  O   UNL     1      50.268   7.346  15.743  0.00  0.00    +0.000 OA
BRANCH  21  23
ATOM     23  C   UNL     1      50.200   5.664  17.360  0.00  0.00    +0.000 A 
ATOM     24  C   UNL     1      51.287   4.804  17.349  0.00  0.00    +0.000 A 
ATOM     25  S   UNL     1      51.696   4.195  18.889  0.00  0.00    +0.000 S 
ATOM     26  C   UNL     1      50.537   5.178  19.645  0.00  0.00    +0.000 A 
ATOM     27  N   UNL     1      50.437   5.226  21.002  0.00  0.00    +0.000 NA
ATOM     28  C   UNL     1      49.560   6.064  21.440  0.00  0.00    +0.000 A 
ATOM     29  N   UNL     1      48.740   6.827  20.640  0.00  0.00    +0.000 N 
ATOM     30  C   UNL     1      48.702   6.701  19.271  0.00  0.00    +0.000 A 
ATOM     31  O   UNL     1      47.789   7.198  18.622  0.00  0.00    +0.000 OA
ATOM     32  C   UNL     1      49.769   5.875  18.728  0.00  0.00    +0.000 A 
ATOM     33  H   UNL     1      48.018   7.400  21.050  0.00  0.00    +0.000 HD
ENDBRANCH  21  23
ENDBRANCH  18  19
ENDBRANCH   4  18
TORSDOF 7
ENDMDL
