MODEL 1
REMARK VINA RESULT:    -8.470      0.000      0.000
REMARK INTER + INTRA:         -12.429
REMARK INTER:                 -11.441
REMARK INTRA:                  -0.987
REMARK UNBOUND:                -0.987
REMARK  Name = 
REMARK  6 active torsions:
REMARK  status: ('A' for Active; 'I' for Inactive)
REMARK    1  A    between atoms: C_2  and  C_19
REMARK    2  A    between atoms: N_3  and  C_4
REMARK    3  A    between atoms: C_4  and  C_5
REMARK    4  A    between atoms: C_8  and  C_9
REMARK    5  A    between atoms: C_9  and  N_10
REMARK    6  A    between atoms: N_10  and  C_11
REMARK                            x       y       z     vdW  Elec       q    Type
REMARK                         _______ _______ _______ _____ _____    ______ ____
ROOT
ATOM      1  C   UNL     1      46.570   7.195  12.928  0.00  0.00    +0.000 C 
ENDROOT
BRANCH   1   2
ATOM      2  C   UNL     1      46.006   6.084  12.077  0.00  0.00    +0.000 A 
ATOM      3  C   UNL     1      45.441   4.945  12.667  0.00  0.00    +0.000 A 
ATOM      4  C   UNL     1      44.879   3.931  11.879  0.00  0.00    +0.000 A 
ATOM      5  C   UNL     1      44.894   4.021  10.480  0.00  0.00    +0.000 A 
ATOM      6  C   UNL     1      45.467   5.159   9.891  0.00  0.00    +0.000 A 
ATOM      7  C   UNL     1      46.029   6.171  10.680  0.00  0.00    +0.000 A 
BRANCH   5   8
ATOM      8  C   UNL     1      44.335   2.907   9.618  0.00  0.00    +0.000 C 
BRANCH   8   9
ATOM      9  N   UNL     1      45.366   1.938   9.276  0.00  0.00    +0.000 N 
ATOM     10  H   UNL     1      45.999   1.743  10.048  0.00  0.00    +0.000 HD
BRANCH   9  11
ATOM     11  C   UNL     1      46.055   2.036   8.061  0.00  0.00    +0.000 A 
ATOM     12  C   UNL     1      45.973   3.134   7.196  0.00  0.00    +0.000 A 
ATOM     13  C   UNL     1      46.659   3.152   5.974  0.00  0.00    +0.000 A 
ATOM     14  C   UNL     1      47.410   2.051   5.574  0.00  0.00    +0.000 A 
ATOM     15  C   UNL     1      47.461   0.927   6.391  0.00  0.00    +0.000 A 
ATOM     16  C   UNL     1      46.783   0.921   7.616  0.00  0.00    +0.000 A 
ENDBRANCH   9  11
ENDBRANCH   8   9
ENDBRANCH   5   8
ENDBRANCH   1   2
BRANCH   1  19
ATOM     17  O   UNL     1      49.226   6.714  13.546  0.00  0.00    +0.000 OA
ATOM     18  C   UNL     1      48.391   6.580  14.438  0.00  0.00    +0.000 C 
ATOM     19  N   UNL     1      47.043   6.724  14.206  0.00  0.00    +0.000 N 
ATOM     20  H   UNL     1      46.414   6.827  14.995  0.00  0.00    +0.000 HD
BRANCH  18  21
ATOM     21  C   UNL     1      48.787   6.219  15.806  0.00  0.00    +0.000 A 
ATOM     22  C   UNL     1      49.557   7.090  16.560  0.00  0.00    +0.000 A 
ATOM     23  S   UNL     1      49.914   6.501  18.122  0.00  0.00    +0.000 S 
ATOM     24  C   UNL     1      49.010   5.086  17.854  0.00  0.00    +0.000 A 
ATOM     25  N   UNL     1      48.871   4.145  18.828  0.00  0.00    +0.000 NA
ATOM     26  C   UNL     1      48.123   3.144  18.499  0.00  0.00    +0.000 A 
ATOM     27  N   UNL     1      47.509   2.993  17.282  0.00  0.00    +0.000 N 
ATOM     28  C   UNL     1      47.661   3.890  16.252  0.00  0.00    +0.000 A 
ATOM     29  O   UNL     1      47.165   3.684  15.152  0.00  0.00    +0.000 OA
ATOM     30  C   UNL     1      48.468   5.050  16.582  0.00  0.00    +0.000 A 
ATOM     31  H   UNL     1      46.955   2.174  17.079  0.00  0.00    +0.000 HD
ENDBRANCH  18  21
ENDBRANCH   1  19
TORSDOF 6
ENDMDL
MODEL 2
REMARK VINA RESULT:    -8.369      1.585      2.067
REMARK INTER + INTRA:         -12.292
REMARK INTER:                 -11.269
REMARK INTRA:                  -1.023
REMARK UNBOUND:                -0.987
REMARK  Name = 
REMARK  6 active torsions:
REMARK  status: ('A' for Active; 'I' for Inactive)
REMARK    1  A    between atoms: C_2  and  C_19
REMARK    2  A    between atoms: N_3  and  C_4
REMARK    3  A    between atoms: C_4  and  C_5
REMARK    4  A    between atoms: C_8  and  C_9
REMARK    5  A    between atoms: C_9  and  N_10
REMARK    6  A    between atoms: N_10  and  C_11
REMARK                            x       y       z     vdW  Elec       q    Type
REMARK                         _______ _______ _______ _____ _____    ______ ____
ROOT
ATOM      1  C   UNL     1      48.260   6.723  13.445  0.00  0.00    +0.000 C 
ENDROOT
BRANCH   1   2
ATOM      2  C   UNL     1      47.114   6.101  12.685  0.00  0.00    +0.000 A 
ATOM      3  C   UNL     1      46.474   4.951  13.166  0.00  0.00    +0.000 A 
ATOM      4  C   UNL     1      45.383   4.397  12.484  0.00  0.00    +0.000 A 
ATOM      5  C   UNL     1      44.923   4.966  11.288  0.00  0.00    +0.000 A 
ATOM      6  C   UNL     1      45.569   6.114  10.804  0.00  0.00    +0.000 A 
ATOM      7  C   UNL     1      46.661   6.666  11.487  0.00  0.00    +0.000 A 
BRANCH   5   8
ATOM      8  C   UNL     1      43.776   4.345  10.515  0.00  0.00    +0.000 C 
BRANCH   8   9
ATOM      9  N   UNL     1      44.042   4.351   9.084  0.00  0.00    +0.000 N 
ATOM     10  H   UNL     1      43.195   4.409   8.523  0.00  0.00    +0.000 HD
BRANCH   9  11
ATOM     11  C   UNL     1      44.962   3.452   8.531  0.00  0.00    +0.000 A 
ATOM     12  C   UNL     1      45.041   2.096   8.873  0.00  0.00    +0.000 A 
ATOM     13  C   UNL     1      46.012   1.257   8.310  0.00  0.00    +0.000 A 
ATOM     14  C   UNL     1      46.952   1.769   7.422  0.00  0.00    +0.000 A 
ATOM     15  C   UNL     1      46.928   3.124   7.109  0.00  0.00    +0.000 A 
ATOM     16  C   UNL     1      45.948   3.953   7.666  0.00  0.00    +0.000 A 
ENDBRANCH   9  11
ENDBRANCH   8   9
ENDBRANCH   5   8
ENDBRANCH   1   2
BRANCH   1  19
ATOM     17  O   UNL     1      50.303   6.754  15.313  0.00  0.00    +0.000 OA
ATOM     18  C   UNL     1      49.144   6.759  15.723  0.00  0.00    +0.000 C 
ATOM     19  N   UNL     1      48.068   6.669  14.873  0.00  0.00    +0.000 N 
ATOM     20  H   UNL     1      47.142   6.899  15.220  0.00  0.00    +0.000 HD
BRANCH  18  21
ATOM     21  C   UNL     1      48.843   6.825  17.159  0.00  0.00    +0.000 A 
ATOM     22  C   UNL     1      48.411   8.014  17.725  0.00  0.00    +0.000 A 
ATOM     23  S   UNL     1      48.108   7.897  19.401  0.00  0.00    +0.000 S 
ATOM     24  C   UNL     1      48.499   6.242  19.411  0.00  0.00    +0.000 A 
ATOM     25  N   UNL     1      48.413   5.506  20.552  0.00  0.00    +0.000 NA
ATOM     26  C   UNL     1      48.700   4.254  20.402  0.00  0.00    +0.000 A 
ATOM     27  N   UNL     1      49.074   3.675  19.217  0.00  0.00    +0.000 N 
ATOM     28  C   UNL     1      49.224   4.387  18.052  0.00  0.00    +0.000 A 
ATOM     29  O   UNL     1      49.638   3.853  17.030  0.00  0.00    +0.000 OA
ATOM     30  C   UNL     1      48.883   5.793  18.160  0.00  0.00    +0.000 A 
ATOM     31  H   UNL     1      49.308   2.694  19.171  0.00  0.00    +0.000 HD
ENDBRANCH  18  21
ENDBRANCH   1  19
TORSDOF 6
ENDMDL
MODEL 3
REMARK VINA RESULT:    -8.131      3.137      5.361
REMARK INTER + INTRA:         -11.970
REMARK INTER:                 -10.963
REMARK INTRA:                  -1.007
REMARK UNBOUND:                -0.987
REMARK  Name = 
REMARK  6 active torsions:
REMARK  status: ('A' for Active; 'I' for Inactive)
REMARK    1  A    between atoms: C_2  and  C_19
REMARK    2  A    between atoms: N_3  and  C_4
REMARK    3  A    between atoms: C_4  and  C_5
REMARK    4  A    between atoms: C_8  and  C_9
REMARK    5  A    between atoms: C_9  and  N_10
REMARK    6  A    between atoms: N_10  and  C_11
REMARK                            x       y       z     vdW  Elec       q    Type
REMARK                         _______ _______ _______ _____ _____    ______ ____
ROOT
ATOM      1  C   UNL     1      44.484   3.744  10.063  0.00  0.00    +0.000 C 
ENDROOT
BRANCH   1   2
ATOM      2  C   UNL     1      45.320   3.155   8.953  0.00  0.00    +0.000 A 
ATOM      3  C   UNL     1      45.961   3.984   8.022  0.00  0.00    +0.000 A 
ATOM      4  C   UNL     1      46.772   3.441   7.016  0.00  0.00    +0.000 A 
ATOM      5  C   UNL     1      46.938   2.054   6.901  0.00  0.00    +0.000 A 
ATOM      6  C   UNL     1      46.290   1.226   7.830  0.00  0.00    +0.000 A 
ATOM      7  C   UNL     1      45.479   1.769   8.836  0.00  0.00    +0.000 A 
BRANCH   5   8
ATOM      8  C   UNL     1      47.771   1.454   5.786  0.00  0.00    +0.000 C 
BRANCH   8   9
ATOM      9  N   UNL     1      47.187   1.735   4.483  0.00  0.00    +0.000 N 
ATOM     10  H   UNL     1      46.576   2.548   4.488  0.00  0.00    +0.000 HD
BRANCH   9  11
ATOM     11  C   UNL     1      46.654   0.698   3.708  0.00  0.00    +0.000 A 
ATOM     12  C   UNL     1      45.644   0.869   2.752  0.00  0.00    +0.000 A 
ATOM     13  C   UNL     1      45.126  -0.219   2.037  0.00  0.00    +0.000 A 
ATOM     14  C   UNL     1      45.580  -1.509   2.294  0.00  0.00    +0.000 A 
ATOM     15  C   UNL     1      46.543  -1.709   3.277  0.00  0.00    +0.000 A 
ATOM     16  C   UNL     1      47.064  -0.617   3.979  0.00  0.00    +0.000 A 
ENDBRANCH   9  11
ENDBRANCH   8   9
ENDBRANCH   5   8
ENDBRANCH   1   2
BRANCH   1  19
ATOM     17  O   UNL     1      42.961   5.740  11.228  0.00  0.00    +0.000 OA
ATOM     18  C   UNL     1      44.178   5.904  11.164  0.00  0.00    +0.000 C 
ATOM     19  N   UNL     1      45.004   5.002  10.537  0.00  0.00    +0.000 N 
ATOM     20  H   UNL     1      46.005   5.054  10.697  0.00  0.00    +0.000 HD
BRANCH  18  21
ATOM     21  C   UNL     1      44.818   7.099  11.728  0.00  0.00    +0.000 A 
ATOM     22  C   UNL     1      44.344   8.361  11.403  0.00  0.00    +0.000 A 
ATOM     23  S   UNL     1      45.210   9.625  12.155  0.00  0.00    +0.000 S 
ATOM     24  C   UNL     1      46.215   8.523  12.973  0.00  0.00    +0.000 A 
ATOM     25  N   UNL     1      47.177   8.955  13.833  0.00  0.00    +0.000 NA
ATOM     26  C   UNL     1      47.836   8.006  14.415  0.00  0.00    +0.000 A 
ATOM     27  N   UNL     1      47.625   6.667  14.208  0.00  0.00    +0.000 N 
ATOM     28  C   UNL     1      46.701   6.186  13.313  0.00  0.00    +0.000 A 
ATOM     29  O   UNL     1      46.594   4.986  13.092  0.00  0.00    +0.000 OA
ATOM     30  C   UNL     1      45.912   7.212  12.655  0.00  0.00    +0.000 A 
ATOM     31  H   UNL     1      48.190   5.975  14.677  0.00  0.00    +0.000 HD
ENDBRANCH  18  21
ENDBRANCH   1  19
TORSDOF 6
ENDMDL
MODEL 4
REMARK VINA RESULT:    -8.101      2.109      2.830
REMARK INTER + INTRA:         -11.929
REMARK INTER:                 -10.895
REMARK INTRA:                  -1.034
REMARK UNBOUND:                -0.987
REMARK  Name = 
REMARK  6 active torsions:
REMARK  status: ('A' for Active; 'I' for Inactive)
REMARK    1  A    between atoms: C_2  and  C_19
REMARK    2  A    between atoms: N_3  and  C_4
REMARK    3  A    between atoms: C_4  and  C_5
REMARK    4  A    between atoms: C_8  and  C_9
REMARK    5  A    between atoms: C_9  and  N_10
REMARK    6  A    between atoms: N_10  and  C_11
REMARK                            x       y       z     vdW  Elec       q    Type
REMARK                         _______ _______ _______ _____ _____    ______ ____
ROOT
ATOM      1  C   UNL     1      47.985   6.571  13.695  0.00  0.00    +0.000 C 
ENDROOT
BRANCH   1   2
ATOM      2  C   UNL     1      46.899   5.994  12.820  0.00  0.00    +0.000 A 
ATOM      3  C   UNL     1      46.305   4.763  13.132  0.00  0.00    +0.000 A 
ATOM      4  C   UNL     1      45.267   4.246  12.344  0.00  0.00    +0.000 A 
ATOM      5  C   UNL     1      44.819   4.936  11.209  0.00  0.00    +0.000 A 
ATOM      6  C   UNL     1      45.419   6.164  10.895  0.00  0.00    +0.000 A 
ATOM      7  C   UNL     1      46.456   6.680  11.682  0.00  0.00    +0.000 A 
BRANCH   5   8
ATOM      8  C   UNL     1      43.733   4.361  10.322  0.00  0.00    +0.000 C 
BRANCH   8   9
ATOM      9  N   UNL     1      44.117   4.412   8.919  0.00  0.00    +0.000 N 
ATOM     10  H   UNL     1      43.323   4.520   8.292  0.00  0.00    +0.000 HD
BRANCH   9  11
ATOM     11  C   UNL     1      45.053   3.505   8.407  0.00  0.00    +0.000 A 
ATOM     12  C   UNL     1      45.117   2.153   8.768  0.00  0.00    +0.000 A 
ATOM     13  C   UNL     1      46.105   1.306   8.248  0.00  0.00    +0.000 A 
ATOM     14  C   UNL     1      47.076   1.806   7.385  0.00  0.00    +0.000 A 
ATOM     15  C   UNL     1      47.065   3.157   7.056  0.00  0.00    +0.000 A 
ATOM     16  C   UNL     1      46.068   3.994   7.570  0.00  0.00    +0.000 A 
ENDBRANCH   9  11
ENDBRANCH   8   9
ENDBRANCH   5   8
ENDBRANCH   1   2
BRANCH   1  19
ATOM     17  O   UNL     1      50.069   6.625  15.516  0.00  0.00    +0.000 OA
ATOM     18  C   UNL     1      48.968   6.243  15.908  0.00  0.00    +0.000 C 
ATOM     19  N   UNL     1      47.895   6.112  15.059  0.00  0.00    +0.000 N 
ATOM     20  H   UNL     1      46.964   6.014  15.449  0.00  0.00    +0.000 HD
BRANCH  18  21
ATOM     21  C   UNL     1      48.745   5.868  17.310  0.00  0.00    +0.000 A 
ATOM     22  C   UNL     1      48.977   4.567  17.727  0.00  0.00    +0.000 A 
ATOM     23  S   UNL     1      48.668   4.322  19.388  0.00  0.00    +0.000 S 
ATOM     24  C   UNL     1      48.260   5.958  19.609  0.00  0.00    +0.000 A 
ATOM     25  N   UNL     1      47.921   6.438  20.836  0.00  0.00    +0.000 NA
ATOM     26  C   UNL     1      47.677   7.708  20.863  0.00  0.00    +0.000 A 
ATOM     27  N   UNL     1      47.731   8.537  19.773  0.00  0.00    +0.000 N 
ATOM     28  C   UNL     1      48.018   8.089  18.506  0.00  0.00    +0.000 A 
ATOM     29  O   UNL     1      47.979   8.842  17.541  0.00  0.00    +0.000 OA
ATOM     30  C   UNL     1      48.332   6.674  18.427  0.00  0.00    +0.000 A 
ATOM     31  H   UNL     1      47.507   9.518  19.855  0.00  0.00    +0.000 HD
ENDBRANCH  18  21
ENDBRANCH   1  19
TORSDOF 6
ENDMDL
MODEL 5
REMARK VINA RESULT:    -7.489      3.445      5.575
REMARK INTER + INTRA:         -11.104
REMARK INTER:                 -10.345
REMARK INTRA:                  -0.759
REMARK UNBOUND:                -0.987
REMARK  Name = 
REMARK  6 active torsions:
REMARK  status: ('A' for Active; 'I' for Inactive)
REMARK    1  A    between atoms: C_2  and  C_19
REMARK    2  A    between atoms: N_3  and  C_4
REMARK    3  A    between atoms: C_4  and  C_5
REMARK    4  A    between atoms: C_8  and  C_9
REMARK    5  A    between atoms: C_9  and  N_10
REMARK    6  A    between atoms: N_10  and  C_11
REMARK                            x       y       z     vdW  Elec       q    Type
REMARK                         _______ _______ _______ _____ _____    ______ ____
ROOT
ATOM      1  C   UNL     1      47.846   6.666  13.801  0.00  0.00    +0.000 C 
ENDROOT
BRANCH   1   2
ATOM      2  C   UNL     1      46.894   5.737  13.090  0.00  0.00    +0.000 A 
ATOM      3  C   UNL     1      46.754   4.403  13.499  0.00  0.00    +0.000 A 
ATOM      4  C   UNL     1      45.840   3.549  12.866  0.00  0.00    +0.000 A 
ATOM      5  C   UNL     1      45.062   4.004  11.792  0.00  0.00    +0.000 A 
ATOM      6  C   UNL     1      45.208   5.337  11.380  0.00  0.00    +0.000 A 
ATOM      7  C   UNL     1      46.123   6.189  12.012  0.00  0.00    +0.000 A 
BRANCH   5   8
ATOM      8  C   UNL     1      44.108   3.076  11.068  0.00  0.00    +0.000 C 
BRANCH   8   9
ATOM      9  N   UNL     1      44.022   3.407   9.653  0.00  0.00    +0.000 N 
ATOM     10  H   UNL     1      43.093   3.260   9.266  0.00  0.00    +0.000 HD
BRANCH   9  11
ATOM     11  C   UNL     1      45.019   2.985   8.765  0.00  0.00    +0.000 A 
ATOM     12  C   UNL     1      45.555   1.691   8.740  0.00  0.00    +0.000 A 
ATOM     13  C   UNL     1      46.581   1.345   7.850  0.00  0.00    +0.000 A 
ATOM     14  C   UNL     1      47.121   2.299   6.994  0.00  0.00    +0.000 A 
ATOM     15  C   UNL     1      46.642   3.604   7.040  0.00  0.00    +0.000 A 
ATOM     16  C   UNL     1      45.610   3.941   7.923  0.00  0.00    +0.000 A 
ENDBRANCH   9  11
ENDBRANCH   8   9
ENDBRANCH   5   8
ENDBRANCH   1   2
BRANCH   1  19
ATOM     17  O   UNL     1      49.156   7.783  11.633  0.00  0.00    +0.000 OA
ATOM     18  C   UNL     1      48.345   8.479  12.240  0.00  0.00    +0.000 C 
ATOM     19  N   UNL     1      47.703   8.035  13.372  0.00  0.00    +0.000 N 
ATOM     20  H   UNL     1      46.891   8.540  13.711  0.00  0.00    +0.000 HD
BRANCH  18  21
ATOM     21  C   UNL     1      48.040   9.849  11.807  0.00  0.00    +0.000 A 
ATOM     22  C   UNL     1      49.047  10.662  11.310  0.00  0.00    +0.000 A 
ATOM     23  S   UNL     1      48.503  12.215  10.855  0.00  0.00    +0.000 S 
ATOM     24  C   UNL     1      46.897  11.832  11.266  0.00  0.00    +0.000 A 
ATOM     25  N   UNL     1      45.892  12.730  11.084  0.00  0.00    +0.000 NA
ATOM     26  C   UNL     1      44.719  12.288  11.400  0.00  0.00    +0.000 A 
ATOM     27  N   UNL     1      44.461  11.034  11.888  0.00  0.00    +0.000 N 
ATOM     28  C   UNL     1      45.449  10.111  12.136  0.00  0.00    +0.000 A 
ATOM     29  O   UNL     1      45.194   9.028  12.649  0.00  0.00    +0.000 OA
ATOM     30  C   UNL     1      46.783  10.548  11.769  0.00  0.00    +0.000 A 
ATOM     31  H   UNL     1      43.523  10.756  12.138  0.00  0.00    +0.000 HD
ENDBRANCH  18  21
ENDBRANCH   1  19
TORSDOF 6
ENDMDL
MODEL 6
REMARK VINA RESULT:    -7.325      2.414      4.085
REMARK INTER + INTRA:         -10.881
REMARK INTER:                  -9.689
REMARK INTRA:                  -1.192
REMARK UNBOUND:                -0.987
REMARK  Name = 
REMARK  6 active torsions:
REMARK  status: ('A' for Active; 'I' for Inactive)
REMARK    1  A    between atoms: C_2  and  C_19
REMARK    2  A    between atoms: N_3  and  C_4
REMARK    3  A    between atoms: C_4  and  C_5
REMARK    4  A    between atoms: C_8  and  C_9
REMARK    5  A    between atoms: C_9  and  N_10
REMARK    6  A    between atoms: N_10  and  C_11
REMARK                            x       y       z     vdW  Elec       q    Type
REMARK                         _______ _______ _______ _____ _____    ______ ____
ROOT
ATOM      1  C   UNL     1      47.672   4.934  14.543  0.00  0.00    +0.000 C 
ENDROOT
BRANCH   1   2
ATOM      2  C   UNL     1      46.713   4.824  13.384  0.00  0.00    +0.000 A 
ATOM      3  C   UNL     1      46.570   5.877  12.469  0.00  0.00    +0.000 A 
ATOM      4  C   UNL     1      45.711   5.760  11.368  0.00  0.00    +0.000 A 
ATOM      5  C   UNL     1      44.953   4.597  11.172  0.00  0.00    +0.000 A 
ATOM      6  C   UNL     1      45.091   3.548  12.093  0.00  0.00    +0.000 A 
ATOM      7  C   UNL     1      45.950   3.666  13.194  0.00  0.00    +0.000 A 
BRANCH   5   8
ATOM      8  C   UNL     1      43.982   4.481  10.014  0.00  0.00    +0.000 C 
BRANCH   8   9
ATOM      9  N   UNL     1      44.672   4.587   8.736  0.00  0.00    +0.000 N 
ATOM     10  H   UNL     1      44.091   4.986   8.002  0.00  0.00    +0.000 HD
BRANCH   9  11
ATOM     11  C   UNL     1      45.442   3.520   8.257  0.00  0.00    +0.000 A 
ATOM     12  C   UNL     1      45.287   2.190   8.668  0.00  0.00    +0.000 A 
ATOM     13  C   UNL     1      46.118   1.174   8.177  0.00  0.00    +0.000 A 
ATOM     14  C   UNL     1      47.149   1.475   7.293  0.00  0.00    +0.000 A 
ATOM     15  C   UNL     1      47.356   2.796   6.913  0.00  0.00    +0.000 A 
ATOM     16  C   UNL     1      46.515   3.805   7.398  0.00  0.00    +0.000 A 
ENDBRANCH   9  11
ENDBRANCH   8   9
ENDBRANCH   5   8
ENDBRANCH   1   2
BRANCH   1  19
ATOM     17  O   UNL     1      49.688   5.904  16.175  0.00  0.00    +0.000 OA
ATOM     18  C   UNL     1      48.784   6.673  15.852  0.00  0.00    +0.000 C 
ATOM     19  N   UNL     1      47.704   6.261  15.108  0.00  0.00    +0.000 N 
ATOM     20  H   UNL     1      47.105   6.957  14.678  0.00  0.00    +0.000 HD
BRANCH  18  21
ATOM     21  C   UNL     1      48.790   8.078  16.278  0.00  0.00    +0.000 A 
ATOM     22  C   UNL     1      48.746   8.397  17.626  0.00  0.00    +0.000 A 
ATOM     23  S   UNL     1      48.764  10.078  17.927  0.00  0.00    +0.000 S 
ATOM     24  C   UNL     1      48.879  10.428  16.267  0.00  0.00    +0.000 A 
ATOM     25  N   UNL     1      48.970  11.712  15.824  0.00  0.00    +0.000 NA
ATOM     26  C   UNL     1      49.094  11.826  14.543  0.00  0.00    +0.000 A 
ATOM     27  N   UNL     1      49.125  10.775  13.663  0.00  0.00    +0.000 N 
ATOM     28  C   UNL     1      48.985   9.466  14.059  0.00  0.00    +0.000 A 
ATOM     29  O   UNL     1      48.936   8.556  13.240  0.00  0.00    +0.000 OA
ATOM     30  C   UNL     1      48.875   9.281  15.494  0.00  0.00    +0.000 A 
ATOM     31  H   UNL     1      49.201  10.932  12.669  0.00  0.00    +0.000 HD
ENDBRANCH  18  21
ENDBRANCH   1  19
TORSDOF 6
ENDMDL
MODEL 7
REMARK VINA RESULT:    -7.197      1.790      2.484
REMARK INTER + INTRA:         -10.708
REMARK INTER:                  -9.385
REMARK INTRA:                  -1.323
REMARK UNBOUND:                -0.987
REMARK  Name = 
REMARK  6 active torsions:
REMARK  status: ('A' for Active; 'I' for Inactive)
REMARK    1  A    between atoms: C_2  and  C_19
REMARK    2  A    between atoms: N_3  and  C_4
REMARK    3  A    between atoms: C_4  and  C_5
REMARK    4  A    between atoms: C_8  and  C_9
REMARK    5  A    between atoms: C_9  and  N_10
REMARK    6  A    between atoms: N_10  and  C_11
REMARK                            x       y       z     vdW  Elec       q    Type
REMARK                         _______ _______ _______ _____ _____    ______ ____
ROOT
ATOM      1  C   UNL     1      48.399   8.112  13.095  0.00  0.00    +0.000 C 
ENDROOT
BRANCH   1   2
ATOM      2  C   UNL     1      47.214   7.309  12.616  0.00  0.00    +0.000 A 
ATOM      3  C   UNL     1      47.171   5.919  12.793  0.00  0.00    +0.000 A 
ATOM      4  C   UNL     1      46.053   5.177  12.386  0.00  0.00    +0.000 A 
ATOM      5  C   UNL     1      44.964   5.806  11.767  0.00  0.00    +0.000 A 
ATOM      6  C   UNL     1      45.013   7.197  11.584  0.00  0.00    +0.000 A 
ATOM      7  C   UNL     1      46.130   7.937  11.991  0.00  0.00    +0.000 A 
BRANCH   5   8
ATOM      8  C   UNL     1      43.773   5.007  11.277  0.00  0.00    +0.000 C 
BRANCH   8   9
ATOM      9  N   UNL     1      43.761   4.918   9.824  0.00  0.00    +0.000 N 
ATOM     10  H   UNL     1      42.822   4.949   9.432  0.00  0.00    +0.000 HD
BRANCH   9  11
ATOM     11  C   UNL     1      44.560   3.976   9.165  0.00  0.00    +0.000 A 
ATOM     12  C   UNL     1      44.540   2.601   9.433  0.00  0.00    +0.000 A 
ATOM     13  C   UNL     1      45.395   1.716   8.764  0.00  0.00    +0.000 A 
ATOM     14  C   UNL     1      46.318   2.194   7.840  0.00  0.00    +0.000 A 
ATOM     15  C   UNL     1      46.394   3.561   7.597  0.00  0.00    +0.000 A 
ATOM     16  C   UNL     1      45.529   4.439   8.261  0.00  0.00    +0.000 A 
ENDBRANCH   9  11
ENDBRANCH   8   9
ENDBRANCH   5   8
ENDBRANCH   1   2
BRANCH   1  19
ATOM     17  O   UNL     1      49.533   8.984  15.465  0.00  0.00    +0.000 OA
ATOM     18  C   UNL     1      49.757   7.829  15.107  0.00  0.00    +0.000 C 
ATOM     19  N   UNL     1      49.299   7.333  13.909  0.00  0.00    +0.000 N 
ATOM     20  H   UNL     1      49.309   6.331  13.752  0.00  0.00    +0.000 HD
BRANCH  18  21
ATOM     21  C   UNL     1      50.565   6.918  15.928  0.00  0.00    +0.000 A 
ATOM     22  C   UNL     1      51.911   7.174  16.133  0.00  0.00    +0.000 A 
ATOM     23  S   UNL     1      52.682   6.010  17.116  0.00  0.00    +0.000 S 
ATOM     24  C   UNL     1      51.228   5.154  17.336  0.00  0.00    +0.000 A 
ATOM     25  N   UNL     1      51.178   4.044  18.120  0.00  0.00    +0.000 NA
ATOM     26  C   UNL     1      50.000   3.522  18.230  0.00  0.00    +0.000 A 
ATOM     27  N   UNL     1      48.872   4.004  17.620  0.00  0.00    +0.000 N 
ATOM     28  C   UNL     1      48.883   5.091  16.779  0.00  0.00    +0.000 A 
ATOM     29  O   UNL     1      47.872   5.446  16.186  0.00  0.00    +0.000 OA
ATOM     30  C   UNL     1      50.177   5.733  16.646  0.00  0.00    +0.000 A 
ATOM     31  H   UNL     1      47.984   3.536  17.728  0.00  0.00    +0.000 HD
ENDBRANCH  18  21
ENDBRANCH   1  19
TORSDOF 6
ENDMDL
MODEL 8
REMARK VINA RESULT:    -7.128      2.495      3.271
REMARK INTER + INTRA:         -10.616
REMARK INTER:                  -9.564
REMARK INTRA:                  -1.051
REMARK UNBOUND:                -0.987
REMARK  Name = 
REMARK  6 active torsions:
REMARK  status: ('A' for Active; 'I' for Inactive)
REMARK    1  A    between atoms: C_2  and  C_19
REMARK    2  A    between atoms: N_3  and  C_4
REMARK    3  A    between atoms: C_4  and  C_5
REMARK    4  A    between atoms: C_8  and  C_9
REMARK    5  A    between atoms: C_9  and  N_10
REMARK    6  A    between atoms: N_10  and  C_11
REMARK                            x       y       z     vdW  Elec       q    Type
REMARK                         _______ _______ _______ _____ _____    ______ ____
ROOT
ATOM      1  C   UNL     1      47.656   4.373  15.394  0.00  0.00    +0.000 C 
ENDROOT
BRANCH   1   2
ATOM      2  C   UNL     1      46.931   4.745  14.123  0.00  0.00    +0.000 A 
ATOM      3  C   UNL     1      47.259   5.917  13.427  0.00  0.00    +0.000 A 
ATOM      4  C   UNL     1      46.616   6.243  12.225  0.00  0.00    +0.000 A 
ATOM      5  C   UNL     1      45.610   5.416  11.705  0.00  0.00    +0.000 A 
ATOM      6  C   UNL     1      45.279   4.247  12.407  0.00  0.00    +0.000 A 
ATOM      7  C   UNL     1      45.921   3.923  13.609  0.00  0.00    +0.000 A 
BRANCH   5   8
ATOM      8  C   UNL     1      44.873   5.785  10.433  0.00  0.00    +0.000 C 
BRANCH   8   9
ATOM      9  N   UNL     1      44.331   4.604   9.778  0.00  0.00    +0.000 N 
ATOM     10  H   UNL     1      43.731   4.052  10.387  0.00  0.00    +0.000 HD
BRANCH   9  11
ATOM     11  C   UNL     1      45.155   3.789   8.993  0.00  0.00    +0.000 A 
ATOM     12  C   UNL     1      45.966   4.259   7.952  0.00  0.00    +0.000 A 
ATOM     13  C   UNL     1      46.738   3.383   7.178  0.00  0.00    +0.000 A 
ATOM     14  C   UNL     1      46.684   2.011   7.403  0.00  0.00    +0.000 A 
ATOM     15  C   UNL     1      45.844   1.517   8.395  0.00  0.00    +0.000 A 
ATOM     16  C   UNL     1      45.084   2.399   9.172  0.00  0.00    +0.000 A 
ENDBRANCH   9  11
ENDBRANCH   8   9
ENDBRANCH   5   8
ENDBRANCH   1   2
BRANCH   1  19
ATOM     17  O   UNL     1      49.827   5.910  16.161  0.00  0.00    +0.000 OA
ATOM     18  C   UNL     1      48.729   6.177  16.646  0.00  0.00    +0.000 C 
ATOM     19  N   UNL     1      47.610   5.423  16.381  0.00  0.00    +0.000 N 
ATOM     20  H   UNL     1      46.696   5.796  16.612  0.00  0.00    +0.000 HD
BRANCH  18  21
ATOM     21  C   UNL     1      48.557   7.305  17.570  0.00  0.00    +0.000 A 
ATOM     22  C   UNL     1      48.710   8.606  17.117  0.00  0.00    +0.000 A 
ATOM     23  S   UNL     1      48.468   9.781  18.332  0.00  0.00    +0.000 S 
ATOM     24  C   UNL     1      48.105   8.587  19.489  0.00  0.00    +0.000 A 
ATOM     25  N   UNL     1      47.766   8.924  20.763  0.00  0.00    +0.000 NA
ATOM     26  C   UNL     1      47.475   7.917  21.520  0.00  0.00    +0.000 A 
ATOM     27  N   UNL     1      47.504   6.606  21.123  0.00  0.00    +0.000 N 
ATOM     28  C   UNL     1      47.889   6.215  19.863  0.00  0.00    +0.000 A 
ATOM     29  O   UNL     1      47.982   5.031  19.565  0.00  0.00    +0.000 OA
ATOM     30  C   UNL     1      48.196   7.311  18.962  0.00  0.00    +0.000 A 
ATOM     31  H   UNL     1      47.288   5.862  21.770  0.00  0.00    +0.000 HD
ENDBRANCH  18  21
ENDBRANCH   1  19
TORSDOF 6
ENDMDL
MODEL 9
REMARK VINA RESULT:    -7.079      4.178      5.921
REMARK INTER + INTRA:         -10.549
REMARK INTER:                  -9.829
REMARK INTRA:                  -0.720
REMARK UNBOUND:                -0.987
REMARK  Name = 
REMARK  6 active torsions:
REMARK  status: ('A' for Active; 'I' for Inactive)
REMARK    1  A    between atoms: C_2  and  C_19
REMARK    2  A    between atoms: N_3  and  C_4
REMARK    3  A    between atoms: C_4  and  C_5
REMARK    4  A    between atoms: C_8  and  C_9
REMARK    5  A    between atoms: C_9  and  N_10
REMARK    6  A    between atoms: N_10  and  C_11
REMARK                            x       y       z     vdW  Elec       q    Type
REMARK                         _______ _______ _______ _____ _____    ______ ____
ROOT
ATOM      1  C   UNL     1      46.447   4.117  14.321  0.00  0.00    +0.000 C 
ENDROOT
BRANCH   1   2
ATOM      2  C   UNL     1      45.977   5.293  13.500  0.00  0.00    +0.000 A 
ATOM      3  C   UNL     1      44.706   5.293  12.909  0.00  0.00    +0.000 A 
ATOM      4  C   UNL     1      44.252   6.402  12.182  0.00  0.00    +0.000 A 
ATOM      5  C   UNL     1      45.071   7.526  12.006  0.00  0.00    +0.000 A 
ATOM      6  C   UNL     1      46.346   7.521  12.592  0.00  0.00    +0.000 A 
ATOM      7  C   UNL     1      46.799   6.412  13.319  0.00  0.00    +0.000 A 
BRANCH   5   8
ATOM      8  C   UNL     1      44.610   8.709  11.178  0.00  0.00    +0.000 C 
BRANCH   8   9
ATOM      9  N   UNL     1      43.161   8.728  11.048  0.00  0.00    +0.000 N 
ATOM     10  H   UNL     1      42.784   7.861  10.672  0.00  0.00    +0.000 HD
BRANCH   9  11
ATOM     11  C   UNL     1      42.513   9.845  10.508  0.00  0.00    +0.000 A 
ATOM     12  C   UNL     1      41.191  10.206  10.799  0.00  0.00    +0.000 A 
ATOM     13  C   UNL     1      40.588  11.316  10.192  0.00  0.00    +0.000 A 
ATOM     14  C   UNL     1      41.284  12.066   9.249  0.00  0.00    +0.000 A 
ATOM     15  C   UNL     1      42.579  11.694   8.904  0.00  0.00    +0.000 A 
ATOM     16  C   UNL     1      43.179  10.591   9.522  0.00  0.00    +0.000 A 
ENDBRANCH   9  11
ENDBRANCH   8   9
ENDBRANCH   5   8
ENDBRANCH   1   2
BRANCH   1  19
ATOM     17  O   UNL     1      46.611   3.384  16.985  0.00  0.00    +0.000 OA
ATOM     18  C   UNL     1      47.560   3.990  16.493  0.00  0.00    +0.000 C 
ATOM     19  N   UNL     1      47.537   4.459  15.201  0.00  0.00    +0.000 N 
ATOM     20  H   UNL     1      48.405   4.750  14.764  0.00  0.00    +0.000 HD
BRANCH  18  21
ATOM     21  C   UNL     1      48.769   4.281  17.275  0.00  0.00    +0.000 A 
ATOM     22  C   UNL     1      48.848   5.443  18.027  0.00  0.00    +0.000 A 
ATOM     23  S   UNL     1      50.324   5.606  18.869  0.00  0.00    +0.000 S 
ATOM     24  C   UNL     1      50.883   4.107  18.291  0.00  0.00    +0.000 A 
ATOM     25  N   UNL     1      52.094   3.616  18.667  0.00  0.00    +0.000 NA
ATOM     26  C   UNL     1      52.369   2.448  18.185  0.00  0.00    +0.000 A 
ATOM     27  N   UNL     1      51.547   1.732  17.354  0.00  0.00    +0.000 N 
ATOM     28  C   UNL     1      50.338   2.209  16.907  0.00  0.00    +0.000 A 
ATOM     29  O   UNL     1      49.665   1.579  16.101  0.00  0.00    +0.000 OA
ATOM     30  C   UNL     1      49.968   3.505  17.446  0.00  0.00    +0.000 A 
ATOM     31  H   UNL     1      51.830   0.834  16.992  0.00  0.00    +0.000 HD
ENDBRANCH  18  21
ENDBRANCH   1  19
TORSDOF 6
ENDMDL
