MODEL 1
REMARK VINA RESULT:    -6.675      0.000      0.000
REMARK INTER + INTRA:         -11.132
REMARK INTER:                  -9.796
REMARK INTRA:                  -1.335
REMARK UNBOUND:                -1.335
REMARK  Name = 
REMARK  9 active torsions:
REMARK  status: ('A' for Active; 'I' for Inactive)
REMARK    1  A    between atoms: C_1  and  O_2
REMARK    2  A    between atoms: O_2  and  C_3
REMARK    3  A    between atoms: C_3  and  C_4
REMARK    4  A    between atoms: C_4  and  N_5
REMARK    5  A    between atoms: N_5  and  C_6
REMARK    6  A    between atoms: C_6  and  C_7
REMARK    7  A    between atoms: C_10  and  C_11
REMARK    8  A    between atoms: C_11  and  N_12
REMARK    9  A    between atoms: C_20  and  C_22
REMARK                            x       y       z     vdW  Elec       q    Type
REMARK                         _______ _______ _______ _____ _____    ______ ____
ROOT
ATOM      1  N   UNL     1      46.244   7.251  12.356  0.00  0.00    +0.000 N 
ATOM      2  C   UNL     1      45.010   6.880  11.781  0.00  0.00    +0.000 C 
ATOM      3  O   UNL     1      44.239   7.711  11.311  0.00  0.00    +0.000 OA
ENDROOT
BRANCH   2   4
ATOM      4  C   UNL     1      44.610   5.463  11.746  0.00  0.00    +0.000 A 
ATOM      5  C   UNL     1      43.887   4.812  12.732  0.00  0.00    +0.000 A 
ATOM      6  S   UNL     1      43.511   3.191  12.344  0.00  0.00    +0.000 S 
ATOM      7  C   UNL     1      44.178   3.353  10.788  0.00  0.00    +0.000 A 
ATOM      8  N   UNL     1      44.087   2.346   9.878  0.00  0.00    +0.000 NA
ATOM      9  C   UNL     1      44.568   2.641   8.715  0.00  0.00    +0.000 A 
ATOM     10  N   UNL     1      45.172   3.830   8.397  0.00  0.00    +0.000 N 
ATOM     11  C   UNL     1      45.423   4.816   9.328  0.00  0.00    +0.000 A 
ATOM     12  O   UNL     1      46.190   5.737   9.074  0.00  0.00    +0.000 OA
ATOM     13  C   UNL     1      44.773   4.586  10.609  0.00  0.00    +0.000 A 
ATOM     14  H   UNL     1      45.596   3.968   7.492  0.00  0.00    +0.000 HD
ENDBRANCH   2   4
BRANCH   1  15
ATOM     15  C   UNL     1      46.615   8.686  12.305  0.00  0.00    +0.000 C 
BRANCH  15  16
ATOM     16  C   UNL     1      48.053   9.087  11.917  0.00  0.00    +0.000 C 
BRANCH  16  18
ATOM     17  C   UNL     1      46.842  11.059  11.542  0.00  0.00    +0.000 C 
ATOM     18  O   UNL     1      48.119  10.432  11.428  0.00  0.00    +0.000 OA
ENDBRANCH  16  18
ENDBRANCH  15  16
ENDBRANCH   1  15
BRANCH   1  19
ATOM     19  C   UNL     1      47.317   6.249  12.537  0.00  0.00    +0.000 C 
BRANCH  19  20
ATOM     20  C   UNL     1      47.660   5.842  13.953  0.00  0.00    +0.000 A 
ATOM     21  C   UNL     1      47.045   4.717  14.522  0.00  0.00    +0.000 A 
ATOM     22  C   UNL     1      47.219   4.420  15.872  0.00  0.00    +0.000 A 
ATOM     23  C   UNL     1      48.031   5.226  16.681  0.00  0.00    +0.000 A 
ATOM     24  C   UNL     1      48.710   6.305  16.085  0.00  0.00    +0.000 A 
ATOM     25  C   UNL     1      48.522   6.615  14.739  0.00  0.00    +0.000 A 
BRANCH  23  26
ATOM     26  C   UNL     1      48.073   5.009  18.177  0.00  0.00    +0.000 C 
BRANCH  26  27
ATOM     27  N   UNL     1      49.059   4.096  18.734  0.00  0.00    +0.000 NA
ATOM     28  C   UNL     1      50.417   4.615  18.894  0.00  0.00    +0.000 C 
ATOM     29  C   UNL     1      51.365   4.294  17.728  0.00  0.00    +0.000 C 
ATOM     30  O   UNL     1      51.381   2.889  17.443  0.00  0.00    +0.000 OA
ATOM     31  C   UNL     1      50.066   2.433  17.105  0.00  0.00    +0.000 C 
ATOM     32  C   UNL     1      49.055   2.722  18.225  0.00  0.00    +0.000 C 
ENDBRANCH  26  27
ENDBRANCH  23  26
ENDBRANCH  19  20
ENDBRANCH   1  19
TORSDOF 8
ENDMDL
MODEL 2
REMARK VINA RESULT:    -6.630      1.554      2.066
REMARK INTER + INTRA:         -11.066
REMARK INTER:                  -9.554
REMARK INTRA:                  -1.511
REMARK UNBOUND:                -1.335
REMARK  Name = 
REMARK  9 active torsions:
REMARK  status: ('A' for Active; 'I' for Inactive)
REMARK    1  A    between atoms: C_1  and  O_2
REMARK    2  A    between atoms: O_2  and  C_3
REMARK    3  A    between atoms: C_3  and  C_4
REMARK    4  A    between atoms: C_4  and  N_5
REMARK    5  A    between atoms: N_5  and  C_6
REMARK    6  A    between atoms: C_6  and  C_7
REMARK    7  A    between atoms: C_10  and  C_11
REMARK    8  A    between atoms: C_11  and  N_12
REMARK    9  A    between atoms: C_20  and  C_22
REMARK                            x       y       z     vdW  Elec       q    Type
REMARK                         _______ _______ _______ _____ _____    ______ ____
ROOT
ATOM      1  N   UNL     1      46.115   7.168  12.396  0.00  0.00    +0.000 N 
ATOM      2  C   UNL     1      44.908   6.764  11.787  0.00  0.00    +0.000 C 
ATOM      3  O   UNL     1      44.096   7.578  11.358  0.00  0.00    +0.000 OA
ENDROOT
BRANCH   2   4
ATOM      4  C   UNL     1      44.587   5.332  11.665  0.00  0.00    +0.000 A 
ATOM      5  C   UNL     1      43.865   4.593  12.586  0.00  0.00    +0.000 A 
ATOM      6  S   UNL     1      43.593   2.977  12.102  0.00  0.00    +0.000 S 
ATOM      7  C   UNL     1      44.308   3.256  10.584  0.00  0.00    +0.000 A 
ATOM      8  N   UNL     1      44.306   2.295   9.621  0.00  0.00    +0.000 NA
ATOM      9  C   UNL     1      44.814   2.675   8.495  0.00  0.00    +0.000 A 
ATOM     10  N   UNL     1      45.364   3.910   8.262  0.00  0.00    +0.000 N 
ATOM     11  C   UNL     1      45.525   4.857   9.252  0.00  0.00    +0.000 A 
ATOM     12  O   UNL     1      46.249   5.829   9.076  0.00  0.00    +0.000 OA
ATOM     13  C   UNL     1      44.841   4.526  10.492  0.00  0.00    +0.000 A 
ATOM     14  H   UNL     1      45.814   4.117   7.383  0.00  0.00    +0.000 HD
ENDBRANCH   2   4
BRANCH   1  15
ATOM     15  C   UNL     1      46.406   8.621  12.434  0.00  0.00    +0.000 C 
BRANCH  15  16
ATOM     16  C   UNL     1      47.834   9.120  12.132  0.00  0.00    +0.000 C 
BRANCH  16  18
ATOM     17  C   UNL     1      49.719   9.864  13.311  0.00  0.00    +0.000 C 
ATOM     18  O   UNL     1      48.310  10.019  13.139  0.00  0.00    +0.000 OA
ENDBRANCH  16  18
ENDBRANCH  15  16
ENDBRANCH   1  15
BRANCH   1  19
ATOM     19  C   UNL     1      47.241   6.217  12.530  0.00  0.00    +0.000 C 
BRANCH  19  20
ATOM     20  C   UNL     1      47.595   5.747  13.923  0.00  0.00    +0.000 A 
ATOM     21  C   UNL     1      46.991   4.592  14.443  0.00  0.00    +0.000 A 
ATOM     22  C   UNL     1      47.175   4.233  15.777  0.00  0.00    +0.000 A 
ATOM     23  C   UNL     1      47.986   5.007  16.618  0.00  0.00    +0.000 A 
ATOM     24  C   UNL     1      48.655   6.117  16.069  0.00  0.00    +0.000 A 
ATOM     25  C   UNL     1      48.456   6.488  14.740  0.00  0.00    +0.000 A 
BRANCH  23  26
ATOM     26  C   UNL     1      48.039   4.720  18.102  0.00  0.00    +0.000 C 
BRANCH  26  27
ATOM     27  N   UNL     1      48.582   5.729  18.999  0.00  0.00    +0.000 NA
ATOM     28  C   UNL     1      49.707   5.321  19.840  0.00  0.00    +0.000 C 
ATOM     29  C   UNL     1      49.312   4.854  21.250  0.00  0.00    +0.000 C 
ATOM     30  O   UNL     1      48.500   5.830  21.914  0.00  0.00    +0.000 OA
ATOM     31  C   UNL     1      47.307   6.082  21.163  0.00  0.00    +0.000 C 
ATOM     32  C   UNL     1      47.618   6.553  19.734  0.00  0.00    +0.000 C 
ENDBRANCH  26  27
ENDBRANCH  23  26
ENDBRANCH  19  20
ENDBRANCH   1  19
TORSDOF 8
ENDMDL
MODEL 3
REMARK VINA RESULT:    -6.148      1.887      2.877
REMARK INTER + INTRA:         -10.358
REMARK INTER:                  -9.175
REMARK INTRA:                  -1.183
REMARK UNBOUND:                -1.335
REMARK  Name = 
REMARK  9 active torsions:
REMARK  status: ('A' for Active; 'I' for Inactive)
REMARK    1  A    between atoms: C_1  and  O_2
REMARK    2  A    between atoms: O_2  and  C_3
REMARK    3  A    between atoms: C_3  and  C_4
REMARK    4  A    between atoms: C_4  and  N_5
REMARK    5  A    between atoms: N_5  and  C_6
REMARK    6  A    between atoms: C_6  and  C_7
REMARK    7  A    between atoms: C_10  and  C_11
REMARK    8  A    between atoms: C_11  and  N_12
REMARK    9  A    between atoms: C_20  and  C_22
REMARK                            x       y       z     vdW  Elec       q    Type
REMARK                         _______ _______ _______ _____ _____    ______ ____
ROOT
ATOM      1  N   UNL     1      46.220   7.275  12.574  0.00  0.00    +0.000 N 
ATOM      2  C   UNL     1      45.341   7.244  11.471  0.00  0.00    +0.000 C 
ATOM      3  O   UNL     1      44.755   8.250  11.082  0.00  0.00    +0.000 OA
ENDROOT
BRANCH   2   4
ATOM      4  C   UNL     1      45.094   5.978  10.761  0.00  0.00    +0.000 A 
ATOM      5  C   UNL     1      45.635   5.631   9.534  0.00  0.00    +0.000 A 
ATOM      6  S   UNL     1      45.219   4.054   9.026  0.00  0.00    +0.000 S 
ATOM      7  C   UNL     1      44.421   3.735  10.494  0.00  0.00    +0.000 A 
ATOM      8  N   UNL     1      43.919   2.500  10.765  0.00  0.00    +0.000 NA
ATOM      9  C   UNL     1      43.411   2.386  11.948  0.00  0.00    +0.000 A 
ATOM     10  N   UNL     1      43.319   3.403  12.862  0.00  0.00    +0.000 N 
ATOM     11  C   UNL     1      43.675   4.704  12.574  0.00  0.00    +0.000 A 
ATOM     12  O   UNL     1      43.336   5.623  13.309  0.00  0.00    +0.000 OA
ATOM     13  C   UNL     1      44.380   4.848  11.310  0.00  0.00    +0.000 A 
ATOM     14  H   UNL     1      42.841   3.267  13.741  0.00  0.00    +0.000 HD
ENDBRANCH   2   4
BRANCH   1  15
ATOM     15  C   UNL     1      46.473   8.591  13.208  0.00  0.00    +0.000 C 
BRANCH  15  16
ATOM     16  C   UNL     1      47.445   9.585  12.540  0.00  0.00    +0.000 C 
BRANCH  16  18
ATOM     17  C   UNL     1      49.537   8.895  11.737  0.00  0.00    +0.000 C 
ATOM     18  O   UNL     1      48.807   9.316  12.889  0.00  0.00    +0.000 OA
ENDBRANCH  16  18
ENDBRANCH  15  16
ENDBRANCH   1  15
BRANCH   1  19
ATOM     19  C   UNL     1      47.209   6.192  12.774  0.00  0.00    +0.000 C 
BRANCH  19  20
ATOM     20  C   UNL     1      47.506   5.772  14.196  0.00  0.00    +0.000 A 
ATOM     21  C   UNL     1      48.454   6.482  14.948  0.00  0.00    +0.000 A 
ATOM     22  C   UNL     1      48.863   6.016  16.197  0.00  0.00    +0.000 A 
ATOM     23  C   UNL     1      48.315   4.844  16.735  0.00  0.00    +0.000 A 
ATOM     24  C   UNL     1      47.304   4.183  16.012  0.00  0.00    +0.000 A 
ATOM     25  C   UNL     1      46.909   4.636  14.755  0.00  0.00    +0.000 A 
BRANCH  23  26
ATOM     26  C   UNL     1      48.887   4.245  18.000  0.00  0.00    +0.000 C 
BRANCH  26  27
ATOM     27  N   UNL     1      48.273   4.569  19.279  0.00  0.00    +0.000 NA
ATOM     28  C   UNL     1      47.351   5.705  19.294  0.00  0.00    +0.000 C 
ATOM     29  C   UNL     1      47.988   7.038  19.716  0.00  0.00    +0.000 C 
ATOM     30  O   UNL     1      48.674   6.914  20.968  0.00  0.00    +0.000 OA
ATOM     31  C   UNL     1      49.702   5.921  20.880  0.00  0.00    +0.000 C 
ATOM     32  C   UNL     1      49.143   4.553  20.458  0.00  0.00    +0.000 C 
ENDBRANCH  26  27
ENDBRANCH  23  26
ENDBRANCH  19  20
ENDBRANCH   1  19
TORSDOF 8
ENDMDL
MODEL 4
REMARK VINA RESULT:    -5.901      3.093      7.461
REMARK INTER + INTRA:          -9.996
REMARK INTER:                  -8.254
REMARK INTRA:                  -1.743
REMARK UNBOUND:                -1.335
REMARK  Name = 
REMARK  9 active torsions:
REMARK  status: ('A' for Active; 'I' for Inactive)
REMARK    1  A    between atoms: C_1  and  O_2
REMARK    2  A    between atoms: O_2  and  C_3
REMARK    3  A    between atoms: C_3  and  C_4
REMARK    4  A    between atoms: C_4  and  N_5
REMARK    5  A    between atoms: N_5  and  C_6
REMARK    6  A    between atoms: C_6  and  C_7
REMARK    7  A    between atoms: C_10  and  C_11
REMARK    8  A    between atoms: C_11  and  N_12
REMARK    9  A    between atoms: C_20  and  C_22
REMARK                            x       y       z     vdW  Elec       q    Type
REMARK                         _______ _______ _______ _____ _____    ______ ____
ROOT
ATOM      1  N   UNL     1      49.692   9.006  15.046  0.00  0.00    +0.000 N 
ATOM      2  C   UNL     1      50.170   8.748  16.348  0.00  0.00    +0.000 C 
ATOM      3  O   UNL     1      51.359   8.849  16.633  0.00  0.00    +0.000 OA
ENDROOT
BRANCH   2   4
ATOM      4  C   UNL     1      49.235   8.332  17.407  0.00  0.00    +0.000 A 
ATOM      5  C   UNL     1      48.554   9.189  18.254  0.00  0.00    +0.000 A 
ATOM      6  S   UNL     1      47.478   8.389  19.314  0.00  0.00    +0.000 S 
ATOM      7  C   UNL     1      47.783   6.888  18.575  0.00  0.00    +0.000 A 
ATOM      8  N   UNL     1      47.090   5.774  18.936  0.00  0.00    +0.000 NA
ATOM      9  C   UNL     1      47.374   4.726  18.235  0.00  0.00    +0.000 A 
ATOM     10  N   UNL     1      48.317   4.681  17.242  0.00  0.00    +0.000 N 
ATOM     11  C   UNL     1      49.148   5.742  16.948  0.00  0.00    +0.000 A 
ATOM     12  O   UNL     1      50.142   5.584  16.250  0.00  0.00    +0.000 OA
ATOM     13  C   UNL     1      48.768   6.979  17.612  0.00  0.00    +0.000 A 
ATOM     14  H   UNL     1      48.545   3.810  16.785  0.00  0.00    +0.000 HD
ENDBRANCH   2   4
BRANCH   1  15
ATOM     15  C   UNL     1      50.675   9.480  14.041  0.00  0.00    +0.000 C 
BRANCH  15  16
ATOM     16  C   UNL     1      51.239   8.491  13.001  0.00  0.00    +0.000 C 
BRANCH  16  18
ATOM     17  C   UNL     1      49.987   9.836  11.545  0.00  0.00    +0.000 C 
ATOM     18  O   UNL     1      50.498   8.524  11.776  0.00  0.00    +0.000 OA
ENDBRANCH  16  18
ENDBRANCH  15  16
ENDBRANCH   1  15
BRANCH   1  19
ATOM     19  C   UNL     1      48.257   9.280  14.815  0.00  0.00    +0.000 C 
BRANCH  19  20
ATOM     20  C   UNL     1      47.500   8.324  13.920  0.00  0.00    +0.000 A 
ATOM     21  C   UNL     1      47.893   6.979  13.847  0.00  0.00    +0.000 A 
ATOM     22  C   UNL     1      47.319   6.121  12.911  0.00  0.00    +0.000 A 
ATOM     23  C   UNL     1      46.320   6.580  12.041  0.00  0.00    +0.000 A 
ATOM     24  C   UNL     1      45.872   7.908  12.176  0.00  0.00    +0.000 A 
ATOM     25  C   UNL     1      46.459   8.772  13.098  0.00  0.00    +0.000 A 
BRANCH  23  26
ATOM     26  C   UNL     1      45.829   5.703  10.911  0.00  0.00    +0.000 C 
BRANCH  26  27
ATOM     27  N   UNL     1      44.431   5.304  10.880  0.00  0.00    +0.000 NA
ATOM     28  C   UNL     1      43.808   4.994  12.166  0.00  0.00    +0.000 C 
ATOM     29  C   UNL     1      43.811   3.501  12.532  0.00  0.00    +0.000 C 
ATOM     30  O   UNL     1      43.246   2.706  11.481  0.00  0.00    +0.000 OA
ATOM     31  C   UNL     1      43.987   2.883  10.268  0.00  0.00    +0.000 C 
ATOM     32  C   UNL     1      44.032   4.356   9.835  0.00  0.00    +0.000 C 
ENDBRANCH  26  27
ENDBRANCH  23  26
ENDBRANCH  19  20
ENDBRANCH   1  19
TORSDOF 8
ENDMDL
MODEL 5
REMARK VINA RESULT:    -5.890      2.948      7.716
REMARK INTER + INTRA:          -9.980
REMARK INTER:                  -8.537
REMARK INTRA:                  -1.443
REMARK UNBOUND:                -1.335
REMARK  Name = 
REMARK  9 active torsions:
REMARK  status: ('A' for Active; 'I' for Inactive)
REMARK    1  A    between atoms: C_1  and  O_2
REMARK    2  A    between atoms: O_2  and  C_3
REMARK    3  A    between atoms: C_3  and  C_4
REMARK    4  A    between atoms: C_4  and  N_5
REMARK    5  A    between atoms: N_5  and  C_6
REMARK    6  A    between atoms: C_6  and  C_7
REMARK    7  A    between atoms: C_10  and  C_11
REMARK    8  A    between atoms: C_11  and  N_12
REMARK    9  A    between atoms: C_20  and  C_22
REMARK                            x       y       z     vdW  Elec       q    Type
REMARK                         _______ _______ _______ _____ _____    ______ ____
ROOT
ATOM      1  N   UNL     1      49.745   7.690  14.833  0.00  0.00    +0.000 N 
ATOM      2  C   UNL     1      50.112   6.883  15.930  0.00  0.00    +0.000 C 
ATOM      3  O   UNL     1      51.287   6.657  16.203  0.00  0.00    +0.000 OA
ENDROOT
BRANCH   2   4
ATOM      4  C   UNL     1      49.073   6.274  16.777  0.00  0.00    +0.000 A 
ATOM      5  C   UNL     1      48.482   5.041  16.554  0.00  0.00    +0.000 A 
ATOM      6  S   UNL     1      47.375   4.585  17.773  0.00  0.00    +0.000 S 
ATOM      7  C   UNL     1      47.759   5.954  18.707  0.00  0.00    +0.000 A 
ATOM      8  N   UNL     1      47.235   6.122  19.951  0.00  0.00    +0.000 NA
ATOM      9  C   UNL     1      47.677   7.166  20.572  0.00  0.00    +0.000 A 
ATOM     10  N   UNL     1      48.556   8.077  20.045  0.00  0.00    +0.000 N 
ATOM     11  C   UNL     1      48.991   8.027  18.737  0.00  0.00    +0.000 A 
ATOM     12  O   UNL     1      49.555   8.989  18.228  0.00  0.00    +0.000 OA
ATOM     13  C   UNL     1      48.633   6.796  18.050  0.00  0.00    +0.000 A 
ATOM     14  H   UNL     1      48.802   8.912  20.555  0.00  0.00    +0.000 HD
ENDBRANCH   2   4
BRANCH   1  15
ATOM     15  C   UNL     1      50.838   8.324  14.057  0.00  0.00    +0.000 C 
BRANCH  15  16
ATOM     16  C   UNL     1      50.601   8.710  12.582  0.00  0.00    +0.000 C 
BRANCH  16  18
ATOM     17  C   UNL     1      51.354   7.575  10.674  0.00  0.00    +0.000 C 
ATOM     18  O   UNL     1      50.418   7.558  11.752  0.00  0.00    +0.000 OA
ENDBRANCH  16  18
ENDBRANCH  15  16
ENDBRANCH   1  15
BRANCH   1  19
ATOM     19  C   UNL     1      48.390   8.281  14.758  0.00  0.00    +0.000 C 
BRANCH  19  20
ATOM     20  C   UNL     1      47.409   7.655  13.792  0.00  0.00    +0.000 A 
ATOM     21  C   UNL     1      47.597   6.331  13.368  0.00  0.00    +0.000 A 
ATOM     22  C   UNL     1      46.805   5.790  12.357  0.00  0.00    +0.000 A 
ATOM     23  C   UNL     1      45.790   6.551  11.761  0.00  0.00    +0.000 A 
ATOM     24  C   UNL     1      45.553   7.850  12.249  0.00  0.00    +0.000 A 
ATOM     25  C   UNL     1      46.357   8.399  13.245  0.00  0.00    +0.000 A 
BRANCH  23  26
ATOM     26  C   UNL     1      45.056   6.027  10.547  0.00  0.00    +0.000 C 
BRANCH  26  27
ATOM     27  N   UNL     1      43.994   5.050  10.728  0.00  0.00    +0.000 NA
ATOM     28  C   UNL     1      42.980   5.362  11.735  0.00  0.00    +0.000 C 
ATOM     29  C   UNL     1      43.241   4.741  13.116  0.00  0.00    +0.000 C 
ATOM     30  O   UNL     1      43.453   3.327  13.020  0.00  0.00    +0.000 OA
ATOM     31  C   UNL     1      44.572   3.046  12.171  0.00  0.00    +0.000 C 
ATOM     32  C   UNL     1      44.388   3.639  10.766  0.00  0.00    +0.000 C 
ENDBRANCH  26  27
ENDBRANCH  23  26
ENDBRANCH  19  20
ENDBRANCH   1  19
TORSDOF 8
ENDMDL
MODEL 6
REMARK VINA RESULT:    -5.872      3.521      8.611
REMARK INTER + INTRA:          -9.953
REMARK INTER:                  -8.796
REMARK INTRA:                  -1.157
REMARK UNBOUND:                -1.335
REMARK  Name = 
REMARK  9 active torsions:
REMARK  status: ('A' for Active; 'I' for Inactive)
REMARK    1  A    between atoms: C_1  and  O_2
REMARK    2  A    between atoms: O_2  and  C_3
REMARK    3  A    between atoms: C_3  and  C_4
REMARK    4  A    between atoms: C_4  and  N_5
REMARK    5  A    between atoms: N_5  and  C_6
REMARK    6  A    between atoms: C_6  and  C_7
REMARK    7  A    between atoms: C_10  and  C_11
REMARK    8  A    between atoms: C_11  and  N_12
REMARK    9  A    between atoms: C_20  and  C_22
REMARK                            x       y       z     vdW  Elec       q    Type
REMARK                         _______ _______ _______ _____ _____    ______ ____
ROOT
ATOM      1  N   UNL     1      49.112   6.422  18.348  0.00  0.00    +0.000 N 
ATOM      2  C   UNL     1      49.651   5.354  19.095  0.00  0.00    +0.000 C 
ATOM      3  O   UNL     1      49.045   4.853  20.037  0.00  0.00    +0.000 OA
ENDROOT
BRANCH   2   4
ATOM      4  C   UNL     1      50.982   4.820  18.762  0.00  0.00    +0.000 A 
ATOM      5  C   UNL     1      52.188   5.419  19.085  0.00  0.00    +0.000 A 
ATOM      6  S   UNL     1      53.552   4.495  18.630  0.00  0.00    +0.000 S 
ATOM      7  C   UNL     1      52.572   3.203  18.119  0.00  0.00    +0.000 A 
ATOM      8  N   UNL     1      53.121   2.027  17.710  0.00  0.00    +0.000 NA
ATOM      9  C   UNL     1      52.253   1.111  17.426  0.00  0.00    +0.000 A 
ATOM     10  N   UNL     1      50.893   1.281  17.470  0.00  0.00    +0.000 N 
ATOM     11  C   UNL     1      50.298   2.497  17.729  0.00  0.00    +0.000 A 
ATOM     12  O   UNL     1      49.108   2.673  17.501  0.00  0.00    +0.000 OA
ATOM     13  C   UNL     1      51.229   3.515  18.192  0.00  0.00    +0.000 A 
ATOM     14  H   UNL     1      50.272   0.548  17.161  0.00  0.00    +0.000 HD
ENDBRANCH   2   4
BRANCH   1  15
ATOM     15  C   UNL     1      47.743   6.874  18.694  0.00  0.00    +0.000 C 
BRANCH  15  16
ATOM     16  C   UNL     1      47.552   8.156  19.530  0.00  0.00    +0.000 C 
BRANCH  16  18
ATOM     17  C   UNL     1      48.769   8.229  21.533  0.00  0.00    +0.000 C 
ATOM     18  O   UNL     1      47.522   7.878  20.935  0.00  0.00    +0.000 OA
ENDBRANCH  16  18
ENDBRANCH  15  16
ENDBRANCH   1  15
BRANCH   1  19
ATOM     19  C   UNL     1      49.641   6.736  17.002  0.00  0.00    +0.000 C 
BRANCH  19  20
ATOM     20  C   UNL     1      48.827   6.282  15.810  0.00  0.00    +0.000 A 
ATOM     21  C   UNL     1      48.817   7.054  14.639  0.00  0.00    +0.000 A 
ATOM     22  C   UNL     1      47.950   6.744  13.592  0.00  0.00    +0.000 A 
ATOM     23  C   UNL     1      47.091   5.641  13.680  0.00  0.00    +0.000 A 
ATOM     24  C   UNL     1      47.166   4.822  14.823  0.00  0.00    +0.000 A 
ATOM     25  C   UNL     1      48.018   5.142  15.879  0.00  0.00    +0.000 A 
BRANCH  23  26
ATOM     26  C   UNL     1      46.029   5.414  12.627  0.00  0.00    +0.000 C 
BRANCH  26  27
ATOM     27  N   UNL     1      44.952   4.474  12.897  0.00  0.00    +0.000 NA
ATOM     28  C   UNL     1      44.991   3.205  12.171  0.00  0.00    +0.000 C 
ATOM     29  C   UNL     1      44.151   3.181  10.884  0.00  0.00    +0.000 C 
ATOM     30  O   UNL     1      42.800   3.589  11.137  0.00  0.00    +0.000 OA
ATOM     31  C   UNL     1      42.771   4.914  11.680  0.00  0.00    +0.000 C 
ATOM     32  C   UNL     1      43.595   5.021  12.973  0.00  0.00    +0.000 C 
ENDBRANCH  26  27
ENDBRANCH  23  26
ENDBRANCH  19  20
ENDBRANCH   1  19
TORSDOF 8
ENDMDL
MODEL 7
REMARK VINA RESULT:    -5.822      3.467      7.672
REMARK INTER + INTRA:          -9.880
REMARK INTER:                  -8.410
REMARK INTRA:                  -1.470
REMARK UNBOUND:                -1.335
REMARK  Name = 
REMARK  9 active torsions:
REMARK  status: ('A' for Active; 'I' for Inactive)
REMARK    1  A    between atoms: C_1  and  O_2
REMARK    2  A    between atoms: O_2  and  C_3
REMARK    3  A    between atoms: C_3  and  C_4
REMARK    4  A    between atoms: C_4  and  N_5
REMARK    5  A    between atoms: N_5  and  C_6
REMARK    6  A    between atoms: C_6  and  C_7
REMARK    7  A    between atoms: C_10  and  C_11
REMARK    8  A    between atoms: C_11  and  N_12
REMARK    9  A    between atoms: C_20  and  C_22
REMARK                            x       y       z     vdW  Elec       q    Type
REMARK                         _______ _______ _______ _____ _____    ______ ____
ROOT
ATOM      1  N   UNL     1      48.805   8.337  17.331  0.00  0.00    +0.000 N 
ATOM      2  C   UNL     1      48.828   7.167  18.118  0.00  0.00    +0.000 C 
ATOM      3  O   UNL     1      48.028   6.985  19.031  0.00  0.00    +0.000 OA
ENDROOT
BRANCH   2   4
ATOM      4  C   UNL     1      49.840   6.128  17.865  0.00  0.00    +0.000 A 
ATOM      5  C   UNL     1      51.188   6.236  18.161  0.00  0.00    +0.000 A 
ATOM      6  S   UNL     1      52.077   4.816  17.822  0.00  0.00    +0.000 S 
ATOM      7  C   UNL     1      50.664   3.967  17.405  0.00  0.00    +0.000 A 
ATOM      8  N   UNL     1      50.704   2.639  17.114  0.00  0.00    +0.000 NA
ATOM      9  C   UNL     1      49.544   2.113  16.893  0.00  0.00    +0.000 A 
ATOM     10  N   UNL     1      48.359   2.802  16.890  0.00  0.00    +0.000 N 
ATOM     11  C   UNL     1      48.290   4.173  17.026  0.00  0.00    +0.000 A 
ATOM     12  O   UNL     1      47.259   4.778  16.756  0.00  0.00    +0.000 OA
ATOM     13  C   UNL     1      49.550   4.784  17.419  0.00  0.00    +0.000 A 
ATOM     14  H   UNL     1      47.497   2.346  16.633  0.00  0.00    +0.000 HD
ENDBRANCH   2   4
BRANCH   1  15
ATOM     15  C   UNL     1      47.724   9.317  17.597  0.00  0.00    +0.000 C 
BRANCH  15  16
ATOM     16  C   UNL     1      48.076  10.806  17.791  0.00  0.00    +0.000 C 
BRANCH  16  18
ATOM     17  C   UNL     1      46.912  10.368  19.778  0.00  0.00    +0.000 C 
ATOM     18  O   UNL     1      47.355  11.387  18.883  0.00  0.00    +0.000 OA
ENDBRANCH  16  18
ENDBRANCH  15  16
ENDBRANCH   1  15
BRANCH   1  19
ATOM     19  C   UNL     1      49.477   8.366  16.013  0.00  0.00    +0.000 C 
BRANCH  19  20
ATOM     20  C   UNL     1      48.664   7.949  14.807  0.00  0.00    +0.000 A 
ATOM     21  C   UNL     1      47.715   8.831  14.269  0.00  0.00    +0.000 A 
ATOM     22  C   UNL     1      46.843   8.410  13.267  0.00  0.00    +0.000 A 
ATOM     23  C   UNL     1      46.915   7.105  12.760  0.00  0.00    +0.000 A 
ATOM     24  C   UNL     1      47.924   6.252  13.246  0.00  0.00    +0.000 A 
ATOM     25  C   UNL     1      48.783   6.666  14.263  0.00  0.00    +0.000 A 
BRANCH  23  26
ATOM     26  C   UNL     1      45.857   6.596  11.807  0.00  0.00    +0.000 C 
BRANCH  26  27
ATOM     27  N   UNL     1      45.430   5.208  11.897  0.00  0.00    +0.000 NA
ATOM     28  C   UNL     1      45.069   4.551  10.641  0.00  0.00    +0.000 C 
ATOM     29  C   UNL     1      43.567   4.573  10.319  0.00  0.00    +0.000 C 
ATOM     30  O   UNL     1      42.793   4.061  11.410  0.00  0.00    +0.000 OA
ATOM     31  C   UNL     1      43.020   4.836  12.592  0.00  0.00    +0.000 C 
ATOM     32  C   UNL     1      44.506   4.864  12.981  0.00  0.00    +0.000 C 
ENDBRANCH  26  27
ENDBRANCH  23  26
ENDBRANCH  19  20
ENDBRANCH   1  19
TORSDOF 8
ENDMDL
MODEL 8
REMARK VINA RESULT:    -5.168      2.776      4.092
REMARK INTER + INTRA:          -8.921
REMARK INTER:                  -7.613
REMARK INTRA:                  -1.307
REMARK UNBOUND:                -1.335
REMARK  Name = 
REMARK  9 active torsions:
REMARK  status: ('A' for Active; 'I' for Inactive)
REMARK    1  A    between atoms: C_1  and  O_2
REMARK    2  A    between atoms: O_2  and  C_3
REMARK    3  A    between atoms: C_3  and  C_4
REMARK    4  A    between atoms: C_4  and  N_5
REMARK    5  A    between atoms: N_5  and  C_6
REMARK    6  A    between atoms: C_6  and  C_7
REMARK    7  A    between atoms: C_10  and  C_11
REMARK    8  A    between atoms: C_11  and  N_12
REMARK    9  A    between atoms: C_20  and  C_22
REMARK                            x       y       z     vdW  Elec       q    Type
REMARK                         _______ _______ _______ _____ _____    ______ ____
ROOT
ATOM      1  N   UNL     1      49.854   8.963  13.260  0.00  0.00    +0.000 N 
ATOM      2  C   UNL     1      49.088   8.267  12.302  0.00  0.00    +0.000 C 
ATOM      3  O   UNL     1      49.610   7.649  11.379  0.00  0.00    +0.000 OA
ENDROOT
BRANCH   2   4
ATOM      4  C   UNL     1      47.617   8.280  12.384  0.00  0.00    +0.000 A 
ATOM      5  C   UNL     1      46.809   9.358  12.063  0.00  0.00    +0.000 A 
ATOM      6  S   UNL     1      45.138   9.017  12.183  0.00  0.00    +0.000 S 
ATOM      7  C   UNL     1      45.444   7.380  12.528  0.00  0.00    +0.000 A 
ATOM      8  N   UNL     1      44.425   6.485  12.638  0.00  0.00    +0.000 NA
ATOM      9  C   UNL     1      44.812   5.266  12.824  0.00  0.00    +0.000 A 
ATOM     10  N   UNL     1      46.119   4.871  12.955  0.00  0.00    +0.000 N 
ATOM     11  C   UNL     1      47.169   5.762  13.003  0.00  0.00    +0.000 A 
ATOM     12  O   UNL     1      48.278   5.404  13.383  0.00  0.00    +0.000 OA
ATOM     13  C   UNL     1      46.794   7.124  12.657  0.00  0.00    +0.000 A 
ATOM     14  H   UNL     1      46.349   3.913  13.175  0.00  0.00    +0.000 HD
ENDBRANCH   2   4
BRANCH   1  15
ATOM     15  C   UNL     1      51.330   8.860  13.157  0.00  0.00    +0.000 C 
BRANCH  15  16
ATOM     16  C   UNL     1      52.158  10.110  12.794  0.00  0.00    +0.000 C 
BRANCH  16  18
ATOM     17  C   UNL     1      52.272   9.780  10.476  0.00  0.00    +0.000 C 
ATOM     18  O   UNL     1      51.796  10.637  11.513  0.00  0.00    +0.000 OA
ENDBRANCH  16  18
ENDBRANCH  15  16
ENDBRANCH   1  15
BRANCH   1  19
ATOM     19  C   UNL     1      49.261   9.344  14.561  0.00  0.00    +0.000 C 
BRANCH  19  20
ATOM     20  C   UNL     1      49.452   8.391  15.720  0.00  0.00    +0.000 A 
ATOM     21  C   UNL     1      50.193   7.214  15.538  0.00  0.00    +0.000 A 
ATOM     22  C   UNL     1      50.244   6.245  16.539  0.00  0.00    +0.000 A 
ATOM     23  C   UNL     1      49.574   6.440  17.755  0.00  0.00    +0.000 A 
ATOM     24  C   UNL     1      48.901   7.659  17.962  0.00  0.00    +0.000 A 
ATOM     25  C   UNL     1      48.834   8.619  16.954  0.00  0.00    +0.000 A 
BRANCH  23  26
ATOM     26  C   UNL     1      49.480   5.317  18.763  0.00  0.00    +0.000 C 
BRANCH  26  27
ATOM     27  N   UNL     1      48.426   4.324  18.622  0.00  0.00    +0.000 NA
ATOM     28  C   UNL     1      48.842   2.978  18.230  0.00  0.00    +0.000 C 
ATOM     29  C   UNL     1      48.757   2.698  16.721  0.00  0.00    +0.000 C 
ATOM     30  O   UNL     1      47.455   3.006  16.208  0.00  0.00    +0.000 OA
ATOM     31  C   UNL     1      47.139   4.384  16.438  0.00  0.00    +0.000 C 
ATOM     32  C   UNL     1      47.205   4.744  17.930  0.00  0.00    +0.000 C 
ENDBRANCH  26  27
ENDBRANCH  23  26
ENDBRANCH  19  20
ENDBRANCH   1  19
TORSDOF 8
ENDMDL
MODEL 9
REMARK VINA RESULT:    -5.152      4.400      7.772
REMARK INTER + INTRA:          -8.897
REMARK INTER:                  -7.542
REMARK INTRA:                  -1.355
REMARK UNBOUND:                -1.335
REMARK  Name = 
REMARK  9 active torsions:
REMARK  status: ('A' for Active; 'I' for Inactive)
REMARK    1  A    between atoms: C_1  and  O_2
REMARK    2  A    between atoms: O_2  and  C_3
REMARK    3  A    between atoms: C_3  and  C_4
REMARK    4  A    between atoms: C_4  and  N_5
REMARK    5  A    between atoms: N_5  and  C_6
REMARK    6  A    between atoms: C_6  and  C_7
REMARK    7  A    between atoms: C_10  and  C_11
REMARK    8  A    between atoms: C_11  and  N_12
REMARK    9  A    between atoms: C_20  and  C_22
REMARK                            x       y       z     vdW  Elec       q    Type
REMARK                         _______ _______ _______ _____ _____    ______ ____
ROOT
ATOM      1  N   UNL     1      50.122  10.239  12.830  0.00  0.00    +0.000 N 
ATOM      2  C   UNL     1      51.465  10.153  12.408  0.00  0.00    +0.000 C 
ATOM      3  O   UNL     1      52.373   9.884  13.189  0.00  0.00    +0.000 OA
ENDROOT
BRANCH   2   4
ATOM      4  C   UNL     1      51.813  10.404  11.000  0.00  0.00    +0.000 A 
ATOM      5  C   UNL     1      52.026  11.653  10.439  0.00  0.00    +0.000 A 
ATOM      6  S   UNL     1      52.500  11.592   8.798  0.00  0.00    +0.000 S 
ATOM      7  C   UNL     1      52.573   9.893   8.828  0.00  0.00    +0.000 A 
ATOM      8  N   UNL     1      53.028   9.192   7.754  0.00  0.00    +0.000 NA
ATOM      9  C   UNL     1      53.101   7.917   7.950  0.00  0.00    +0.000 A 
ATOM     10  N   UNL     1      52.718   7.278   9.101  0.00  0.00    +0.000 N 
ATOM     11  C   UNL     1      52.110   7.931  10.153  0.00  0.00    +0.000 A 
ATOM     12  O   UNL     1      51.547   7.300  11.039  0.00  0.00    +0.000 OA
ATOM     13  C   UNL     1      52.139   9.380  10.034  0.00  0.00    +0.000 A 
ATOM     14  H   UNL     1      52.729   6.271   9.160  0.00  0.00    +0.000 HD
ENDBRANCH   2   4
BRANCH   1  15
ATOM     15  C   UNL     1      49.830   9.916  14.248  0.00  0.00    +0.000 C 
BRANCH  15  16
ATOM     16  C   UNL     1      49.922   8.454  14.730  0.00  0.00    +0.000 C 
BRANCH  16  18
ATOM     17  C   UNL     1      48.747   6.585  15.521  0.00  0.00    +0.000 C 
ATOM     18  O   UNL     1      48.676   7.986  15.258  0.00  0.00    +0.000 OA
ENDBRANCH  16  18
ENDBRANCH  15  16
ENDBRANCH   1  15
BRANCH   1  19
ATOM     19  C   UNL     1      49.021  10.154  11.845  0.00  0.00    +0.000 C 
BRANCH  19  20
ATOM     20  C   UNL     1      48.019   9.034  12.014  0.00  0.00    +0.000 A 
ATOM     21  C   UNL     1      46.770   9.299  12.597  0.00  0.00    +0.000 A 
ATOM     22  C   UNL     1      45.899   8.258  12.913  0.00  0.00    +0.000 A 
ATOM     23  C   UNL     1      46.244   6.929  12.631  0.00  0.00    +0.000 A 
ATOM     24  C   UNL     1      47.461   6.678  11.970  0.00  0.00    +0.000 A 
ATOM     25  C   UNL     1      48.342   7.716  11.673  0.00  0.00    +0.000 A 
BRANCH  23  26
ATOM     26  C   UNL     1      45.382   5.793  13.136  0.00  0.00    +0.000 C 
BRANCH  26  27
ATOM     27  N   UNL     1      44.105   5.532  12.490  0.00  0.00    +0.000 NA
ATOM     28  C   UNL     1      43.315   4.423  13.024  0.00  0.00    +0.000 C 
ATOM     29  C   UNL     1      43.507   3.089  12.286  0.00  0.00    +0.000 C 
ATOM     30  O   UNL     1      43.296   3.240  10.876  0.00  0.00    +0.000 OA
ATOM     31  C   UNL     1      44.209   4.200  10.334  0.00  0.00    +0.000 C 
ATOM     32  C   UNL     1      44.080   5.566  11.025  0.00  0.00    +0.000 C 
ENDBRANCH  26  27
ENDBRANCH  23  26
ENDBRANCH  19  20
ENDBRANCH   1  19
TORSDOF 8
ENDMDL
