MODEL 1
REMARK VINA RESULT:    -8.345      0.000      0.000
REMARK INTER + INTRA:         -13.262
REMARK INTER:                 -12.247
REMARK INTRA:                  -1.015
REMARK UNBOUND:                -1.015
REMARK  Name = 
REMARK  8 active torsions:
REMARK  status: ('A' for Active; 'I' for Inactive)
REMARK    1  A    between atoms: C_2  and  C_3
REMARK    2  A    between atoms: C_3  and  N_4
REMARK    3  A    between atoms: C_3  and  C_12
REMARK    4  A    between atoms: N_4  and  C_5
REMARK    5  A    between atoms: C_5  and  C_6
REMARK    6  A    between atoms: C_15  and  C_16
REMARK    7  A    between atoms: C_16  and  N_17
REMARK    8  A    between atoms: C_18  and  C_20
REMARK                            x       y       z     vdW  Elec       q    Type
REMARK                         _______ _______ _______ _____ _____    ______ ____
ROOT
ATOM      1  C   UNL     1      45.428   4.671  11.938  0.00  0.00    +0.000 A 
ATOM      2  C   UNL     1      46.004   5.806  11.346  0.00  0.00    +0.000 A 
ATOM      3  C   UNL     1      46.999   6.520  12.009  0.00  0.00    +0.000 A 
ATOM      4  C   UNL     1      47.484   6.089  13.251  0.00  0.00    +0.000 A 
ATOM      5  C   UNL     1      46.934   4.939  13.831  0.00  0.00    +0.000 A 
ATOM      6  C   UNL     1      45.915   4.243  13.186  0.00  0.00    +0.000 A 
ENDROOT
BRANCH   1   7
ATOM      7  C   UNL     1      44.211   4.009  11.281  0.00  0.00    +0.000 C 
BRANCH   7   9
ATOM      8  N   UNL     1      42.011   5.655  11.707  0.00  0.00    +0.000 NA
ATOM      9  C   UNL     1      43.009   4.909  11.514  0.00  0.00    +0.000 C 
ENDBRANCH   7   9
BRANCH   7  10
ATOM     10  N   UNL     1      44.440   3.780   9.842  0.00  0.00    +0.000 NA
ATOM     11  H   UNL     1      45.154   4.431   9.514  0.00  0.00    +0.000 HD
BRANCH  10  12
ATOM     12  C   UNL     1      44.899   2.422   9.550  0.00  0.00    +0.000 C 
BRANCH  12  13
ATOM     13  C   UNL     1      45.767   2.397   8.321  0.00  0.00    +0.000 A 
ATOM     14  C   UNL     1      45.902   3.536   7.517  0.00  0.00    +0.000 A 
ATOM     15  C   UNL     1      46.747   3.517   6.408  0.00  0.00    +0.000 A 
ATOM     16  C   UNL     1      47.453   2.358   6.094  0.00  0.00    +0.000 A 
ATOM     17  C   UNL     1      47.309   1.213   6.877  0.00  0.00    +0.000 A 
ATOM     18  C   UNL     1      46.471   1.234   7.987  0.00  0.00    +0.000 A 
ENDBRANCH  12  13
ENDBRANCH  10  12
ENDBRANCH   7  10
ENDBRANCH   1   7
BRANCH   4  19
ATOM     19  C   UNL     1      48.568   6.855  13.967  0.00  0.00    +0.000 C 
BRANCH  19  20
ATOM     20  N   UNL     1      48.297   6.986  15.375  0.00  0.00    +0.000 N 
ATOM     21  C   UNL     1      49.176   6.592  16.349  0.00  0.00    +0.000 C 
ATOM     22  O   UNL     1      50.270   6.097  16.097  0.00  0.00    +0.000 OA
ATOM     23  H   UNL     1      47.329   7.141  15.629  0.00  0.00    +0.000 HD
BRANCH  21  24
ATOM     24  C   UNL     1      48.749   6.863  17.727  0.00  0.00    +0.000 A 
ATOM     25  C   UNL     1      48.379   8.149  18.094  0.00  0.00    +0.000 A 
ATOM     26  S   UNL     1      47.847   8.266  19.711  0.00  0.00    +0.000 S 
ATOM     27  C   UNL     1      48.150   6.615  19.989  0.00  0.00    +0.000 A 
ATOM     28  N   UNL     1      47.922   6.057  21.207  0.00  0.00    +0.000 NA
ATOM     29  C   UNL     1      48.222   4.801  21.288  0.00  0.00    +0.000 A 
ATOM     30  N   UNL     1      48.713   4.046  20.254  0.00  0.00    +0.000 N 
ATOM     31  C   UNL     1      48.910   4.561  18.992  0.00  0.00    +0.000 A 
ATOM     32  O   UNL     1      49.273   3.840  18.063  0.00  0.00    +0.000 OA
ATOM     33  C   UNL     1      48.621   5.971  18.859  0.00  0.00    +0.000 A 
ATOM     34  H   UNL     1      48.907   3.063  20.374  0.00  0.00    +0.000 HD
ENDBRANCH  21  24
ENDBRANCH  19  20
ENDBRANCH   4  19
TORSDOF 8
ENDMDL
MODEL 2
REMARK VINA RESULT:    -8.093      1.459      2.326
REMARK INTER + INTRA:         -12.893
REMARK INTER:                 -11.820
REMARK INTRA:                  -1.073
REMARK UNBOUND:                -1.015
REMARK  Name = 
REMARK  8 active torsions:
REMARK  status: ('A' for Active; 'I' for Inactive)
REMARK    1  A    between atoms: C_2  and  C_3
REMARK    2  A    between atoms: C_3  and  N_4
REMARK    3  A    between atoms: C_3  and  C_12
REMARK    4  A    between atoms: N_4  and  C_5
REMARK    5  A    between atoms: C_5  and  C_6
REMARK    6  A    between atoms: C_15  and  C_16
REMARK    7  A    between atoms: C_16  and  N_17
REMARK    8  A    between atoms: C_18  and  C_20
REMARK                            x       y       z     vdW  Elec       q    Type
REMARK                         _______ _______ _______ _____ _____    ______ ____
ROOT
ATOM      1  C   UNL     1      45.676   5.300  11.818  0.00  0.00    +0.000 A 
ATOM      2  C   UNL     1      46.012   4.663  13.023  0.00  0.00    +0.000 A 
ATOM      3  C   UNL     1      47.011   5.183  13.842  0.00  0.00    +0.000 A 
ATOM      4  C   UNL     1      47.660   6.379  13.509  0.00  0.00    +0.000 A 
ATOM      5  C   UNL     1      47.307   7.034  12.323  0.00  0.00    +0.000 A 
ATOM      6  C   UNL     1      46.331   6.499  11.486  0.00  0.00    +0.000 A 
ENDROOT
BRANCH   1   7
ATOM      7  C   UNL     1      44.708   4.617  10.844  0.00  0.00    +0.000 C 
BRANCH   7   9
ATOM      8  N   UNL     1      42.132   5.448  11.480  0.00  0.00    +0.000 NA
ATOM      9  C   UNL     1      43.301   5.071  11.191  0.00  0.00    +0.000 C 
ENDBRANCH   7   9
BRANCH   7  10
ATOM     10  N   UNL     1      45.046   4.937   9.444  0.00  0.00    +0.000 NA
ATOM     11  H   UNL     1      46.060   4.924   9.338  0.00  0.00    +0.000 HD
BRANCH  10  12
ATOM     12  C   UNL     1      44.481   3.980   8.492  0.00  0.00    +0.000 C 
BRANCH  12  13
ATOM     13  C   UNL     1      45.549   3.087   7.923  0.00  0.00    +0.000 A 
ATOM     14  C   UNL     1      46.430   3.561   6.941  0.00  0.00    +0.000 A 
ATOM     15  C   UNL     1      47.448   2.741   6.456  0.00  0.00    +0.000 A 
ATOM     16  C   UNL     1      47.585   1.443   6.943  0.00  0.00    +0.000 A 
ATOM     17  C   UNL     1      46.700   0.956   7.905  0.00  0.00    +0.000 A 
ATOM     18  C   UNL     1      45.688   1.776   8.394  0.00  0.00    +0.000 A 
ENDBRANCH  12  13
ENDBRANCH  10  12
ENDBRANCH   7  10
ENDBRANCH   1   7
BRANCH   4  19
ATOM     19  C   UNL     1      48.738   6.948  14.398  0.00  0.00    +0.000 C 
BRANCH  19  20
ATOM     20  N   UNL     1      48.392   6.859  15.792  0.00  0.00    +0.000 N 
ATOM     21  C   UNL     1      49.185   6.245  16.725  0.00  0.00    +0.000 C 
ATOM     22  O   UNL     1      50.260   5.725  16.445  0.00  0.00    +0.000 OA
ATOM     23  H   UNL     1      47.421   7.036  16.022  0.00  0.00    +0.000 HD
BRANCH  21  24
ATOM     24  C   UNL     1      48.694   6.310  18.107  0.00  0.00    +0.000 A 
ATOM     25  C   UNL     1      48.701   5.168  18.895  0.00  0.00    +0.000 A 
ATOM     26  S   UNL     1      48.163   5.441  20.491  0.00  0.00    +0.000 S 
ATOM     27  C   UNL     1      47.847   7.081  20.163  0.00  0.00    +0.000 A 
ATOM     28  N   UNL     1      47.338   7.900  21.120  0.00  0.00    +0.000 NA
ATOM     29  C   UNL     1      47.121   9.114  20.728  0.00  0.00    +0.000 A 
ATOM     30  N   UNL     1      47.382   9.588  19.468  0.00  0.00    +0.000 N 
ATOM     31  C   UNL     1      47.944   8.804  18.485  0.00  0.00    +0.000 A 
ATOM     32  O   UNL     1      48.245   9.278  17.391  0.00  0.00    +0.000 OA
ATOM     33  C   UNL     1      48.176   7.428  18.865  0.00  0.00    +0.000 A 
ATOM     34  H   UNL     1      47.211  10.554  19.230  0.00  0.00    +0.000 HD
ENDBRANCH  21  24
ENDBRANCH  19  20
ENDBRANCH   4  19
TORSDOF 8
ENDMDL
MODEL 3
REMARK VINA RESULT:    -7.887      2.350      2.823
REMARK INTER + INTRA:         -12.591
REMARK INTER:                 -11.268
REMARK INTRA:                  -1.323
REMARK UNBOUND:                -1.015
REMARK  Name = 
REMARK  8 active torsions:
REMARK  status: ('A' for Active; 'I' for Inactive)
REMARK    1  A    between atoms: C_2  and  C_3
REMARK    2  A    between atoms: C_3  and  N_4
REMARK    3  A    between atoms: C_3  and  C_12
REMARK    4  A    between atoms: N_4  and  C_5
REMARK    5  A    between atoms: C_5  and  C_6
REMARK    6  A    between atoms: C_15  and  C_16
REMARK    7  A    between atoms: C_16  and  N_17
REMARK    8  A    between atoms: C_18  and  C_20
REMARK                            x       y       z     vdW  Elec       q    Type
REMARK                         _______ _______ _______ _____ _____    ______ ____
ROOT
ATOM      1  C   UNL     1      45.647   4.775  12.584  0.00  0.00    +0.000 A 
ATOM      2  C   UNL     1      45.908   5.752  11.611  0.00  0.00    +0.000 A 
ATOM      3  C   UNL     1      46.901   6.707  11.817  0.00  0.00    +0.000 A 
ATOM      4  C   UNL     1      47.696   6.677  12.970  0.00  0.00    +0.000 A 
ATOM      5  C   UNL     1      47.460   5.685  13.929  0.00  0.00    +0.000 A 
ATOM      6  C   UNL     1      46.445   4.749  13.741  0.00  0.00    +0.000 A 
ENDROOT
BRANCH   1   7
ATOM      7  C   UNL     1      44.433   3.852  12.424  0.00  0.00    +0.000 C 
BRANCH   7   9
ATOM      8  N   UNL     1      42.267   5.417  11.657  0.00  0.00    +0.000 NA
ATOM      9  C   UNL     1      43.250   4.707  12.005  0.00  0.00    +0.000 C 
ENDBRANCH   7   9
BRANCH   7  10
ATOM     10  N   UNL     1      44.700   2.785  11.441  0.00  0.00    +0.000 NA
ATOM     11  H   UNL     1      44.313   1.909  11.792  0.00  0.00    +0.000 HD
BRANCH  10  12
ATOM     12  C   UNL     1      44.097   3.055  10.135  0.00  0.00    +0.000 C 
BRANCH  12  13
ATOM     13  C   UNL     1      45.112   2.922   9.033  0.00  0.00    +0.000 A 
ATOM     14  C   UNL     1      45.561   4.050   8.333  0.00  0.00    +0.000 A 
ATOM     15  C   UNL     1      46.539   3.922   7.347  0.00  0.00    +0.000 A 
ATOM     16  C   UNL     1      47.064   2.666   7.050  0.00  0.00    +0.000 A 
ATOM     17  C   UNL     1      46.609   1.536   7.727  0.00  0.00    +0.000 A 
ATOM     18  C   UNL     1      45.638   1.664   8.716  0.00  0.00    +0.000 A 
ENDBRANCH  12  13
ENDBRANCH  10  12
ENDBRANCH   7  10
ENDBRANCH   1   7
BRANCH   4  19
ATOM     19  C   UNL     1      48.777   7.705  13.192  0.00  0.00    +0.000 C 
BRANCH  19  20
ATOM     20  N   UNL     1      49.864   7.184  13.979  0.00  0.00    +0.000 N 
ATOM     21  C   UNL     1      50.525   7.920  14.927  0.00  0.00    +0.000 C 
ATOM     22  O   UNL     1      50.239   9.085  15.183  0.00  0.00    +0.000 OA
ATOM     23  H   UNL     1      50.298   6.337  13.633  0.00  0.00    +0.000 HD
BRANCH  21  24
ATOM     24  C   UNL     1      51.564   7.198  15.670  0.00  0.00    +0.000 A 
ATOM     25  C   UNL     1      52.902   7.499  15.457  0.00  0.00    +0.000 A 
ATOM     26  S   UNL     1      53.965   6.614  16.455  0.00  0.00    +0.000 S 
ATOM     27  C   UNL     1      52.677   5.756  17.162  0.00  0.00    +0.000 A 
ATOM     28  N   UNL     1      52.905   4.805  18.105  0.00  0.00    +0.000 NA
ATOM     29  C   UNL     1      51.839   4.213  18.538  0.00  0.00    +0.000 A 
ATOM     30  N   UNL     1      50.563   4.497  18.125  0.00  0.00    +0.000 N 
ATOM     31  C   UNL     1      50.286   5.488  17.210  0.00  0.00    +0.000 A 
ATOM     32  O   UNL     1      49.125   5.778  16.921  0.00  0.00    +0.000 OA
ATOM     33  C   UNL     1      51.448   6.158  16.671  0.00  0.00    +0.000 A 
ATOM     34  H   UNL     1      49.769   4.013  18.519  0.00  0.00    +0.000 HD
ENDBRANCH  21  24
ENDBRANCH  19  20
ENDBRANCH   4  19
TORSDOF 8
ENDMDL
MODEL 4
REMARK VINA RESULT:    -7.281      3.594      8.709
REMARK INTER + INTRA:         -11.701
REMARK INTER:                  -9.800
REMARK INTRA:                  -1.901
REMARK UNBOUND:                -1.015
REMARK  Name = 
REMARK  8 active torsions:
REMARK  status: ('A' for Active; 'I' for Inactive)
REMARK    1  A    between atoms: C_2  and  C_3
REMARK    2  A    between atoms: C_3  and  N_4
REMARK    3  A    between atoms: C_3  and  C_12
REMARK    4  A    between atoms: N_4  and  C_5
REMARK    5  A    between atoms: C_5  and  C_6
REMARK    6  A    between atoms: C_15  and  C_16
REMARK    7  A    between atoms: C_16  and  N_17
REMARK    8  A    between atoms: C_18  and  C_20
REMARK                            x       y       z     vdW  Elec       q    Type
REMARK                         _______ _______ _______ _____ _____    ______ ____
ROOT
ATOM      1  C   UNL     1      48.846   7.766  16.352  0.00  0.00    +0.000 A 
ATOM      2  C   UNL     1      49.394   6.801  15.493  0.00  0.00    +0.000 A 
ATOM      3  C   UNL     1      49.208   6.895  14.116  0.00  0.00    +0.000 A 
ATOM      4  C   UNL     1      48.522   7.981  13.557  0.00  0.00    +0.000 A 
ATOM      5  C   UNL     1      48.001   8.963  14.408  0.00  0.00    +0.000 A 
ATOM      6  C   UNL     1      48.156   8.854  15.788  0.00  0.00    +0.000 A 
ENDROOT
BRANCH   1   7
ATOM      7  C   UNL     1      48.901   7.550  17.869  0.00  0.00    +0.000 C 
BRANCH   7   9
ATOM      8  N   UNL     1      49.661   9.952  19.045  0.00  0.00    +0.000 NA
ATOM      9  C   UNL     1      49.316   8.862  18.512  0.00  0.00    +0.000 C 
ENDBRANCH   7   9
BRANCH   7  10
ATOM     10  N   UNL     1      47.602   7.084  18.389  0.00  0.00    +0.000 NA
ATOM     11  H   UNL     1      46.973   6.916  17.604  0.00  0.00    +0.000 HD
BRANCH  10  12
ATOM     12  C   UNL     1      47.710   5.842  19.156  0.00  0.00    +0.000 C 
BRANCH  12  13
ATOM     13  C   UNL     1      48.121   4.696  18.273  0.00  0.00    +0.000 A 
ATOM     14  C   UNL     1      49.327   4.019  18.495  0.00  0.00    +0.000 A 
ATOM     15  C   UNL     1      49.676   2.926  17.702  0.00  0.00    +0.000 A 
ATOM     16  C   UNL     1      48.826   2.511  16.679  0.00  0.00    +0.000 A 
ATOM     17  C   UNL     1      47.633   3.192  16.438  0.00  0.00    +0.000 A 
ATOM     18  C   UNL     1      47.282   4.279  17.233  0.00  0.00    +0.000 A 
ENDBRANCH  12  13
ENDBRANCH  10  12
ENDBRANCH   7  10
ENDBRANCH   1   7
BRANCH   4  19
ATOM     19  C   UNL     1      48.327   8.089  12.065  0.00  0.00    +0.000 C 
BRANCH  19  20
ATOM     20  N   UNL     1      47.579   6.980  11.536  0.00  0.00    +0.000 N 
ATOM     21  C   UNL     1      46.215   6.984  11.412  0.00  0.00    +0.000 C 
ATOM     22  O   UNL     1      45.520   7.941  11.741  0.00  0.00    +0.000 OA
ATOM     23  H   UNL     1      48.066   6.092  11.496  0.00  0.00    +0.000 HD
BRANCH  21  24
ATOM     24  C   UNL     1      45.636   5.786  10.793  0.00  0.00    +0.000 A 
ATOM     25  C   UNL     1      45.840   5.540   9.443  0.00  0.00    +0.000 A 
ATOM     26  S   UNL     1      45.156   4.071   8.910  0.00  0.00    +0.000 S 
ATOM     27  C   UNL     1      44.513   3.746  10.451  0.00  0.00    +0.000 A 
ATOM     28  N   UNL     1      43.780   2.625  10.681  0.00  0.00    +0.000 NA
ATOM     29  C   UNL     1      43.330   2.517  11.890  0.00  0.00    +0.000 A 
ATOM     30  N   UNL     1      43.560   3.420  12.895  0.00  0.00    +0.000 N 
ATOM     31  C   UNL     1      44.340   4.541  12.716  0.00  0.00    +0.000 A 
ATOM     32  O   UNL     1      44.599   5.290  13.658  0.00  0.00    +0.000 OA
ATOM     33  C   UNL     1      44.840   4.725  11.372  0.00  0.00    +0.000 A 
ATOM     34  H   UNL     1      43.199   3.267  13.825  0.00  0.00    +0.000 HD
ENDBRANCH  21  24
ENDBRANCH  19  20
ENDBRANCH   4  19
TORSDOF 8
ENDMDL
MODEL 5
REMARK VINA RESULT:    -7.276      3.938      9.973
REMARK INTER + INTRA:         -11.694
REMARK INTER:                  -9.596
REMARK INTRA:                  -2.098
REMARK UNBOUND:                -1.015
REMARK  Name = 
REMARK  8 active torsions:
REMARK  status: ('A' for Active; 'I' for Inactive)
REMARK    1  A    between atoms: C_2  and  C_3
REMARK    2  A    between atoms: C_3  and  N_4
REMARK    3  A    between atoms: C_3  and  C_12
REMARK    4  A    between atoms: N_4  and  C_5
REMARK    5  A    between atoms: C_5  and  C_6
REMARK    6  A    between atoms: C_15  and  C_16
REMARK    7  A    between atoms: C_16  and  N_17
REMARK    8  A    between atoms: C_18  and  C_20
REMARK                            x       y       z     vdW  Elec       q    Type
REMARK                         _______ _______ _______ _____ _____    ______ ____
ROOT
ATOM      1  C   UNL     1      51.225   4.965  17.894  0.00  0.00    +0.000 A 
ATOM      2  C   UNL     1      50.849   3.619  18.028  0.00  0.00    +0.000 A 
ATOM      3  C   UNL     1      49.590   3.193  17.614  0.00  0.00    +0.000 A 
ATOM      4  C   UNL     1      48.697   4.083  17.005  0.00  0.00    +0.000 A 
ATOM      5  C   UNL     1      49.079   5.420  16.840  0.00  0.00    +0.000 A 
ATOM      6  C   UNL     1      50.324   5.857  17.284  0.00  0.00    +0.000 A 
ENDROOT
BRANCH   1   7
ATOM      7  C   UNL     1      52.537   5.452  18.521  0.00  0.00    +0.000 C 
BRANCH   7   9
ATOM      8  N   UNL     1      54.195   6.316  16.463  0.00  0.00    +0.000 NA
ATOM      9  C   UNL     1      53.443   5.924  17.397  0.00  0.00    +0.000 C 
ENDBRANCH   7   9
BRANCH   7  10
ATOM     10  N   UNL     1      52.293   6.527  19.501  0.00  0.00    +0.000 NA
ATOM     11  H   UNL     1      51.594   7.167  19.123  0.00  0.00    +0.000 HD
BRANCH  10  12
ATOM     12  C   UNL     1      51.796   6.023  20.783  0.00  0.00    +0.000 C 
BRANCH  12  13
ATOM     13  C   UNL     1      50.294   6.067  20.836  0.00  0.00    +0.000 A 
ATOM     14  C   UNL     1      49.598   7.226  20.466  0.00  0.00    +0.000 A 
ATOM     15  C   UNL     1      48.204   7.241  20.472  0.00  0.00    +0.000 A 
ATOM     16  C   UNL     1      47.499   6.102  20.856  0.00  0.00    +0.000 A 
ATOM     17  C   UNL     1      48.184   4.951  21.246  0.00  0.00    +0.000 A 
ATOM     18  C   UNL     1      49.575   4.934  21.234  0.00  0.00    +0.000 A 
ENDBRANCH  12  13
ENDBRANCH  10  12
ENDBRANCH   7  10
ENDBRANCH   1   7
BRANCH   4  19
ATOM     19  C   UNL     1      47.335   3.621  16.548  0.00  0.00    +0.000 C 
BRANCH  19  20
ATOM     20  N   UNL     1      46.751   4.525  15.592  0.00  0.00    +0.000 N 
ATOM     21  C   UNL     1      46.803   4.324  14.238  0.00  0.00    +0.000 C 
ATOM     22  O   UNL     1      47.352   3.350  13.731  0.00  0.00    +0.000 OA
ATOM     23  H   UNL     1      46.522   5.450  15.936  0.00  0.00    +0.000 HD
BRANCH  21  24
ATOM     24  C   UNL     1      46.097   5.321  13.426  0.00  0.00    +0.000 A 
ATOM     25  C   UNL     1      46.699   6.541  13.154  0.00  0.00    +0.000 A 
ATOM     26  S   UNL     1      45.765   7.548  12.141  0.00  0.00    +0.000 S 
ATOM     27  C   UNL     1      44.500   6.411  12.083  0.00  0.00    +0.000 A 
ATOM     28  N   UNL     1      43.363   6.665  11.384  0.00  0.00    +0.000 NA
ATOM     29  C   UNL     1      42.474   5.728  11.447  0.00  0.00    +0.000 A 
ATOM     30  N   UNL     1      42.624   4.550  12.133  0.00  0.00    +0.000 N 
ATOM     31  C   UNL     1      43.781   4.233  12.811  0.00  0.00    +0.000 A 
ATOM     32  O   UNL     1      43.920   3.134  13.347  0.00  0.00    +0.000 OA
ATOM     33  C   UNL     1      44.794   5.264  12.798  0.00  0.00    +0.000 A 
ATOM     34  H   UNL     1      41.900   3.847  12.125  0.00  0.00    +0.000 HD
ENDBRANCH  21  24
ENDBRANCH  19  20
ENDBRANCH   4  19
TORSDOF 8
ENDMDL
MODEL 6
REMARK VINA RESULT:    -7.196      3.996      9.266
REMARK INTER + INTRA:         -11.576
REMARK INTER:                  -9.383
REMARK INTRA:                  -2.194
REMARK UNBOUND:                -1.015
REMARK  Name = 
REMARK  8 active torsions:
REMARK  status: ('A' for Active; 'I' for Inactive)
REMARK    1  A    between atoms: C_2  and  C_3
REMARK    2  A    between atoms: C_3  and  N_4
REMARK    3  A    between atoms: C_3  and  C_12
REMARK    4  A    between atoms: N_4  and  C_5
REMARK    5  A    between atoms: C_5  and  C_6
REMARK    6  A    between atoms: C_15  and  C_16
REMARK    7  A    between atoms: C_16  and  N_17
REMARK    8  A    between atoms: C_18  and  C_20
REMARK                            x       y       z     vdW  Elec       q    Type
REMARK                         _______ _______ _______ _____ _____    ______ ____
ROOT
ATOM      1  C   UNL     1      50.918   4.309  18.579  0.00  0.00    +0.000 A 
ATOM      2  C   UNL     1      49.776   4.966  19.063  0.00  0.00    +0.000 A 
ATOM      3  C   UNL     1      48.525   4.709  18.509  0.00  0.00    +0.000 A 
ATOM      4  C   UNL     1      48.372   3.750  17.499  0.00  0.00    +0.000 A 
ATOM      5  C   UNL     1      49.504   3.070  17.034  0.00  0.00    +0.000 A 
ATOM      6  C   UNL     1      50.761   3.349  17.563  0.00  0.00    +0.000 A 
ENDROOT
BRANCH   1   7
ATOM      7  C   UNL     1      52.305   4.738  19.072  0.00  0.00    +0.000 C 
BRANCH   7   9
ATOM      8  N   UNL     1      53.751   2.436  19.653  0.00  0.00    +0.000 NA
ATOM      9  C   UNL     1      53.095   3.480  19.390  0.00  0.00    +0.000 C 
ENDBRANCH   7   9
BRANCH   7  10
ATOM     10  N   UNL     1      52.996   5.566  18.066  0.00  0.00    +0.000 NA
ATOM     11  H   UNL     1      52.704   5.267  17.135  0.00  0.00    +0.000 HD
BRANCH  10  12
ATOM     12  C   UNL     1      52.691   6.992  18.199  0.00  0.00    +0.000 C 
BRANCH  12  13
ATOM     13  C   UNL     1      51.478   7.363  17.391  0.00  0.00    +0.000 A 
ATOM     14  C   UNL     1      51.254   6.789  16.132  0.00  0.00    +0.000 A 
ATOM     15  C   UNL     1      50.101   7.104  15.413  0.00  0.00    +0.000 A 
ATOM     16  C   UNL     1      49.174   7.998  15.943  0.00  0.00    +0.000 A 
ATOM     17  C   UNL     1      49.399   8.589  17.186  0.00  0.00    +0.000 A 
ATOM     18  C   UNL     1      50.546   8.271  17.907  0.00  0.00    +0.000 A 
ENDBRANCH  12  13
ENDBRANCH  10  12
ENDBRANCH   7  10
ENDBRANCH   1   7
BRANCH   4  19
ATOM     19  C   UNL     1      47.016   3.464  16.902  0.00  0.00    +0.000 C 
BRANCH  19  20
ATOM     20  N   UNL     1      46.668   4.408  15.873  0.00  0.00    +0.000 N 
ATOM     21  C   UNL     1      46.812   4.150  14.536  0.00  0.00    +0.000 C 
ATOM     22  O   UNL     1      47.249   3.086  14.107  0.00  0.00    +0.000 OA
ATOM     23  H   UNL     1      46.553   5.370  16.172  0.00  0.00    +0.000 HD
BRANCH  21  24
ATOM     24  C   UNL     1      46.344   5.211  13.637  0.00  0.00    +0.000 A 
ATOM     25  C   UNL     1      47.169   6.291  13.356  0.00  0.00    +0.000 A 
ATOM     26  S   UNL     1      46.492   7.391  12.241  0.00  0.00    +0.000 S 
ATOM     27  C   UNL     1      45.052   6.490  12.142  0.00  0.00    +0.000 A 
ATOM     28  N   UNL     1      44.022   6.901  11.356  0.00  0.00    +0.000 NA
ATOM     29  C   UNL     1      42.978   6.138  11.396  0.00  0.00    +0.000 A 
ATOM     30  N   UNL     1      42.876   4.990  12.139  0.00  0.00    +0.000 N 
ATOM     31  C   UNL     1      43.914   4.512  12.908  0.00  0.00    +0.000 A 
ATOM     32  O   UNL     1      43.823   3.436  13.497  0.00  0.00    +0.000 OA
ATOM     33  C   UNL     1      45.093   5.349  12.922  0.00  0.00    +0.000 A 
ATOM     34  H   UNL     1      42.040   4.424  12.110  0.00  0.00    +0.000 HD
ENDBRANCH  21  24
ENDBRANCH  19  20
ENDBRANCH   4  19
TORSDOF 8
ENDMDL
MODEL 7
REMARK VINA RESULT:    -7.056      4.218      5.680
REMARK INTER + INTRA:         -11.371
REMARK INTER:                 -10.117
REMARK INTRA:                  -1.254
REMARK UNBOUND:                -1.015
REMARK  Name = 
REMARK  8 active torsions:
REMARK  status: ('A' for Active; 'I' for Inactive)
REMARK    1  A    between atoms: C_2  and  C_3
REMARK    2  A    between atoms: C_3  and  N_4
REMARK    3  A    between atoms: C_3  and  C_12
REMARK    4  A    between atoms: N_4  and  C_5
REMARK    5  A    between atoms: C_5  and  C_6
REMARK    6  A    between atoms: C_15  and  C_16
REMARK    7  A    between atoms: C_16  and  N_17
REMARK    8  A    between atoms: C_18  and  C_20
REMARK                            x       y       z     vdW  Elec       q    Type
REMARK                         _______ _______ _______ _____ _____    ______ ____
ROOT
ATOM      1  C   UNL     1      45.658   6.139  11.808  0.00  0.00    +0.000 A 
ATOM      2  C   UNL     1      45.204   7.460  11.946  0.00  0.00    +0.000 A 
ATOM      3  C   UNL     1      45.902   8.367  12.740  0.00  0.00    +0.000 A 
ATOM      4  C   UNL     1      47.098   7.998  13.368  0.00  0.00    +0.000 A 
ATOM      5  C   UNL     1      47.572   6.690  13.208  0.00  0.00    +0.000 A 
ATOM      6  C   UNL     1      46.859   5.771  12.442  0.00  0.00    +0.000 A 
ENDROOT
BRANCH   1   7
ATOM      7  C   UNL     1      44.783   5.108  11.084  0.00  0.00    +0.000 C 
BRANCH   7   9
ATOM      8  N   UNL     1      42.134   5.622  11.754  0.00  0.00    +0.000 NA
ATOM      9  C   UNL     1      43.336   5.389  11.450  0.00  0.00    +0.000 C 
ENDBRANCH   7   9
BRANCH   7  10
ATOM     10  N   UNL     1      44.989   5.164   9.626  0.00  0.00    +0.000 NA
ATOM     11  H   UNL     1      45.991   5.178   9.434  0.00  0.00    +0.000 HD
BRANCH  10  12
ATOM     12  C   UNL     1      44.411   4.014   8.927  0.00  0.00    +0.000 C 
BRANCH  12  13
ATOM     13  C   UNL     1      45.483   3.171   8.294  0.00  0.00    +0.000 A 
ATOM     14  C   UNL     1      45.585   1.805   8.586  0.00  0.00    +0.000 A 
ATOM     15  C   UNL     1      46.552   1.022   7.955  0.00  0.00    +0.000 A 
ATOM     16  C   UNL     1      47.426   1.602   7.039  0.00  0.00    +0.000 A 
ATOM     17  C   UNL     1      47.345   2.966   6.757  0.00  0.00    +0.000 A 
ATOM     18  C   UNL     1      46.376   3.746   7.381  0.00  0.00    +0.000 A 
ENDBRANCH  12  13
ENDBRANCH  10  12
ENDBRANCH   7  10
ENDBRANCH   1   7
BRANCH   4  19
ATOM     19  C   UNL     1      47.860   8.981  14.222  0.00  0.00    +0.000 C 
BRANCH  19  20
ATOM     20  N   UNL     1      49.244   9.069  13.841  0.00  0.00    +0.000 N 
ATOM     21  C   UNL     1      49.769  10.130  13.152  0.00  0.00    +0.000 C 
ATOM     22  O   UNL     1      49.096  11.098  12.808  0.00  0.00    +0.000 OA
ATOM     23  H   UNL     1      49.770   8.202  13.870  0.00  0.00    +0.000 HD
BRANCH  21  24
ATOM     24  C   UNL     1      51.215  10.069  12.908  0.00  0.00    +0.000 A 
ATOM     25  C   UNL     1      52.049  11.031  13.459  0.00  0.00    +0.000 A 
ATOM     26  S   UNL     1      53.702  10.765  13.131  0.00  0.00    +0.000 S 
ATOM     27  C   UNL     1      53.351   9.390  12.191  0.00  0.00    +0.000 A 
ATOM     28  N   UNL     1      54.343   8.685  11.587  0.00  0.00    +0.000 NA
ATOM     29  C   UNL     1      53.934   7.680  10.882  0.00  0.00    +0.000 A 
ATOM     30  N   UNL     1      52.623   7.305  10.740  0.00  0.00    +0.000 N 
ATOM     31  C   UNL     1      51.594   7.962  11.378  0.00  0.00    +0.000 A 
ATOM     32  O   UNL     1      50.436   7.552  11.300  0.00  0.00    +0.000 OA
ATOM     33  C   UNL     1      51.996   9.114  12.152  0.00  0.00    +0.000 A 
ATOM     34  H   UNL     1      52.369   6.495  10.193  0.00  0.00    +0.000 HD
ENDBRANCH  21  24
ENDBRANCH  19  20
ENDBRANCH   4  19
TORSDOF 8
ENDMDL
MODEL 8
REMARK VINA RESULT:    -7.042      3.444      8.962
REMARK INTER + INTRA:         -11.351
REMARK INTER:                  -9.654
REMARK INTRA:                  -1.697
REMARK UNBOUND:                -1.015
REMARK  Name = 
REMARK  8 active torsions:
REMARK  status: ('A' for Active; 'I' for Inactive)
REMARK    1  A    between atoms: C_2  and  C_3
REMARK    2  A    between atoms: C_3  and  N_4
REMARK    3  A    between atoms: C_3  and  C_12
REMARK    4  A    between atoms: N_4  and  C_5
REMARK    5  A    between atoms: C_5  and  C_6
REMARK    6  A    between atoms: C_15  and  C_16
REMARK    7  A    between atoms: C_16  and  N_17
REMARK    8  A    between atoms: C_18  and  C_20
REMARK                            x       y       z     vdW  Elec       q    Type
REMARK                         _______ _______ _______ _____ _____    ______ ____
ROOT
ATOM      1  C   UNL     1      49.325   8.284  16.162  0.00  0.00    +0.000 A 
ATOM      2  C   UNL     1      50.036   7.465  15.270  0.00  0.00    +0.000 A 
ATOM      3  C   UNL     1      49.579   7.274  13.969  0.00  0.00    +0.000 A 
ATOM      4  C   UNL     1      48.434   7.936  13.507  0.00  0.00    +0.000 A 
ATOM      5  C   UNL     1      47.739   8.778  14.383  0.00  0.00    +0.000 A 
ATOM      6  C   UNL     1      48.175   8.945  15.695  0.00  0.00    +0.000 A 
ENDROOT
BRANCH   1   7
ATOM      7  C   UNL     1      49.738   8.336  17.638  0.00  0.00    +0.000 C 
BRANCH   7   9
ATOM      8  N   UNL     1      47.778   9.739  19.022  0.00  0.00    +0.000 NA
ATOM      9  C   UNL     1      48.667   9.103  18.394  0.00  0.00    +0.000 C 
ENDBRANCH   7   9
BRANCH   7  10
ATOM     10  N   UNL     1      49.919   6.980  18.189  0.00  0.00    +0.000 NA
ATOM     11  H   UNL     1      50.384   7.052  19.095  0.00  0.00    +0.000 HD
BRANCH  10  12
ATOM     12  C   UNL     1      48.652   6.274  18.386  0.00  0.00    +0.000 C 
BRANCH  12  13
ATOM     13  C   UNL     1      48.691   4.908  17.759  0.00  0.00    +0.000 A 
ATOM     14  C   UNL     1      47.671   4.488  16.894  0.00  0.00    +0.000 A 
ATOM     15  C   UNL     1      47.742   3.238  16.280  0.00  0.00    +0.000 A 
ATOM     16  C   UNL     1      48.826   2.400  16.533  0.00  0.00    +0.000 A 
ATOM     17  C   UNL     1      49.835   2.802  17.408  0.00  0.00    +0.000 A 
ATOM     18  C   UNL     1      49.768   4.052  18.016  0.00  0.00    +0.000 A 
ENDBRANCH  12  13
ENDBRANCH  10  12
ENDBRANCH   7  10
ENDBRANCH   1   7
BRANCH   4  19
ATOM     19  C   UNL     1      47.941   7.737  12.095  0.00  0.00    +0.000 C 
BRANCH  19  20
ATOM     20  N   UNL     1      47.121   6.561  11.970  0.00  0.00    +0.000 N 
ATOM     21  C   UNL     1      45.757   6.603  11.864  0.00  0.00    +0.000 C 
ATOM     22  O   UNL     1      45.122   7.654  11.863  0.00  0.00    +0.000 OA
ATOM     23  H   UNL     1      47.561   5.683  12.222  0.00  0.00    +0.000 HD
BRANCH  21  24
ATOM     24  C   UNL     1      45.099   5.304  11.681  0.00  0.00    +0.000 A 
ATOM     25  C   UNL     1      44.414   4.723  12.739  0.00  0.00    +0.000 A 
ATOM     26  S   UNL     1      43.655   3.251  12.329  0.00  0.00    +0.000 S 
ATOM     27  C   UNL     1      44.267   3.313  10.742  0.00  0.00    +0.000 A 
ATOM     28  N   UNL     1      44.001   2.322   9.851  0.00  0.00    +0.000 NA
ATOM     29  C   UNL     1      44.551   2.482   8.691  0.00  0.00    +0.000 A 
ATOM     30  N   UNL     1      45.329   3.552   8.334  0.00  0.00    +0.000 N 
ATOM     31  C   UNL     1      45.579   4.602   9.191  0.00  0.00    +0.000 A 
ATOM     32  O   UNL     1      46.212   5.589   8.816  0.00  0.00    +0.000 OA
ATOM     33  C   UNL     1      45.014   4.454  10.513  0.00  0.00    +0.000 A 
ATOM     34  H   UNL     1      45.712   3.630   7.403  0.00  0.00    +0.000 HD
ENDBRANCH  21  24
ENDBRANCH  19  20
ENDBRANCH   4  19
TORSDOF 8
ENDMDL
MODEL 9
REMARK VINA RESULT:    -6.741      1.799      2.411
REMARK INTER + INTRA:         -10.909
REMARK INTER:                 -10.040
REMARK INTRA:                  -0.869
REMARK UNBOUND:                -1.015
REMARK  Name = 
REMARK  8 active torsions:
REMARK  status: ('A' for Active; 'I' for Inactive)
REMARK    1  A    between atoms: C_2  and  C_3
REMARK    2  A    between atoms: C_3  and  N_4
REMARK    3  A    between atoms: C_3  and  C_12
REMARK    4  A    between atoms: N_4  and  C_5
REMARK    5  A    between atoms: C_5  and  C_6
REMARK    6  A    between atoms: C_15  and  C_16
REMARK    7  A    between atoms: C_16  and  N_17
REMARK    8  A    between atoms: C_18  and  C_20
REMARK                            x       y       z     vdW  Elec       q    Type
REMARK                         _______ _______ _______ _____ _____    ______ ____
ROOT
ATOM      1  C   UNL     1      45.761   6.942  12.466  0.00  0.00    +0.000 A 
ATOM      2  C   UNL     1      46.544   5.787  12.618  0.00  0.00    +0.000 A 
ATOM      3  C   UNL     1      47.742   5.833  13.325  0.00  0.00    +0.000 A 
ATOM      4  C   UNL     1      48.163   7.017  13.946  0.00  0.00    +0.000 A 
ATOM      5  C   UNL     1      47.370   8.164  13.823  0.00  0.00    +0.000 A 
ATOM      6  C   UNL     1      46.188   8.129  13.088  0.00  0.00    +0.000 A 
ENDROOT
BRANCH   1   7
ATOM      7  C   UNL     1      44.545   6.917  11.532  0.00  0.00    +0.000 C 
BRANCH   7   9
ATOM      8  N   UNL     1      43.843   9.549  10.976  0.00  0.00    +0.000 NA
ATOM      9  C   UNL     1      44.162   8.355  11.228  0.00  0.00    +0.000 C 
ENDBRANCH   7   9
BRANCH   7  10
ATOM     10  N   UNL     1      44.836   6.166  10.297  0.00  0.00    +0.000 NA
ATOM     11  H   UNL     1      45.840   5.987  10.248  0.00  0.00    +0.000 HD
BRANCH  10  12
ATOM     12  C   UNL     1      44.144   4.878  10.240  0.00  0.00    +0.000 C 
BRANCH  12  13
ATOM     13  C   UNL     1      44.894   3.899   9.378  0.00  0.00    +0.000 A 
ATOM     14  C   UNL     1      44.766   2.519   9.585  0.00  0.00    +0.000 A 
ATOM     15  C   UNL     1      45.427   1.619   8.749  0.00  0.00    +0.000 A 
ATOM     16  C   UNL     1      46.223   2.094   7.709  0.00  0.00    +0.000 A 
ATOM     17  C   UNL     1      46.372   3.466   7.509  0.00  0.00    +0.000 A 
ATOM     18  C   UNL     1      45.708   4.364   8.339  0.00  0.00    +0.000 A 
ENDBRANCH  12  13
ENDBRANCH  10  12
ENDBRANCH   7  10
ENDBRANCH   1   7
BRANCH   4  19
ATOM     19  C   UNL     1      49.457   7.068  14.720  0.00  0.00    +0.000 C 
BRANCH  19  20
ATOM     20  N   UNL     1      49.237   7.044  16.142  0.00  0.00    +0.000 N 
ATOM     21  C   UNL     1      49.043   5.890  16.853  0.00  0.00    +0.000 C 
ATOM     22  O   UNL     1      49.043   4.779  16.331  0.00  0.00    +0.000 OA
ATOM     23  H   UNL     1      48.974   7.925  16.567  0.00  0.00    +0.000 HD
BRANCH  21  24
ATOM     24  C   UNL     1      48.898   6.061  18.303  0.00  0.00    +0.000 A 
ATOM     25  C   UNL     1      47.830   6.788  18.809  0.00  0.00    +0.000 A 
ATOM     26  S   UNL     1      47.781   6.826  20.514  0.00  0.00    +0.000 S 
ATOM     27  C   UNL     1      49.218   5.923  20.631  0.00  0.00    +0.000 A 
ATOM     28  N   UNL     1      49.753   5.614  21.841  0.00  0.00    +0.000 NA
ATOM     29  C   UNL     1      50.861   4.947  21.784  0.00  0.00    +0.000 A 
ATOM     30  N   UNL     1      51.475   4.547  20.625  0.00  0.00    +0.000 N 
ATOM     31  C   UNL     1      50.938   4.795  19.381  0.00  0.00    +0.000 A 
ATOM     32  O   UNL     1      51.467   4.351  18.362  0.00  0.00    +0.000 OA
ATOM     33  C   UNL     1      49.716   5.567  19.390  0.00  0.00    +0.000 A 
ATOM     34  H   UNL     1      52.329   4.008  20.647  0.00  0.00    +0.000 HD
ENDBRANCH  21  24
ENDBRANCH  19  20
ENDBRANCH   4  19
TORSDOF 8
ENDMDL
