MODEL 1
REMARK VINA RESULT:    -8.161      0.000      0.000
REMARK INTER + INTRA:         -12.885
REMARK INTER:                 -12.216
REMARK INTRA:                  -0.668
REMARK UNBOUND:                -0.668
REMARK  Name = 
REMARK  9 active torsions:
REMARK  status: ('A' for Active; 'I' for Inactive)
REMARK    1  A    between atoms: N_1  and  C_2
REMARK    2  A    between atoms: C_2  and  N_3
REMARK    3  A    between atoms: C_2  and  C_20
REMARK    4  A    between atoms: N_3  and  C_4
REMARK    5  A    between atoms: C_4  and  C_5
REMARK    6  A    between atoms: C_8  and  C_9
REMARK    7  A    between atoms: C_9  and  N_10
REMARK    8  A    between atoms: N_10  and  C_11
REMARK    9  A    between atoms: C_11  and  C_12
REMARK                            x       y       z     vdW  Elec       q    Type
REMARK                         _______ _______ _______ _____ _____    ______ ____
ROOT
ATOM      1  C   UNL     1      47.342   4.716  14.787  0.00  0.00    +0.000 C 
ENDROOT
BRANCH   1   2
ATOM      2  C   UNL     1      46.488   4.627  13.535  0.00  0.00    +0.000 A 
ATOM      3  C   UNL     1      45.987   3.401  13.085  0.00  0.00    +0.000 A 
ATOM      4  C   UNL     1      45.140   3.341  11.971  0.00  0.00    +0.000 A 
ATOM      5  C   UNL     1      44.763   4.504  11.288  0.00  0.00    +0.000 A 
ATOM      6  C   UNL     1      45.281   5.731  11.729  0.00  0.00    +0.000 A 
ATOM      7  C   UNL     1      46.134   5.788  12.838  0.00  0.00    +0.000 A 
BRANCH   5   8
ATOM      8  C   UNL     1      43.825   4.440  10.105  0.00  0.00    +0.000 C 
BRANCH   8   9
ATOM      9  N   UNL     1      44.326   3.513   9.090  0.00  0.00    +0.000 NA
ATOM     10  H   UNL     1      43.570   3.303   8.438  0.00  0.00    +0.000 HD
BRANCH   9  11
ATOM     11  C   UNL     1      45.433   4.102   8.325  0.00  0.00    +0.000 C 
BRANCH  11  12
ATOM     12  C   UNL     1      46.168   3.066   7.494  0.00  0.00    +0.000 A 
ATOM     13  C   UNL     1      46.616   3.385   6.211  0.00  0.00    +0.000 A 
ATOM     14  C   UNL     1      47.296   2.421   5.473  0.00  0.00    +0.000 A 
ATOM     15  C   UNL     1      47.508   1.166   6.026  0.00  0.00    +0.000 A 
ATOM     16  C   UNL     1      47.031   0.925   7.304  0.00  0.00    +0.000 A 
ATOM     17  N   UNL     1      46.369   1.843   8.048  0.00  0.00    +0.000 NA
ENDBRANCH  11  12
ENDBRANCH   9  11
ENDBRANCH   8   9
ENDBRANCH   5   8
ENDBRANCH   1   2
BRANCH   1  18
ATOM     18  N   UNL     1      47.485   3.425  15.462  0.00  0.00    +0.000 NA
ATOM     19  H   UNL     1      46.636   2.891  15.288  0.00  0.00    +0.000 HD
BRANCH  18  20
ATOM     20  C   UNL     1      47.639   3.529  16.893  0.00  0.00    +0.000 C 
BRANCH  20  21
ATOM     21  C   UNL     1      49.034   3.985  17.272  0.00  0.00    +0.000 A 
ATOM     22  C   UNL     1      49.311   5.312  17.576  0.00  0.00    +0.000 A 
ATOM     23  S   UNL     1      50.886   5.563  18.173  0.00  0.00    +0.000 S 
ATOM     24  C   UNL     1      51.273   3.919  17.990  0.00  0.00    +0.000 A 
ATOM     25  N   UNL     1      52.473   3.456  18.399  0.00  0.00    +0.000 NA
ATOM     26  C   UNL     1      52.672   2.148  18.152  0.00  0.00    +0.000 A 
ATOM     27  C   UNL     1      51.790   1.321  17.483  0.00  0.00    +0.000 A 
ATOM     28  C   UNL     1      50.560   1.840  17.086  0.00  0.00    +0.000 A 
ATOM     29  C   UNL     1      50.249   3.186  17.391  0.00  0.00    +0.000 A 
ENDBRANCH  20  21
BRANCH  20  30
ATOM     30  N   UNL     1      46.715   4.519  17.369  0.00  0.00    +0.000 NA
ATOM     31  H   UNL     1      45.776   4.241  17.113  0.00  0.00    +0.000 HD
ATOM     32  H   UNL     1      46.915   5.363  16.831  0.00  0.00    +0.000 HD
ENDBRANCH  20  30
ENDBRANCH  18  20
ENDBRANCH   1  18
TORSDOF 9
ENDMDL
MODEL 2
REMARK VINA RESULT:    -7.868      1.445      2.543
REMARK INTER + INTRA:         -12.446
REMARK INTER:                 -11.733
REMARK INTRA:                  -0.713
REMARK UNBOUND:                -0.668
REMARK  Name = 
REMARK  9 active torsions:
REMARK  status: ('A' for Active; 'I' for Inactive)
REMARK    1  A    between atoms: N_1  and  C_2
REMARK    2  A    between atoms: C_2  and  N_3
REMARK    3  A    between atoms: C_2  and  C_20
REMARK    4  A    between atoms: N_3  and  C_4
REMARK    5  A    between atoms: C_4  and  C_5
REMARK    6  A    between atoms: C_8  and  C_9
REMARK    7  A    between atoms: C_9  and  N_10
REMARK    8  A    between atoms: N_10  and  C_11
REMARK    9  A    between atoms: C_11  and  C_12
REMARK                            x       y       z     vdW  Elec       q    Type
REMARK                         _______ _______ _______ _____ _____    ______ ____
ROOT
ATOM      1  C   UNL     1      47.454   4.631  14.748  0.00  0.00    +0.000 C 
ENDROOT
BRANCH   1   2
ATOM      2  C   UNL     1      46.532   4.616  13.542  0.00  0.00    +0.000 A 
ATOM      3  C   UNL     1      46.025   3.416  13.032  0.00  0.00    +0.000 A 
ATOM      4  C   UNL     1      45.117   3.420  11.966  0.00  0.00    +0.000 A 
ATOM      5  C   UNL     1      44.684   4.622  11.391  0.00  0.00    +0.000 A 
ATOM      6  C   UNL     1      45.207   5.824  11.891  0.00  0.00    +0.000 A 
ATOM      7  C   UNL     1      46.121   5.817  12.952  0.00  0.00    +0.000 A 
BRANCH   5   8
ATOM      8  C   UNL     1      43.681   4.625  10.261  0.00  0.00    +0.000 C 
BRANCH   8   9
ATOM      9  N   UNL     1      44.092   3.712   9.195  0.00  0.00    +0.000 NA
ATOM     10  H   UNL     1      43.327   3.625   8.526  0.00  0.00    +0.000 HD
BRANCH   9  11
ATOM     11  C   UNL     1      45.267   4.221   8.475  0.00  0.00    +0.000 C 
BRANCH  11  12
ATOM     12  C   UNL     1      46.015   3.118   7.748  0.00  0.00    +0.000 A 
ATOM     13  C   UNL     1      46.612   3.370   6.512  0.00  0.00    +0.000 A 
ATOM     14  C   UNL     1      47.300   2.345   5.871  0.00  0.00    +0.000 A 
ATOM     15  C   UNL     1      47.373   1.096   6.471  0.00  0.00    +0.000 A 
ATOM     16  C   UNL     1      46.753   0.923   7.698  0.00  0.00    +0.000 A 
ATOM     17  N   UNL     1      46.080   1.901   8.348  0.00  0.00    +0.000 NA
ENDBRANCH  11  12
ENDBRANCH   9  11
ENDBRANCH   8   9
ENDBRANCH   5   8
ENDBRANCH   1   2
BRANCH   1  18
ATOM     18  N   UNL     1      46.768   4.257  15.985  0.00  0.00    +0.000 NA
ATOM     19  H   UNL     1      46.625   5.108  16.527  0.00  0.00    +0.000 HD
BRANCH  18  20
ATOM     20  C   UNL     1      47.516   3.344  16.814  0.00  0.00    +0.000 C 
BRANCH  20  21
ATOM     21  C   UNL     1      48.577   4.067  17.621  0.00  0.00    +0.000 A 
ATOM     22  C   UNL     1      49.903   3.653  17.618  0.00  0.00    +0.000 A 
ATOM     23  S   UNL     1      50.956   4.724  18.421  0.00  0.00    +0.000 S 
ATOM     24  C   UNL     1      49.670   5.748  18.849  0.00  0.00    +0.000 A 
ATOM     25  N   UNL     1      49.915   6.907  19.496  0.00  0.00    +0.000 NA
ATOM     26  C   UNL     1      48.807   7.600  19.821  0.00  0.00    +0.000 A 
ATOM     27  C   UNL     1      47.511   7.180  19.597  0.00  0.00    +0.000 A 
ATOM     28  C   UNL     1      47.306   5.980  18.919  0.00  0.00    +0.000 A 
ATOM     29  C   UNL     1      48.428   5.242  18.471  0.00  0.00    +0.000 A 
ENDBRANCH  20  21
BRANCH  20  30
ATOM     30  N   UNL     1      46.605   2.737  17.742  0.00  0.00    +0.000 NA
ATOM     31  H   UNL     1      47.050   2.678  18.649  0.00  0.00    +0.000 HD
ATOM     32  H   UNL     1      46.488   1.774  17.422  0.00  0.00    +0.000 HD
ENDBRANCH  20  30
ENDBRANCH  18  20
ENDBRANCH   1  18
TORSDOF 9
ENDMDL
MODEL 3
REMARK VINA RESULT:    -7.833      2.203      2.964
REMARK INTER + INTRA:         -12.394
REMARK INTER:                 -11.214
REMARK INTRA:                  -1.180
REMARK UNBOUND:                -0.668
REMARK  Name = 
REMARK  9 active torsions:
REMARK  status: ('A' for Active; 'I' for Inactive)
REMARK    1  A    between atoms: N_1  and  C_2
REMARK    2  A    between atoms: C_2  and  N_3
REMARK    3  A    between atoms: C_2  and  C_20
REMARK    4  A    between atoms: N_3  and  C_4
REMARK    5  A    between atoms: C_4  and  C_5
REMARK    6  A    between atoms: C_8  and  C_9
REMARK    7  A    between atoms: C_9  and  N_10
REMARK    8  A    between atoms: N_10  and  C_11
REMARK    9  A    between atoms: C_11  and  C_12
REMARK                            x       y       z     vdW  Elec       q    Type
REMARK                         _______ _______ _______ _____ _____    ______ ____
ROOT
ATOM      1  C   UNL     1      47.211   7.770  12.885  0.00  0.00    +0.000 C 
ENDROOT
BRANCH   1   2
ATOM      2  C   UNL     1      46.348   6.624  12.388  0.00  0.00    +0.000 A 
ATOM      3  C   UNL     1      45.679   5.781  13.281  0.00  0.00    +0.000 A 
ATOM      4  C   UNL     1      44.827   4.774  12.811  0.00  0.00    +0.000 A 
ATOM      5  C   UNL     1      44.612   4.593  11.439  0.00  0.00    +0.000 A 
ATOM      6  C   UNL     1      45.298   5.428  10.543  0.00  0.00    +0.000 A 
ATOM      7  C   UNL     1      46.156   6.428  11.015  0.00  0.00    +0.000 A 
BRANCH   5   8
ATOM      8  C   UNL     1      43.669   3.526  10.935  0.00  0.00    +0.000 C 
BRANCH   8   9
ATOM      9  N   UNL     1      43.917   3.234   9.523  0.00  0.00    +0.000 NA
ATOM     10  H   UNL     1      44.472   3.991   9.125  0.00  0.00    +0.000 HD
BRANCH   9  11
ATOM     11  C   UNL     1      44.671   1.984   9.358  0.00  0.00    +0.000 C 
BRANCH  11  12
ATOM     12  C   UNL     1      45.744   2.102   8.289  0.00  0.00    +0.000 A 
ATOM     13  C   UNL     1      45.911   3.298   7.591  0.00  0.00    +0.000 A 
ATOM     14  C   UNL     1      46.908   3.384   6.624  0.00  0.00    +0.000 A 
ATOM     15  C   UNL     1      47.707   2.278   6.372  0.00  0.00    +0.000 A 
ATOM     16  C   UNL     1      47.479   1.125   7.106  0.00  0.00    +0.000 A 
ATOM     17  N   UNL     1      46.520   1.012   8.055  0.00  0.00    +0.000 NA
ENDBRANCH  11  12
ENDBRANCH   9  11
ENDBRANCH   8   9
ENDBRANCH   5   8
ENDBRANCH   1   2
BRANCH   1  18
ATOM     18  N   UNL     1      47.437   7.718  14.329  0.00  0.00    +0.000 NA
ATOM     19  H   UNL     1      47.072   8.581  14.729  0.00  0.00    +0.000 HD
BRANCH  18  20
ATOM     20  C   UNL     1      48.829   7.632  14.700  0.00  0.00    +0.000 C 
BRANCH  20  21
ATOM     21  C   UNL     1      49.009   6.915  16.024  0.00  0.00    +0.000 A 
ATOM     22  C   UNL     1      49.720   7.487  17.072  0.00  0.00    +0.000 A 
ATOM     23  S   UNL     1      49.622   6.605  18.526  0.00  0.00    +0.000 S 
ATOM     24  C   UNL     1      48.676   5.401  17.791  0.00  0.00    +0.000 A 
ATOM     25  N   UNL     1      48.189   4.379  18.527  0.00  0.00    +0.000 NA
ATOM     26  C   UNL     1      47.499   3.468  17.816  0.00  0.00    +0.000 A 
ATOM     27  C   UNL     1      47.329   3.489  16.446  0.00  0.00    +0.000 A 
ATOM     28  C   UNL     1      47.843   4.567  15.727  0.00  0.00    +0.000 A 
ATOM     29  C   UNL     1      48.505   5.607  16.423  0.00  0.00    +0.000 A 
ENDBRANCH  20  21
BRANCH  20  30
ATOM     30  N   UNL     1      49.510   6.867  13.695  0.00  0.00    +0.000 NA
ATOM     31  H   UNL     1      50.080   7.490  13.137  0.00  0.00    +0.000 HD
ATOM     32  H   UNL     1      48.780   6.519  13.072  0.00  0.00    +0.000 HD
ENDBRANCH  20  30
ENDBRANCH  18  20
ENDBRANCH   1  18
TORSDOF 9
ENDMDL
MODEL 4
REMARK VINA RESULT:    -7.624      3.077      8.952
REMARK INTER + INTRA:         -12.081
REMARK INTER:                 -10.899
REMARK INTRA:                  -1.181
REMARK UNBOUND:                -0.668
REMARK  Name = 
REMARK  9 active torsions:
REMARK  status: ('A' for Active; 'I' for Inactive)
REMARK    1  A    between atoms: N_1  and  C_2
REMARK    2  A    between atoms: C_2  and  N_3
REMARK    3  A    between atoms: C_2  and  C_20
REMARK    4  A    between atoms: N_3  and  C_4
REMARK    5  A    between atoms: C_4  and  C_5
REMARK    6  A    between atoms: C_8  and  C_9
REMARK    7  A    between atoms: C_9  and  N_10
REMARK    8  A    between atoms: N_10  and  C_11
REMARK    9  A    between atoms: C_11  and  C_12
REMARK                            x       y       z     vdW  Elec       q    Type
REMARK                         _______ _______ _______ _____ _____    ______ ____
ROOT
ATOM      1  C   UNL     1      45.307   7.576  11.410  0.00  0.00    +0.000 C 
ENDROOT
BRANCH   1   2
ATOM      2  C   UNL     1      46.512   7.600  12.334  0.00  0.00    +0.000 A 
ATOM      3  C   UNL     1      47.568   6.697  12.170  0.00  0.00    +0.000 A 
ATOM      4  C   UNL     1      48.707   6.776  12.980  0.00  0.00    +0.000 A 
ATOM      5  C   UNL     1      48.826   7.765  13.964  0.00  0.00    +0.000 A 
ATOM      6  C   UNL     1      47.758   8.659  14.140  0.00  0.00    +0.000 A 
ATOM      7  C   UNL     1      46.616   8.573  13.334  0.00  0.00    +0.000 A 
BRANCH   5   8
ATOM      8  C   UNL     1      50.069   7.868  14.816  0.00  0.00    +0.000 C 
BRANCH   8   9
ATOM      9  N   UNL     1      50.457   6.556  15.335  0.00  0.00    +0.000 NA
ATOM     10  H   UNL     1      51.467   6.451  15.237  0.00  0.00    +0.000 HD
BRANCH   9  11
ATOM     11  C   UNL     1      50.124   6.422  16.760  0.00  0.00    +0.000 C 
BRANCH  11  12
ATOM     12  C   UNL     1      49.185   5.258  17.020  0.00  0.00    +0.000 A 
ATOM     13  C   UNL     1      49.251   4.559  18.227  0.00  0.00    +0.000 A 
ATOM     14  C   UNL     1      48.373   3.503  18.446  0.00  0.00    +0.000 A 
ATOM     15  C   UNL     1      47.458   3.164  17.460  0.00  0.00    +0.000 A 
ATOM     16  C   UNL     1      47.456   3.903  16.288  0.00  0.00    +0.000 A 
ATOM     17  N   UNL     1      48.294   4.938  16.047  0.00  0.00    +0.000 NA
ENDBRANCH  11  12
ENDBRANCH   9  11
ENDBRANCH   8   9
ENDBRANCH   5   8
ENDBRANCH   1   2
BRANCH   1  18
ATOM     18  N   UNL     1      44.096   7.098  12.079  0.00  0.00    +0.000 NA
ATOM     19  H   UNL     1      44.385   6.461  12.819  0.00  0.00    +0.000 HD
BRANCH  18  20
ATOM     20  C   UNL     1      43.202   6.368  11.213  0.00  0.00    +0.000 C 
BRANCH  20  21
ATOM     21  C   UNL     1      43.600   4.909  11.105  0.00  0.00    +0.000 A 
ATOM     22  C   UNL     1      43.163   3.963  12.025  0.00  0.00    +0.000 A 
ATOM     23  S   UNL     1      43.556   2.362  11.598  0.00  0.00    +0.000 S 
ATOM     24  C   UNL     1      44.373   2.880  10.202  0.00  0.00    +0.000 A 
ATOM     25  N   UNL     1      44.887   1.974   9.343  0.00  0.00    +0.000 NA
ATOM     26  C   UNL     1      45.552   2.515   8.305  0.00  0.00    +0.000 A 
ATOM     27  C   UNL     1      45.777   3.865   8.120  0.00  0.00    +0.000 A 
ATOM     28  C   UNL     1      45.221   4.764   9.029  0.00  0.00    +0.000 A 
ATOM     29  C   UNL     1      44.436   4.269  10.096  0.00  0.00    +0.000 A 
ENDBRANCH  20  21
BRANCH  20  30
ATOM     30  N   UNL     1      41.887   6.417  11.788  0.00  0.00    +0.000 NA
ATOM     31  H   UNL     1      41.377   5.588  11.512  0.00  0.00    +0.000 HD
ATOM     32  H   UNL     1      41.418   7.201  11.331  0.00  0.00    +0.000 HD
ENDBRANCH  20  30
ENDBRANCH  18  20
ENDBRANCH   1  18
TORSDOF 9
ENDMDL
MODEL 5
REMARK VINA RESULT:    -7.614      2.004      2.924
REMARK INTER + INTRA:         -12.066
REMARK INTER:                 -11.219
REMARK INTRA:                  -0.848
REMARK UNBOUND:                -0.668
REMARK  Name = 
REMARK  9 active torsions:
REMARK  status: ('A' for Active; 'I' for Inactive)
REMARK    1  A    between atoms: N_1  and  C_2
REMARK    2  A    between atoms: C_2  and  N_3
REMARK    3  A    between atoms: C_2  and  C_20
REMARK    4  A    between atoms: N_3  and  C_4
REMARK    5  A    between atoms: C_4  and  C_5
REMARK    6  A    between atoms: C_8  and  C_9
REMARK    7  A    between atoms: C_9  and  N_10
REMARK    8  A    between atoms: N_10  and  C_11
REMARK    9  A    between atoms: C_11  and  C_12
REMARK                            x       y       z     vdW  Elec       q    Type
REMARK                         _______ _______ _______ _____ _____    ______ ____
ROOT
ATOM      1  C   UNL     1      48.311   6.414  13.727  0.00  0.00    +0.000 C 
ENDROOT
BRANCH   1   2
ATOM      2  C   UNL     1      47.127   5.941  12.902  0.00  0.00    +0.000 A 
ATOM      3  C   UNL     1      46.272   4.937  13.372  0.00  0.00    +0.000 A 
ATOM      4  C   UNL     1      45.141   4.562  12.636  0.00  0.00    +0.000 A 
ATOM      5  C   UNL     1      44.830   5.186  11.422  0.00  0.00    +0.000 A 
ATOM      6  C   UNL     1      45.698   6.179  10.944  0.00  0.00    +0.000 A 
ATOM      7  C   UNL     1      46.832   6.548  11.676  0.00  0.00    +0.000 A 
BRANCH   5   8
ATOM      8  C   UNL     1      43.592   4.800  10.646  0.00  0.00    +0.000 C 
BRANCH   8   9
ATOM      9  N   UNL     1      43.946   4.264   9.332  0.00  0.00    +0.000 NA
ATOM     10  H   UNL     1      44.730   4.800   8.960  0.00  0.00    +0.000 HD
BRANCH   9  11
ATOM     11  C   UNL     1      44.360   2.858   9.419  0.00  0.00    +0.000 C 
BRANCH  11  12
ATOM     12  C   UNL     1      45.491   2.534   8.458  0.00  0.00    +0.000 A 
ATOM     13  C   UNL     1      46.016   3.529   7.632  0.00  0.00    +0.000 A 
ATOM     14  C   UNL     1      47.058   3.210   6.768  0.00  0.00    +0.000 A 
ATOM     15  C   UNL     1      47.547   1.912   6.743  0.00  0.00    +0.000 A 
ATOM     16  C   UNL     1      46.973   0.980   7.592  0.00  0.00    +0.000 A 
ATOM     17  N   UNL     1      45.961   1.260   8.446  0.00  0.00    +0.000 NA
ENDBRANCH  11  12
ENDBRANCH   9  11
ENDBRANCH   8   9
ENDBRANCH   5   8
ENDBRANCH   1   2
BRANCH   1  18
ATOM     18  N   UNL     1      48.066   6.323  15.166  0.00  0.00    +0.000 NA
ATOM     19  H   UNL     1      47.243   6.885  15.374  0.00  0.00    +0.000 HD
BRANCH  18  20
ATOM     20  C   UNL     1      49.146   6.835  15.975  0.00  0.00    +0.000 C 
BRANCH  20  21
ATOM     21  C   UNL     1      49.466   5.904  17.129  0.00  0.00    +0.000 A 
ATOM     22  C   UNL     1      50.539   5.022  17.078  0.00  0.00    +0.000 A 
ATOM     23  S   UNL     1      50.839   4.225  18.553  0.00  0.00    +0.000 S 
ATOM     24  C   UNL     1      49.512   4.986  19.293  0.00  0.00    +0.000 A 
ATOM     25  N   UNL     1      49.261   4.784  20.604  0.00  0.00    +0.000 NA
ATOM     26  C   UNL     1      48.153   5.403  21.054  0.00  0.00    +0.000 A 
ATOM     27  C   UNL     1      47.279   6.137  20.275  0.00  0.00    +0.000 A 
ATOM     28  C   UNL     1      47.583   6.325  18.928  0.00  0.00    +0.000 A 
ATOM     29  C   UNL     1      48.778   5.774  18.408  0.00  0.00    +0.000 A 
ENDBRANCH  20  21
BRANCH  20  30
ATOM     30  N   UNL     1      50.317   6.923  15.150  0.00  0.00    +0.000 NA
ATOM     31  H   UNL     1      51.122   7.088  15.740  0.00  0.00    +0.000 HD
ATOM     32  H   UNL     1      50.198   7.771  14.593  0.00  0.00    +0.000 HD
ENDBRANCH  20  30
ENDBRANCH  18  20
ENDBRANCH   1  18
TORSDOF 9
ENDMDL
MODEL 6
REMARK VINA RESULT:    -7.492      4.707      6.986
REMARK INTER + INTRA:         -11.883
REMARK INTER:                 -10.377
REMARK INTRA:                  -1.507
REMARK UNBOUND:                -0.668
REMARK  Name = 
REMARK  9 active torsions:
REMARK  status: ('A' for Active; 'I' for Inactive)
REMARK    1  A    between atoms: N_1  and  C_2
REMARK    2  A    between atoms: C_2  and  N_3
REMARK    3  A    between atoms: C_2  and  C_20
REMARK    4  A    between atoms: N_3  and  C_4
REMARK    5  A    between atoms: C_4  and  C_5
REMARK    6  A    between atoms: C_8  and  C_9
REMARK    7  A    between atoms: C_9  and  N_10
REMARK    8  A    between atoms: N_10  and  C_11
REMARK    9  A    between atoms: C_11  and  C_12
REMARK                            x       y       z     vdW  Elec       q    Type
REMARK                         _______ _______ _______ _____ _____    ______ ____
ROOT
ATOM      1  C   UNL     1      48.268   7.033  12.682  0.00  0.00    +0.000 C 
ENDROOT
BRANCH   1   2
ATOM      2  C   UNL     1      47.017   6.257  12.310  0.00  0.00    +0.000 A 
ATOM      3  C   UNL     1      46.392   6.440  11.071  0.00  0.00    +0.000 A 
ATOM      4  C   UNL     1      45.283   5.666  10.710  0.00  0.00    +0.000 A 
ATOM      5  C   UNL     1      44.779   4.682  11.570  0.00  0.00    +0.000 A 
ATOM      6  C   UNL     1      45.394   4.512  12.819  0.00  0.00    +0.000 A 
ATOM      7  C   UNL     1      46.498   5.293  13.182  0.00  0.00    +0.000 A 
BRANCH   5   8
ATOM      8  C   UNL     1      43.601   3.827  11.165  0.00  0.00    +0.000 C 
BRANCH   8   9
ATOM      9  N   UNL     1      43.711   3.415   9.765  0.00  0.00    +0.000 NA
ATOM     10  H   UNL     1      44.214   4.137   9.250  0.00  0.00    +0.000 HD
BRANCH   9  11
ATOM     11  C   UNL     1      44.461   2.159   9.633  0.00  0.00    +0.000 C 
BRANCH  11  12
ATOM     12  C   UNL     1      45.510   2.232   8.537  0.00  0.00    +0.000 A 
ATOM     13  C   UNL     1      45.722   3.428   7.848  0.00  0.00    +0.000 A 
ATOM     14  C   UNL     1      46.696   3.472   6.856  0.00  0.00    +0.000 A 
ATOM     15  C   UNL     1      47.428   2.329   6.569  0.00  0.00    +0.000 A 
ATOM     16  C   UNL     1      47.157   1.180   7.295  0.00  0.00    +0.000 A 
ATOM     17  N   UNL     1      46.220   1.106   8.269  0.00  0.00    +0.000 NA
ENDBRANCH  11  12
ENDBRANCH   9  11
ENDBRANCH   8   9
ENDBRANCH   5   8
ENDBRANCH   1   2
BRANCH   1  18
ATOM     18  N   UNL     1      48.738   7.895  11.597  0.00  0.00    +0.000 NA
ATOM     19  H   UNL     1      49.521   7.423  11.147  0.00  0.00    +0.000 HD
BRANCH  18  20
ATOM     20  C   UNL     1      49.215   9.183  12.039  0.00  0.00    +0.000 C 
BRANCH  20  21
ATOM     21  C   UNL     1      48.379  10.312  11.468  0.00  0.00    +0.000 A 
ATOM     22  C   UNL     1      48.955  11.357  10.757  0.00  0.00    +0.000 A 
ATOM     23  S   UNL     1      47.818  12.399  10.032  0.00  0.00    +0.000 S 
ATOM     24  C   UNL     1      46.520  11.524  10.692  0.00  0.00    +0.000 A 
ATOM     25  N   UNL     1      45.250  11.862  10.384  0.00  0.00    +0.000 NA
ATOM     26  C   UNL     1      44.316  11.123  11.011  0.00  0.00    +0.000 A 
ATOM     27  C   UNL     1      44.574  10.139  11.945  0.00  0.00    +0.000 A 
ATOM     28  C   UNL     1      45.901   9.818  12.226  0.00  0.00    +0.000 A 
ATOM     29  C   UNL     1      46.935  10.496  11.538  0.00  0.00    +0.000 A 
ENDBRANCH  20  21
BRANCH  20  30
ATOM     30  N   UNL     1      49.096   9.235  13.469  0.00  0.00    +0.000 NA
ATOM     31  H   UNL     1      48.958  10.196  13.752  0.00  0.00    +0.000 HD
ATOM     32  H   UNL     1      50.011   8.962  13.831  0.00  0.00    +0.000 HD
ENDBRANCH  20  30
ENDBRANCH  18  20
ENDBRANCH   1  18
TORSDOF 9
ENDMDL
MODEL 7
REMARK VINA RESULT:    -7.429      2.083      2.926
REMARK INTER + INTRA:         -11.789
REMARK INTER:                 -10.795
REMARK INTRA:                  -0.994
REMARK UNBOUND:                -0.668
REMARK  Name = 
REMARK  9 active torsions:
REMARK  status: ('A' for Active; 'I' for Inactive)
REMARK    1  A    between atoms: N_1  and  C_2
REMARK    2  A    between atoms: C_2  and  N_3
REMARK    3  A    between atoms: C_2  and  C_20
REMARK    4  A    between atoms: N_3  and  C_4
REMARK    5  A    between atoms: C_4  and  C_5
REMARK    6  A    between atoms: C_8  and  C_9
REMARK    7  A    between atoms: C_9  and  N_10
REMARK    8  A    between atoms: N_10  and  C_11
REMARK    9  A    between atoms: C_11  and  C_12
REMARK                            x       y       z     vdW  Elec       q    Type
REMARK                         _______ _______ _______ _____ _____    ______ ____
ROOT
ATOM      1  C   UNL     1      47.421   7.503  13.478  0.00  0.00    +0.000 C 
ENDROOT
BRANCH   1   2
ATOM      2  C   UNL     1      46.401   6.449  13.087  0.00  0.00    +0.000 A 
ATOM      3  C   UNL     1      45.162   6.805  12.543  0.00  0.00    +0.000 A 
ATOM      4  C   UNL     1      44.260   5.823  12.118  0.00  0.00    +0.000 A 
ATOM      5  C   UNL     1      44.577   4.462  12.213  0.00  0.00    +0.000 A 
ATOM      6  C   UNL     1      45.812   4.105  12.775  0.00  0.00    +0.000 A 
ATOM      7  C   UNL     1      46.709   5.089  13.208  0.00  0.00    +0.000 A 
BRANCH   5   8
ATOM      8  C   UNL     1      43.614   3.405  11.726  0.00  0.00    +0.000 C 
BRANCH   8   9
ATOM      9  N   UNL     1      44.193   2.639  10.622  0.00  0.00    +0.000 NA
ATOM     10  H   UNL     1      43.608   1.822  10.448  0.00  0.00    +0.000 HD
BRANCH   9  11
ATOM     11  C   UNL     1      44.242   3.432   9.386  0.00  0.00    +0.000 C 
BRANCH  11  12
ATOM     12  C   UNL     1      45.387   3.009   8.482  0.00  0.00    +0.000 A 
ATOM     13  C   UNL     1      45.840   1.689   8.493  0.00  0.00    +0.000 A 
ATOM     14  C   UNL     1      46.883   1.325   7.648  0.00  0.00    +0.000 A 
ATOM     15  C   UNL     1      47.451   2.281   6.818  0.00  0.00    +0.000 A 
ATOM     16  C   UNL     1      46.947   3.570   6.865  0.00  0.00    +0.000 A 
ATOM     17  N   UNL     1      45.932   3.955   7.674  0.00  0.00    +0.000 NA
ENDBRANCH  11  12
ENDBRANCH   9  11
ENDBRANCH   8   9
ENDBRANCH   5   8
ENDBRANCH   1   2
BRANCH   1  18
ATOM     18  N   UNL     1      47.755   7.463  14.902  0.00  0.00    +0.000 NA
ATOM     19  H   UNL     1      47.356   8.294  15.335  0.00  0.00    +0.000 HD
BRANCH  18  20
ATOM     20  C   UNL     1      49.172   7.482  15.170  0.00  0.00    +0.000 C 
BRANCH  20  21
ATOM     21  C   UNL     1      49.515   6.678  16.409  0.00  0.00    +0.000 A 
ATOM     22  C   UNL     1      50.449   7.127  17.334  0.00  0.00    +0.000 A 
ATOM     23  S   UNL     1      50.527   6.175  18.745  0.00  0.00    +0.000 S 
ATOM     24  C   UNL     1      49.358   5.098  18.144  0.00  0.00    +0.000 A 
ATOM     25  N   UNL     1      48.915   4.082  18.913  0.00  0.00    +0.000 NA
ATOM     26  C   UNL     1      48.029   3.274  18.302  0.00  0.00    +0.000 A 
ATOM     27  C   UNL     1      47.623   3.388  16.986  0.00  0.00    +0.000 A 
ATOM     28  C   UNL     1      48.101   4.457  16.231  0.00  0.00    +0.000 A 
ATOM     29  C   UNL     1      48.969   5.396  16.838  0.00  0.00    +0.000 A 
ENDBRANCH  20  21
BRANCH  20  30
ATOM     30  N   UNL     1      49.844   6.872  14.057  0.00  0.00    +0.000 NA
ATOM     31  H   UNL     1      50.407   7.571  13.591  0.00  0.00    +0.000 HD
ATOM     32  H   UNL     1      49.107   6.618  13.397  0.00  0.00    +0.000 HD
ENDBRANCH  20  30
ENDBRANCH  18  20
ENDBRANCH   1  18
TORSDOF 9
ENDMDL
MODEL 8
REMARK VINA RESULT:    -7.311      2.721      4.313
REMARK INTER + INTRA:         -11.613
REMARK INTER:                 -10.788
REMARK INTRA:                  -0.825
REMARK UNBOUND:                -0.668
REMARK  Name = 
REMARK  9 active torsions:
REMARK  status: ('A' for Active; 'I' for Inactive)
REMARK    1  A    between atoms: N_1  and  C_2
REMARK    2  A    between atoms: C_2  and  N_3
REMARK    3  A    between atoms: C_2  and  C_20
REMARK    4  A    between atoms: N_3  and  C_4
REMARK    5  A    between atoms: C_4  and  C_5
REMARK    6  A    between atoms: C_8  and  C_9
REMARK    7  A    between atoms: C_9  and  N_10
REMARK    8  A    between atoms: N_10  and  C_11
REMARK    9  A    between atoms: C_11  and  C_12
REMARK                            x       y       z     vdW  Elec       q    Type
REMARK                         _______ _______ _______ _____ _____    ______ ____
ROOT
ATOM      1  C   UNL     1      48.226   6.941  14.280  0.00  0.00    +0.000 C 
ENDROOT
BRANCH   1   2
ATOM      2  C   UNL     1      47.176   6.231  13.445  0.00  0.00    +0.000 A 
ATOM      3  C   UNL     1      46.608   6.843  12.322  0.00  0.00    +0.000 A 
ATOM      4  C   UNL     1      45.694   6.151  11.518  0.00  0.00    +0.000 A 
ATOM      5  C   UNL     1      45.336   4.828  11.806  0.00  0.00    +0.000 A 
ATOM      6  C   UNL     1      45.893   4.222  12.943  0.00  0.00    +0.000 A 
ATOM      7  C   UNL     1      46.799   4.919  13.751  0.00  0.00    +0.000 A 
BRANCH   5   8
ATOM      8  C   UNL     1      44.374   4.073  10.919  0.00  0.00    +0.000 C 
BRANCH   8   9
ATOM      9  N   UNL     1      44.830   2.699  10.704  0.00  0.00    +0.000 NA
ATOM     10  H   UNL     1      44.412   2.101  11.417  0.00  0.00    +0.000 HD
BRANCH   9  11
ATOM     11  C   UNL     1      44.412   2.195   9.389  0.00  0.00    +0.000 C 
BRANCH  11  12
ATOM     12  C   UNL     1      45.544   2.229   8.378  0.00  0.00    +0.000 A 
ATOM     13  C   UNL     1      45.816   3.400   7.668  0.00  0.00    +0.000 A 
ATOM     14  C   UNL     1      46.865   3.409   6.755  0.00  0.00    +0.000 A 
ATOM     15  C   UNL     1      47.612   2.256   6.567  0.00  0.00    +0.000 A 
ATOM     16  C   UNL     1      47.280   1.133   7.308  0.00  0.00    +0.000 A 
ATOM     17  N   UNL     1      46.268   1.094   8.206  0.00  0.00    +0.000 NA
ENDBRANCH  11  12
ENDBRANCH   9  11
ENDBRANCH   8   9
ENDBRANCH   5   8
ENDBRANCH   1   2
BRANCH   1  18
ATOM     18  N   UNL     1      48.896   6.045  15.223  0.00  0.00    +0.000 NA
ATOM     19  H   UNL     1      48.177   5.489  15.682  0.00  0.00    +0.000 HD
BRANCH  18  20
ATOM     20  C   UNL     1      49.632   6.730  16.258  0.00  0.00    +0.000 C 
BRANCH  20  21
ATOM     21  C   UNL     1      48.757   7.022  17.462  0.00  0.00    +0.000 A 
ATOM     22  C   UNL     1      48.387   6.022  18.353  0.00  0.00    +0.000 A 
ATOM     23  S   UNL     1      47.583   6.605  19.737  0.00  0.00    +0.000 S 
ATOM     24  C   UNL     1      47.650   8.203  19.167  0.00  0.00    +0.000 A 
ATOM     25  N   UNL     1      47.191   9.215  19.933  0.00  0.00    +0.000 NA
ATOM     26  C   UNL     1      47.256  10.424  19.345  0.00  0.00    +0.000 A 
ATOM     27  C   UNL     1      47.681  10.659  18.052  0.00  0.00    +0.000 A 
ATOM     28  C   UNL     1      48.154   9.585  17.300  0.00  0.00    +0.000 A 
ATOM     29  C   UNL     1      48.195   8.298  17.887  0.00  0.00    +0.000 A 
ENDBRANCH  20  21
BRANCH  20  30
ATOM     30  N   UNL     1      50.695   5.870  16.692  0.00  0.00    +0.000 NA
ATOM     31  H   UNL     1      50.438   4.909  16.505  0.00  0.00    +0.000 HD
ATOM     32  H   UNL     1      50.724   5.960  17.709  0.00  0.00    +0.000 HD
ENDBRANCH  20  30
ENDBRANCH  18  20
ENDBRANCH   1  18
TORSDOF 9
ENDMDL
MODEL 9
REMARK VINA RESULT:    -7.300      4.088      8.458
REMARK INTER + INTRA:         -11.596
REMARK INTER:                  -9.582
REMARK INTRA:                  -2.014
REMARK UNBOUND:                -0.668
REMARK  Name = 
REMARK  9 active torsions:
REMARK  status: ('A' for Active; 'I' for Inactive)
REMARK    1  A    between atoms: N_1  and  C_2
REMARK    2  A    between atoms: C_2  and  N_3
REMARK    3  A    between atoms: C_2  and  C_20
REMARK    4  A    between atoms: N_3  and  C_4
REMARK    5  A    between atoms: C_4  and  C_5
REMARK    6  A    between atoms: C_8  and  C_9
REMARK    7  A    between atoms: C_9  and  N_10
REMARK    8  A    between atoms: N_10  and  C_11
REMARK    9  A    between atoms: C_11  and  C_12
REMARK                            x       y       z     vdW  Elec       q    Type
REMARK                         _______ _______ _______ _____ _____    ______ ____
ROOT
ATOM      1  C   UNL     1      46.416   9.354  12.277  0.00  0.00    +0.000 C 
ENDROOT
BRANCH   1   2
ATOM      2  C   UNL     1      47.565   8.774  13.082  0.00  0.00    +0.000 A 
ATOM      3  C   UNL     1      48.703   8.257  12.451  0.00  0.00    +0.000 A 
ATOM      4  C   UNL     1      49.787   7.792  13.205  0.00  0.00    +0.000 A 
ATOM      5  C   UNL     1      49.769   7.843  14.604  0.00  0.00    +0.000 A 
ATOM      6  C   UNL     1      48.620   8.344  15.236  0.00  0.00    +0.000 A 
ATOM      7  C   UNL     1      47.533   8.801  14.481  0.00  0.00    +0.000 A 
BRANCH   5   8
ATOM      8  C   UNL     1      50.953   7.369  15.414  0.00  0.00    +0.000 C 
BRANCH   8   9
ATOM      9  N   UNL     1      50.557   7.064  16.790  0.00  0.00    +0.000 NA
ATOM     10  H   UNL     1      49.551   7.207  16.880  0.00  0.00    +0.000 HD
BRANCH   9  11
ATOM     11  C   UNL     1      50.848   5.666  17.134  0.00  0.00    +0.000 C 
BRANCH  11  12
ATOM     12  C   UNL     1      49.591   4.816  17.180  0.00  0.00    +0.000 A 
ATOM     13  C   UNL     1      48.358   5.401  17.474  0.00  0.00    +0.000 A 
ATOM     14  C   UNL     1      47.220   4.602  17.499  0.00  0.00    +0.000 A 
ATOM     15  C   UNL     1      47.336   3.244  17.240  0.00  0.00    +0.000 A 
ATOM     16  C   UNL     1      48.594   2.737  16.959  0.00  0.00    +0.000 A 
ATOM     17  N   UNL     1      49.720   3.489  16.922  0.00  0.00    +0.000 NA
ENDBRANCH  11  12
ENDBRANCH   9  11
ENDBRANCH   8   9
ENDBRANCH   5   8
ENDBRANCH   1   2
BRANCH   1  18
ATOM     18  N   UNL     1      45.151   8.662  12.523  0.00  0.00    +0.000 NA
ATOM     19  H   UNL     1      45.308   7.991  13.273  0.00  0.00    +0.000 HD
BRANCH  18  20
ATOM     20  C   UNL     1      44.661   7.921  11.386  0.00  0.00    +0.000 C 
BRANCH  20  21
ATOM     21  C   UNL     1      44.397   6.470  11.738  0.00  0.00    +0.000 A 
ATOM     22  C   UNL     1      43.245   5.816  11.319  0.00  0.00    +0.000 A 
ATOM     23  S   UNL     1      43.250   4.144  11.647  0.00  0.00    +0.000 S 
ATOM     24  C   UNL     1      44.765   4.247  12.410  0.00  0.00    +0.000 A 
ATOM     25  N   UNL     1      45.375   3.129  12.857  0.00  0.00    +0.000 NA
ATOM     26  C   UNL     1      46.544   3.353  13.486  0.00  0.00    +0.000 A 
ATOM     27  C   UNL     1      47.086   4.598  13.739  0.00  0.00    +0.000 A 
ATOM     28  C   UNL     1      46.425   5.725  13.252  0.00  0.00    +0.000 A 
ATOM     29  C   UNL     1      45.234   5.556  12.506  0.00  0.00    +0.000 A 
ENDBRANCH  20  21
BRANCH  20  30
ATOM     30  N   UNL     1      43.413   8.503  10.980  0.00  0.00    +0.000 NA
ATOM     31  H   UNL     1      42.724   7.769  10.884  0.00  0.00    +0.000 HD
ATOM     32  H   UNL     1      43.572   8.865  10.038  0.00  0.00    +0.000 HD
ENDBRANCH  20  30
ENDBRANCH  18  20
ENDBRANCH   1  18
TORSDOF 9
ENDMDL
