MODEL 1
REMARK VINA RESULT:    -8.319      0.000      0.000
REMARK INTER + INTRA:         -11.131
REMARK INTER:                 -10.751
REMARK INTRA:                  -0.380
REMARK UNBOUND:                -0.380
REMARK  Name = 
REMARK  6 active torsions:
REMARK  status: ('A' for Active; 'I' for Inactive)
REMARK    1  A    between atoms: C_1  and  C_2
REMARK    2  A    between atoms: C_2  and  N_3
REMARK    3  A    between atoms: C_2  and  C_16
REMARK    4  A    between atoms: C_4  and  C_6
REMARK    5  A    between atoms: C_19  and  C_20
REMARK    6  A    between atoms: C_20  and  N_21
REMARK                            x       y       z     vdW  Elec       q    Type
REMARK                         _______ _______ _______ _____ _____    ______ ____
ROOT
ATOM      1  C   UNL     1      45.833   8.322  12.942  0.00  0.00    +0.000 C 
ATOM      2  C   UNL     1      46.804   7.139  12.893  0.00  0.00    +0.000 C 
ENDROOT
BRANCH   2   3
ATOM      3  C   UNL     1      46.230   6.007  12.054  0.00  0.00    +0.000 A 
ATOM      4  C   UNL     1      46.133   6.228  10.672  0.00  0.00    +0.000 A 
ATOM      5  C   UNL     1      45.492   5.315   9.834  0.00  0.00    +0.000 A 
ATOM      6  C   UNL     1      44.955   4.130  10.346  0.00  0.00    +0.000 A 
ATOM      7  C   UNL     1      45.104   3.868  11.715  0.00  0.00    +0.000 A 
ATOM      8  C   UNL     1      45.718   4.803  12.563  0.00  0.00    +0.000 A 
BRANCH   6   9
ATOM      9  C   UNL     1      44.163   3.194   9.455  0.00  0.00    +0.000 C 
BRANCH   9  10
ATOM     10  N   UNL     1      44.896   2.679   8.276  0.00  0.00    +0.000 NA
ATOM     11  C   UNL     1      45.594   3.771   7.582  0.00  0.00    +0.000 C 
ATOM     12  C   UNL     1      46.572   3.302   6.505  0.00  0.00    +0.000 C 
ATOM     13  C   UNL     1      47.548   2.276   7.054  0.00  0.00    +0.000 C 
ATOM     14  C   UNL     1      46.770   1.106   7.632  0.00  0.00    +0.000 C 
ATOM     15  C   UNL     1      45.768   1.567   8.693  0.00  0.00    +0.000 C 
ENDBRANCH   9  10
ENDBRANCH   6   9
ENDBRANCH   2   3
BRANCH   2  16
ATOM     16  N   UNL     1      47.177   6.734  14.225  0.00  0.00    +0.000 N 
ATOM     17  C   UNL     1      48.485   6.618  14.620  0.00  0.00    +0.000 C 
ATOM     18  O   UNL     1      49.430   6.808  13.863  0.00  0.00    +0.000 OA
ATOM     19  H   UNL     1      46.438   6.443  14.850  0.00  0.00    +0.000 HD
BRANCH  17  20
ATOM     20  C   UNL     1      48.685   6.302  16.036  0.00  0.00    +0.000 A 
ATOM     21  C   UNL     1      49.240   7.253  16.886  0.00  0.00    +0.000 A 
ATOM     22  S   UNL     1      49.369   6.715  18.499  0.00  0.00    +0.000 S 
ATOM     23  C   UNL     1      48.734   5.185  18.104  0.00  0.00    +0.000 A 
ATOM     24  N   UNL     1      48.600   4.212  19.038  0.00  0.00    +0.000 NA
ATOM     25  C   UNL     1      48.137   3.097  18.590  0.00  0.00    +0.000 A 
ATOM     26  N   UNL     1      47.774   2.866  17.286  0.00  0.00    +0.000 N 
ATOM     27  C   UNL     1      47.825   3.836  16.320  0.00  0.00    +0.000 A 
ATOM     28  O   UNL     1      47.367   3.630  15.206  0.00  0.00    +0.000 OA
ATOM     29  C   UNL     1      48.392   5.099  16.762  0.00  0.00    +0.000 A 
ATOM     30  H   UNL     1      47.379   1.984  17.000  0.00  0.00    +0.000 HD
ENDBRANCH  17  20
ENDBRANCH   2  16
TORSDOF 5
ENDMDL
MODEL 2
REMARK VINA RESULT:    -8.218      2.855      4.465
REMARK INTER + INTRA:         -11.001
REMARK INTER:                  -9.963
REMARK INTRA:                  -1.038
REMARK UNBOUND:                -0.380
REMARK  Name = 
REMARK  6 active torsions:
REMARK  status: ('A' for Active; 'I' for Inactive)
REMARK    1  A    between atoms: C_1  and  C_2
REMARK    2  A    between atoms: C_2  and  N_3
REMARK    3  A    between atoms: C_2  and  C_16
REMARK    4  A    between atoms: C_4  and  C_6
REMARK    5  A    between atoms: C_19  and  C_20
REMARK    6  A    between atoms: C_20  and  N_21
REMARK                            x       y       z     vdW  Elec       q    Type
REMARK                         _______ _______ _______ _____ _____    ______ ____
ROOT
ATOM      1  C   UNL     1      43.774   3.210  10.930  0.00  0.00    +0.000 C 
ATOM      2  C   UNL     1      44.736   4.138  10.182  0.00  0.00    +0.000 C 
ENDROOT
BRANCH   2   3
ATOM      3  C   UNL     1      45.324   3.435   8.968  0.00  0.00    +0.000 A 
ATOM      4  C   UNL     1      45.427   2.037   9.032  0.00  0.00    +0.000 A 
ATOM      5  C   UNL     1      46.080   1.311   8.037  0.00  0.00    +0.000 A 
ATOM      6  C   UNL     1      46.624   1.955   6.922  0.00  0.00    +0.000 A 
ATOM      7  C   UNL     1      46.470   3.344   6.815  0.00  0.00    +0.000 A 
ATOM      8  C   UNL     1      45.843   4.078   7.833  0.00  0.00    +0.000 A 
BRANCH   6   9
ATOM      9  C   UNL     1      47.429   1.178   5.899  0.00  0.00    +0.000 C 
BRANCH   9  10
ATOM     10  N   UNL     1      46.626   0.458   4.885  0.00  0.00    +0.000 NA
ATOM     11  C   UNL     1      46.455   1.281   3.679  0.00  0.00    +0.000 C 
ATOM     12  C   UNL     1      45.853   0.529   2.491  0.00  0.00    +0.000 C 
ATOM     13  C   UNL     1      46.627  -0.743   2.194  0.00  0.00    +0.000 C 
ATOM     14  C   UNL     1      46.650  -1.617   3.437  0.00  0.00    +0.000 C 
ATOM     15  C   UNL     1      47.225  -0.866   4.639  0.00  0.00    +0.000 C 
ENDBRANCH   9  10
ENDBRANCH   6   9
ENDBRANCH   2   3
BRANCH   2  16
ATOM     16  N   UNL     1      45.732   4.666  11.080  0.00  0.00    +0.000 N 
ATOM     17  C   UNL     1      45.826   6.001  11.373  0.00  0.00    +0.000 C 
ATOM     18  O   UNL     1      45.100   6.849  10.865  0.00  0.00    +0.000 OA
ATOM     19  H   UNL     1      46.436   4.027  11.426  0.00  0.00    +0.000 HD
BRANCH  17  20
ATOM     20  C   UNL     1      46.824   6.351  12.386  0.00  0.00    +0.000 A 
ATOM     21  C   UNL     1      47.714   7.393  12.148  0.00  0.00    +0.000 A 
ATOM     22  S   UNL     1      48.781   7.672  13.448  0.00  0.00    +0.000 S 
ATOM     23  C   UNL     1      48.120   6.385  14.347  0.00  0.00    +0.000 A 
ATOM     24  N   UNL     1      48.604   6.052  15.568  0.00  0.00    +0.000 NA
ATOM     25  C   UNL     1      48.030   5.039  16.117  0.00  0.00    +0.000 A 
ATOM     26  N   UNL     1      46.993   4.330  15.561  0.00  0.00    +0.000 N 
ATOM     27  C   UNL     1      46.423   4.668  14.362  0.00  0.00    +0.000 A 
ATOM     28  O   UNL     1      45.418   4.096  13.967  0.00  0.00    +0.000 OA
ATOM     29  C   UNL     1      47.071   5.773  13.676  0.00  0.00    +0.000 A 
ATOM     30  H   UNL     1      46.555   3.568  16.055  0.00  0.00    +0.000 HD
ENDBRANCH  17  20
ENDBRANCH   2  16
TORSDOF 5
ENDMDL
MODEL 3
REMARK VINA RESULT:    -7.797      1.657      2.154
REMARK INTER + INTRA:         -10.456
REMARK INTER:                  -9.906
REMARK INTRA:                  -0.550
REMARK UNBOUND:                -0.380
REMARK  Name = 
REMARK  6 active torsions:
REMARK  status: ('A' for Active; 'I' for Inactive)
REMARK    1  A    between atoms: C_1  and  C_2
REMARK    2  A    between atoms: C_2  and  N_3
REMARK    3  A    between atoms: C_2  and  C_16
REMARK    4  A    between atoms: C_4  and  C_6
REMARK    5  A    between atoms: C_19  and  C_20
REMARK    6  A    between atoms: C_20  and  N_21
REMARK                            x       y       z     vdW  Elec       q    Type
REMARK                         _______ _______ _______ _____ _____    ______ ____
ROOT
ATOM      1  C   UNL     1      48.798   8.331  13.312  0.00  0.00    +0.000 C 
ATOM      2  C   UNL     1      48.515   6.925  13.849  0.00  0.00    +0.000 C 
ENDROOT
BRANCH   2   3
ATOM      3  C   UNL     1      47.422   6.249  13.033  0.00  0.00    +0.000 A 
ATOM      4  C   UNL     1      46.964   6.932  11.897  0.00  0.00    +0.000 A 
ATOM      5  C   UNL     1      45.872   6.471  11.163  0.00  0.00    +0.000 A 
ATOM      6  C   UNL     1      45.219   5.287  11.521  0.00  0.00    +0.000 A 
ATOM      7  C   UNL     1      45.709   4.562  12.616  0.00  0.00    +0.000 A 
ATOM      8  C   UNL     1      46.786   5.045  13.374  0.00  0.00    +0.000 A 
BRANCH   6   9
ATOM      9  C   UNL     1      43.965   4.847  10.791  0.00  0.00    +0.000 C 
BRANCH   9  10
ATOM     10  N   UNL     1      44.199   4.012   9.591  0.00  0.00    +0.000 NA
ATOM     11  C   UNL     1      45.320   4.542   8.801  0.00  0.00    +0.000 C 
ATOM     12  C   UNL     1      45.790   3.613   7.683  0.00  0.00    +0.000 C 
ATOM     13  C   UNL     1      46.088   2.220   8.212  0.00  0.00    +0.000 C 
ATOM     14  C   UNL     1      44.847   1.668   8.894  0.00  0.00    +0.000 C 
ATOM     15  C   UNL     1      44.352   2.605   9.998  0.00  0.00    +0.000 C 
ENDBRANCH   9  10
ENDBRANCH   6   9
ENDBRANCH   2   3
BRANCH   2  16
ATOM     16  N   UNL     1      48.232   6.969  15.261  0.00  0.00    +0.000 N 
ATOM     17  C   UNL     1      49.156   6.609  16.208  0.00  0.00    +0.000 C 
ATOM     18  O   UNL     1      50.270   6.183  15.925  0.00  0.00    +0.000 OA
ATOM     19  H   UNL     1      47.287   7.191  15.543  0.00  0.00    +0.000 HD
BRANCH  17  20
ATOM     20  C   UNL     1      48.742   6.817  17.597  0.00  0.00    +0.000 A 
ATOM     21  C   UNL     1      48.312   8.073  18.010  0.00  0.00    +0.000 A 
ATOM     22  S   UNL     1      47.845   8.115  19.650  0.00  0.00    +0.000 S 
ATOM     23  C   UNL     1      48.244   6.474  19.869  0.00  0.00    +0.000 A 
ATOM     24  N   UNL     1      48.111   5.868  21.074  0.00  0.00    +0.000 NA
ATOM     25  C   UNL     1      48.482   4.636  21.101  0.00  0.00    +0.000 A 
ATOM     26  N   UNL     1      48.961   3.938  20.018  0.00  0.00    +0.000 N 
ATOM     27  C   UNL     1      49.050   4.484  18.766  0.00  0.00    +0.000 A 
ATOM     28  O   UNL     1      49.354   3.792  17.805  0.00  0.00    +0.000 OA
ATOM     29  C   UNL     1      48.694   5.891  18.693  0.00  0.00    +0.000 A 
ATOM     30  H   UNL     1      49.199   2.961  20.089  0.00  0.00    +0.000 HD
ENDBRANCH  17  20
ENDBRANCH   2  16
TORSDOF 5
ENDMDL
MODEL 4
REMARK VINA RESULT:    -7.661      3.522      9.468
REMARK INTER + INTRA:         -10.280
REMARK INTER:                  -9.349
REMARK INTRA:                  -0.931
REMARK UNBOUND:                -0.380
REMARK  Name = 
REMARK  6 active torsions:
REMARK  status: ('A' for Active; 'I' for Inactive)
REMARK    1  A    between atoms: C_1  and  C_2
REMARK    2  A    between atoms: C_2  and  N_3
REMARK    3  A    between atoms: C_2  and  C_16
REMARK    4  A    between atoms: C_4  and  C_6
REMARK    5  A    between atoms: C_19  and  C_20
REMARK    6  A    between atoms: C_20  and  N_21
REMARK                            x       y       z     vdW  Elec       q    Type
REMARK                         _______ _______ _______ _____ _____    ______ ____
ROOT
ATOM      1  C   UNL     1      47.712   3.120  16.711  0.00  0.00    +0.000 C 
ATOM      2  C   UNL     1      47.992   4.554  16.250  0.00  0.00    +0.000 C 
ENDROOT
BRANCH   2   3
ATOM      3  C   UNL     1      48.056   5.497  17.442  0.00  0.00    +0.000 A 
ATOM      4  C   UNL     1      49.117   6.415  17.469  0.00  0.00    +0.000 A 
ATOM      5  C   UNL     1      49.348   7.225  18.581  0.00  0.00    +0.000 A 
ATOM      6  C   UNL     1      48.504   7.170  19.693  0.00  0.00    +0.000 A 
ATOM      7  C   UNL     1      47.403   6.303  19.651  0.00  0.00    +0.000 A 
ATOM      8  C   UNL     1      47.190   5.465  18.547  0.00  0.00    +0.000 A 
BRANCH   6   9
ATOM      9  C   UNL     1      48.822   7.968  20.943  0.00  0.00    +0.000 C 
BRANCH   9  10
ATOM     10  N   UNL     1      48.083   9.244  21.076  0.00  0.00    +0.000 NA
ATOM     11  C   UNL     1      47.731   9.780  19.753  0.00  0.00    +0.000 C 
ATOM     12  C   UNL     1      46.760  10.959  19.796  0.00  0.00    +0.000 C 
ATOM     13  C   UNL     1      45.522  10.626  20.611  0.00  0.00    +0.000 C 
ATOM     14  C   UNL     1      45.942  10.214  22.012  0.00  0.00    +0.000 C 
ATOM     15  C   UNL     1      46.936   9.051  21.980  0.00  0.00    +0.000 C 
ENDBRANCH   9  10
ENDBRANCH   6   9
ENDBRANCH   2   3
BRANCH   2  16
ATOM     16  N   UNL     1      47.038   4.959  15.248  0.00  0.00    +0.000 N 
ATOM     17  C   UNL     1      47.400   5.671  14.134  0.00  0.00    +0.000 C 
ATOM     18  O   UNL     1      48.547   6.051  13.928  0.00  0.00    +0.000 OA
ATOM     19  H   UNL     1      46.060   4.782  15.433  0.00  0.00    +0.000 HD
BRANCH  17  20
ATOM     20  C   UNL     1      46.326   5.906  13.166  0.00  0.00    +0.000 A 
ATOM     21  C   UNL     1      46.014   7.206  12.782  0.00  0.00    +0.000 A 
ATOM     22  S   UNL     1      44.759   7.280  11.629  0.00  0.00    +0.000 S 
ATOM     23  C   UNL     1      44.564   5.588  11.643  0.00  0.00    +0.000 A 
ATOM     24  N   UNL     1      43.617   4.979  10.889  0.00  0.00    +0.000 NA
ATOM     25  C   UNL     1      43.562   3.700  11.024  0.00  0.00    +0.000 A 
ATOM     26  N   UNL     1      44.386   2.962  11.838  0.00  0.00    +0.000 N 
ATOM     27  C   UNL     1      45.402   3.521  12.567  0.00  0.00    +0.000 A 
ATOM     28  O   UNL     1      46.196   2.816  13.173  0.00  0.00    +0.000 OA
ATOM     29  C   UNL     1      45.473   4.971  12.491  0.00  0.00    +0.000 A 
ATOM     30  H   UNL     1      44.324   1.956  11.874  0.00  0.00    +0.000 HD
ENDBRANCH  17  20
ENDBRANCH   2  16
TORSDOF 5
ENDMDL
MODEL 5
REMARK VINA RESULT:    -7.657      2.304      3.242
REMARK INTER + INTRA:         -10.275
REMARK INTER:                  -9.483
REMARK INTRA:                  -0.792
REMARK UNBOUND:                -0.380
REMARK  Name = 
REMARK  6 active torsions:
REMARK  status: ('A' for Active; 'I' for Inactive)
REMARK    1  A    between atoms: C_1  and  C_2
REMARK    2  A    between atoms: C_2  and  N_3
REMARK    3  A    between atoms: C_2  and  C_16
REMARK    4  A    between atoms: C_4  and  C_6
REMARK    5  A    between atoms: C_19  and  C_20
REMARK    6  A    between atoms: C_20  and  N_21
REMARK                            x       y       z     vdW  Elec       q    Type
REMARK                         _______ _______ _______ _____ _____    ______ ____
ROOT
ATOM      1  C   UNL     1      48.887   8.023  13.427  0.00  0.00    +0.000 C 
ATOM      2  C   UNL     1      48.480   6.650  13.969  0.00  0.00    +0.000 C 
ENDROOT
BRANCH   2   3
ATOM      3  C   UNL     1      47.405   6.025  13.093  0.00  0.00    +0.000 A 
ATOM      4  C   UNL     1      47.075   6.705  11.911  0.00  0.00    +0.000 A 
ATOM      5  C   UNL     1      46.008   6.295  11.111  0.00  0.00    +0.000 A 
ATOM      6  C   UNL     1      45.255   5.167  11.448  0.00  0.00    +0.000 A 
ATOM      7  C   UNL     1      45.617   4.441  12.591  0.00  0.00    +0.000 A 
ATOM      8  C   UNL     1      46.669   4.873  13.413  0.00  0.00    +0.000 A 
BRANCH   6   9
ATOM      9  C   UNL     1      44.029   4.789  10.639  0.00  0.00    +0.000 C 
BRANCH   9  10
ATOM     10  N   UNL     1      44.295   3.940   9.456  0.00  0.00    +0.000 NA
ATOM     11  C   UNL     1      45.441   4.458   8.694  0.00  0.00    +0.000 C 
ATOM     12  C   UNL     1      45.941   3.515   7.600  0.00  0.00    +0.000 C 
ATOM     13  C   UNL     1      46.219   2.127   8.153  0.00  0.00    +0.000 C 
ATOM     14  C   UNL     1      44.958   1.587   8.805  0.00  0.00    +0.000 C 
ATOM     15  C   UNL     1      44.433   2.537   9.883  0.00  0.00    +0.000 C 
ENDBRANCH   9  10
ENDBRANCH   6   9
ENDBRANCH   2   3
BRANCH   2  16
ATOM     16  N   UNL     1      48.105   6.744  15.358  0.00  0.00    +0.000 N 
ATOM     17  C   UNL     1      48.930   6.333  16.372  0.00  0.00    +0.000 C 
ATOM     18  O   UNL     1      50.025   5.817  16.175  0.00  0.00    +0.000 OA
ATOM     19  H   UNL     1      47.163   7.043  15.570  0.00  0.00    +0.000 HD
BRANCH  17  20
ATOM     20  C   UNL     1      48.439   6.599  17.726  0.00  0.00    +0.000 A 
ATOM     21  C   UNL     1      48.267   5.547  18.619  0.00  0.00    +0.000 A 
ATOM     22  S   UNL     1      47.716   6.053  20.151  0.00  0.00    +0.000 S 
ATOM     23  C   UNL     1      47.647   7.681  19.657  0.00  0.00    +0.000 A 
ATOM     24  N   UNL     1      47.218   8.657  20.494  0.00  0.00    +0.000 NA
ATOM     25  C   UNL     1      47.187   9.835  19.975  0.00  0.00    +0.000 A 
ATOM     26  N   UNL     1      47.567  10.135  18.689  0.00  0.00    +0.000 N 
ATOM     27  C   UNL     1      48.070   9.198  17.828  0.00  0.00    +0.000 A 
ATOM     28  O   UNL     1      48.521   9.530  16.740  0.00  0.00    +0.000 OA
ATOM     29  C   UNL     1      48.076   7.841  18.347  0.00  0.00    +0.000 A 
ATOM     30  H   UNL     1      47.559  11.084  18.349  0.00  0.00    +0.000 HD
ENDBRANCH  17  20
ENDBRANCH   2  16
TORSDOF 5
ENDMDL
MODEL 6
REMARK VINA RESULT:    -7.250      3.445      8.184
REMARK INTER + INTRA:          -9.750
REMARK INTER:                  -8.746
REMARK INTRA:                  -1.003
REMARK UNBOUND:                -0.380
REMARK  Name = 
REMARK  6 active torsions:
REMARK  status: ('A' for Active; 'I' for Inactive)
REMARK    1  A    between atoms: C_1  and  C_2
REMARK    2  A    between atoms: C_2  and  N_3
REMARK    3  A    between atoms: C_2  and  C_16
REMARK    4  A    between atoms: C_4  and  C_6
REMARK    5  A    between atoms: C_19  and  C_20
REMARK    6  A    between atoms: C_20  and  N_21
REMARK                            x       y       z     vdW  Elec       q    Type
REMARK                         _______ _______ _______ _____ _____    ______ ____
ROOT
ATOM      1  C   UNL     1      49.533   8.116  11.516  0.00  0.00    +0.000 C 
ATOM      2  C   UNL     1      48.379   7.694  12.431  0.00  0.00    +0.000 C 
ENDROOT
BRANCH   2   3
ATOM      3  C   UNL     1      48.896   7.340  13.817  0.00  0.00    +0.000 A 
ATOM      4  C   UNL     1      50.189   7.774  14.143  0.00  0.00    +0.000 A 
ATOM      5  C   UNL     1      50.810   7.382  15.329  0.00  0.00    +0.000 A 
ATOM      6  C   UNL     1      50.142   6.569  16.250  0.00  0.00    +0.000 A 
ATOM      7  C   UNL     1      48.825   6.184  15.965  0.00  0.00    +0.000 A 
ATOM      8  C   UNL     1      48.214   6.550  14.757  0.00  0.00    +0.000 A 
BRANCH   6   9
ATOM      9  C   UNL     1      50.857   6.054  17.484  0.00  0.00    +0.000 C 
BRANCH   9  10
ATOM     10  N   UNL     1      51.741   4.888  17.255  0.00  0.00    +0.000 NA
ATOM     11  C   UNL     1      53.057   5.106  17.873  0.00  0.00    +0.000 C 
ATOM     12  C   UNL     1      53.947   3.864  17.901  0.00  0.00    +0.000 C 
ATOM     13  C   UNL     1      53.225   2.682  18.525  0.00  0.00    +0.000 C 
ATOM     14  C   UNL     1      51.942   2.417  17.756  0.00  0.00    +0.000 C 
ATOM     15  C   UNL     1      51.055   3.662  17.699  0.00  0.00    +0.000 C 
ENDBRANCH   9  10
ENDBRANCH   6   9
ENDBRANCH   2   3
BRANCH   2  16
ATOM     16  N   UNL     1      47.607   6.642  11.820  0.00  0.00    +0.000 N 
ATOM     17  C   UNL     1      46.255   6.745  11.615  0.00  0.00    +0.000 C 
ATOM     18  O   UNL     1      45.598   7.716  11.973  0.00  0.00    +0.000 OA
ATOM     19  H   UNL     1      48.078   5.769  11.623  0.00  0.00    +0.000 HD
BRANCH  17  20
ATOM     20  C   UNL     1      45.646   5.631  10.885  0.00  0.00    +0.000 A 
ATOM     21  C   UNL     1      45.760   5.567   9.500  0.00  0.00    +0.000 A 
ATOM     22  S   UNL     1      45.013   4.188   8.831  0.00  0.00    +0.000 S 
ATOM     23  C   UNL     1      44.478   3.660  10.359  0.00  0.00    +0.000 A 
ATOM     24  N   UNL     1      43.738   2.533  10.500  0.00  0.00    +0.000 NA
ATOM     25  C   UNL     1      43.377   2.274  11.708  0.00  0.00    +0.000 A 
ATOM     26  N   UNL     1      43.705   3.034  12.804  0.00  0.00    +0.000 N 
ATOM     27  C   UNL     1      44.506   4.142  12.725  0.00  0.00    +0.000 A 
ATOM     28  O   UNL     1      44.884   4.712  13.738  0.00  0.00    +0.000 OA
ATOM     29  C   UNL     1      44.898   4.508  11.374  0.00  0.00    +0.000 A 
ATOM     30  H   UNL     1      43.427   2.760  13.734  0.00  0.00    +0.000 HD
ENDBRANCH  17  20
ENDBRANCH   2  16
TORSDOF 5
ENDMDL
MODEL 7
REMARK VINA RESULT:    -7.196      2.651      4.500
REMARK INTER + INTRA:          -9.679
REMARK INTER:                  -9.027
REMARK INTRA:                  -0.652
REMARK UNBOUND:                -0.380
REMARK  Name = 
REMARK  6 active torsions:
REMARK  status: ('A' for Active; 'I' for Inactive)
REMARK    1  A    between atoms: C_1  and  C_2
REMARK    2  A    between atoms: C_2  and  N_3
REMARK    3  A    between atoms: C_2  and  C_16
REMARK    4  A    between atoms: C_4  and  C_6
REMARK    5  A    between atoms: C_19  and  C_20
REMARK    6  A    between atoms: C_20  and  N_21
REMARK                            x       y       z     vdW  Elec       q    Type
REMARK                         _______ _______ _______ _____ _____    ______ ____
ROOT
ATOM      1  C   UNL     1      43.313   3.133  11.189  0.00  0.00    +0.000 C 
ATOM      2  C   UNL     1      44.463   4.053  10.767  0.00  0.00    +0.000 C 
ENDROOT
BRANCH   2   3
ATOM      3  C   UNL     1      45.109   3.550   9.485  0.00  0.00    +0.000 A 
ATOM      4  C   UNL     1      45.218   2.160   9.331  0.00  0.00    +0.000 A 
ATOM      5  C   UNL     1      45.918   1.600   8.263  0.00  0.00    +0.000 A 
ATOM      6  C   UNL     1      46.506   2.412   7.289  0.00  0.00    +0.000 A 
ATOM      7  C   UNL     1      46.348   3.801   7.397  0.00  0.00    +0.000 A 
ATOM      8  C   UNL     1      45.673   4.365   8.490  0.00  0.00    +0.000 A 
BRANCH   6   9
ATOM      9  C   UNL     1      47.360   1.806   6.193  0.00  0.00    +0.000 C 
BRANCH   9  10
ATOM     10  N   UNL     1      46.621   0.995   5.199  0.00  0.00    +0.000 NA
ATOM     11  C   UNL     1      46.459   1.738   3.941  0.00  0.00    +0.000 C 
ATOM     12  C   UNL     1      45.929   0.895   2.782  0.00  0.00    +0.000 C 
ATOM     13  C   UNL     1      46.763  -0.360   2.585  0.00  0.00    +0.000 C 
ATOM     14  C   UNL     1      46.777  -1.157   3.879  0.00  0.00    +0.000 C 
ATOM     15  C   UNL     1      47.281  -0.314   5.051  0.00  0.00    +0.000 C 
ENDBRANCH   9  10
ENDBRANCH   6   9
ENDBRANCH   2   3
BRANCH   2  16
ATOM     16  N   UNL     1      45.398   4.226  11.851  0.00  0.00    +0.000 N 
ATOM     17  C   UNL     1      45.900   5.452  12.202  0.00  0.00    +0.000 C 
ATOM     18  O   UNL     1      45.627   6.483  11.596  0.00  0.00    +0.000 OA
ATOM     19  H   UNL     1      45.753   3.393  12.300  0.00  0.00    +0.000 HD
BRANCH  17  20
ATOM     20  C   UNL     1      46.752   5.462  13.392  0.00  0.00    +0.000 A 
ATOM     21  C   UNL     1      46.447   4.635  14.468  0.00  0.00    +0.000 A 
ATOM     22  S   UNL     1      47.566   4.764  15.749  0.00  0.00    +0.000 S 
ATOM     23  C   UNL     1      48.462   5.957  14.928  0.00  0.00    +0.000 A 
ATOM     24  N   UNL     1      49.554   6.532  15.488  0.00  0.00    +0.000 NA
ATOM     25  C   UNL     1      50.113   7.441  14.767  0.00  0.00    +0.000 A 
ATOM     26  N   UNL     1      49.688   7.820  13.517  0.00  0.00    +0.000 N 
ATOM     27  C   UNL     1      48.632   7.224  12.880  0.00  0.00    +0.000 A 
ATOM     28  O   UNL     1      48.371   7.497  11.718  0.00  0.00    +0.000 OA
ATOM     29  C   UNL     1      47.933   6.227  13.674  0.00  0.00    +0.000 A 
ATOM     30  H   UNL     1      50.189   8.511  12.980  0.00  0.00    +0.000 HD
ENDBRANCH  17  20
ENDBRANCH   2  16
TORSDOF 5
ENDMDL
MODEL 8
REMARK VINA RESULT:    -7.165      3.173      8.743
REMARK INTER + INTRA:          -9.639
REMARK INTER:                  -8.630
REMARK INTRA:                  -1.009
REMARK UNBOUND:                -0.380
REMARK  Name = 
REMARK  6 active torsions:
REMARK  status: ('A' for Active; 'I' for Inactive)
REMARK    1  A    between atoms: C_1  and  C_2
REMARK    2  A    between atoms: C_2  and  N_3
REMARK    3  A    between atoms: C_2  and  C_16
REMARK    4  A    between atoms: C_4  and  C_6
REMARK    5  A    between atoms: C_19  and  C_20
REMARK    6  A    between atoms: C_20  and  N_21
REMARK                            x       y       z     vdW  Elec       q    Type
REMARK                         _______ _______ _______ _____ _____    ______ ____
ROOT
ATOM      1  C   UNL     1      49.740   7.932  11.613  0.00  0.00    +0.000 C 
ATOM      2  C   UNL     1      48.540   7.585  12.500  0.00  0.00    +0.000 C 
ENDROOT
BRANCH   2   3
ATOM      3  C   UNL     1      48.999   7.222  13.905  0.00  0.00    +0.000 A 
ATOM      4  C   UNL     1      48.227   6.278  14.600  0.00  0.00    +0.000 A 
ATOM      5  C   UNL     1      48.477   5.981  15.940  0.00  0.00    +0.000 A 
ATOM      6  C   UNL     1      49.532   6.594  16.623  0.00  0.00    +0.000 A 
ATOM      7  C   UNL     1      50.350   7.489  15.919  0.00  0.00    +0.000 A 
ATOM      8  C   UNL     1      50.077   7.813  14.582  0.00  0.00    +0.000 A 
BRANCH   6   9
ATOM      9  C   UNL     1      49.733   6.355  18.107  0.00  0.00    +0.000 C 
BRANCH   9  10
ATOM     10  N   UNL     1      48.545   6.619  18.950  0.00  0.00    +0.000 NA
ATOM     11  C   UNL     1      48.521   5.715  20.109  0.00  0.00    +0.000 C 
ATOM     12  C   UNL     1      47.471   6.076  21.160  0.00  0.00    +0.000 C 
ATOM     13  C   UNL     1      47.594   7.529  21.587  0.00  0.00    +0.000 C 
ATOM     14  C   UNL     1      47.469   8.421  20.363  0.00  0.00    +0.000 C 
ATOM     15  C   UNL     1      48.498   8.051  19.293  0.00  0.00    +0.000 C 
ENDBRANCH   9  10
ENDBRANCH   6   9
ENDBRANCH   2   3
BRANCH   2  16
ATOM     16  N   UNL     1      47.729   6.568  11.880  0.00  0.00    +0.000 N 
ATOM     17  C   UNL     1      46.385   6.729  11.663  0.00  0.00    +0.000 C 
ATOM     18  O   UNL     1      45.767   7.728  12.018  0.00  0.00    +0.000 OA
ATOM     19  H   UNL     1      48.163   5.676  11.686  0.00  0.00    +0.000 HD
BRANCH  17  20
ATOM     20  C   UNL     1      45.735   5.644  10.926  0.00  0.00    +0.000 A 
ATOM     21  C   UNL     1      45.833   5.594   9.540  0.00  0.00    +0.000 A 
ATOM     22  S   UNL     1      45.038   4.247   8.861  0.00  0.00    +0.000 S 
ATOM     23  C   UNL     1      44.502   3.716  10.388  0.00  0.00    +0.000 A 
ATOM     24  N   UNL     1      43.729   2.611  10.522  0.00  0.00    +0.000 NA
ATOM     25  C   UNL     1      43.371   2.348  11.730  0.00  0.00    +0.000 A 
ATOM     26  N   UNL     1      43.733   3.084  12.832  0.00  0.00    +0.000 N 
ATOM     27  C   UNL     1      44.567   4.167  12.758  0.00  0.00    +0.000 A 
ATOM     28  O   UNL     1      44.972   4.712  13.775  0.00  0.00    +0.000 OA
ATOM     29  C   UNL     1      44.957   4.539  11.408  0.00  0.00    +0.000 A 
ATOM     30  H   UNL     1      43.455   2.807  13.761  0.00  0.00    +0.000 HD
ENDBRANCH  17  20
ENDBRANCH   2  16
TORSDOF 5
ENDMDL
MODEL 9
REMARK VINA RESULT:    -7.102      2.956      8.832
REMARK INTER + INTRA:          -9.559
REMARK INTER:                  -8.455
REMARK INTRA:                  -1.104
REMARK UNBOUND:                -0.380
REMARK  Name = 
REMARK  6 active torsions:
REMARK  status: ('A' for Active; 'I' for Inactive)
REMARK    1  A    between atoms: C_1  and  C_2
REMARK    2  A    between atoms: C_2  and  N_3
REMARK    3  A    between atoms: C_2  and  C_16
REMARK    4  A    between atoms: C_4  and  C_6
REMARK    5  A    between atoms: C_19  and  C_20
REMARK    6  A    between atoms: C_20  and  N_21
REMARK                            x       y       z     vdW  Elec       q    Type
REMARK                         _______ _______ _______ _____ _____    ______ ____
ROOT
ATOM      1  C   UNL     1      49.065   7.674  11.408  0.00  0.00    +0.000 C 
ATOM      2  C   UNL     1      47.851   7.693  12.343  0.00  0.00    +0.000 C 
ENDROOT
BRANCH   2   3
ATOM      3  C   UNL     1      48.287   7.915  13.783  0.00  0.00    +0.000 A 
ATOM      4  C   UNL     1      48.938   6.848  14.420  0.00  0.00    +0.000 A 
ATOM      5  C   UNL     1      49.251   6.895  15.779  0.00  0.00    +0.000 A 
ATOM      6  C   UNL     1      48.954   8.028  16.541  0.00  0.00    +0.000 A 
ATOM      7  C   UNL     1      48.363   9.126  15.901  0.00  0.00    +0.000 A 
ATOM      8  C   UNL     1      48.018   9.064  14.542  0.00  0.00    +0.000 A 
BRANCH   6   9
ATOM      9  C   UNL     1      49.193   8.034  18.039  0.00  0.00    +0.000 C 
BRANCH   9  10
ATOM     10  N   UNL     1      48.750   6.813  18.749  0.00  0.00    +0.000 NA
ATOM     11  C   UNL     1      49.886   6.159  19.415  0.00  0.00    +0.000 C 
ATOM     12  C   UNL     1      49.487   5.035  20.370  0.00  0.00    +0.000 C 
ATOM     13  C   UNL     1      48.448   5.506  21.373  0.00  0.00    +0.000 C 
ATOM     14  C   UNL     1      47.238   6.041  20.625  0.00  0.00    +0.000 C 
ATOM     15  C   UNL     1      47.630   7.149  19.646  0.00  0.00    +0.000 C 
ENDBRANCH   9  10
ENDBRANCH   6   9
ENDBRANCH   2   3
BRANCH   2  16
ATOM     16  N   UNL     1      47.052   6.508  12.160  0.00  0.00    +0.000 N 
ATOM     17  C   UNL     1      45.682   6.535  12.168  0.00  0.00    +0.000 C 
ATOM     18  O   UNL     1      45.036   7.558  12.372  0.00  0.00    +0.000 OA
ATOM     19  H   UNL     1      47.534   5.620  12.116  0.00  0.00    +0.000 HD
BRANCH  17  20
ATOM     20  C   UNL     1      45.028   5.262  11.861  0.00  0.00    +0.000 A 
ATOM     21  C   UNL     1      44.302   4.602  12.846  0.00  0.00    +0.000 A 
ATOM     22  S   UNL     1      43.592   3.152  12.296  0.00  0.00    +0.000 S 
ATOM     23  C   UNL     1      44.267   3.337  10.744  0.00  0.00    +0.000 A 
ATOM     24  N   UNL     1      44.074   2.412   9.773  0.00  0.00    +0.000 NA
ATOM     25  C   UNL     1      44.671   2.667   8.661  0.00  0.00    +0.000 A 
ATOM     26  N   UNL     1      45.438   3.781   8.420  0.00  0.00    +0.000 N 
ATOM     27  C   UNL     1      45.607   4.777   9.344  0.00  0.00    +0.000 A 
ATOM     28  O   UNL     1      46.184   5.813   9.045  0.00  0.00    +0.000 OA
ATOM     29  C   UNL     1      44.997   4.513  10.637  0.00  0.00    +0.000 A 
ATOM     30  H   UNL     1      45.849   3.948   7.515  0.00  0.00    +0.000 HD
ENDBRANCH  17  20
ENDBRANCH   2  16
TORSDOF 5
ENDMDL
