MODEL 1
REMARK VINA RESULT:    -6.954      0.000      0.000
REMARK INTER + INTRA:         -11.995
REMARK INTER:                 -10.613
REMARK INTRA:                  -1.382
REMARK UNBOUND:                -1.382
REMARK  Name = 
REMARK  9 active torsions:
REMARK  status: ('A' for Active; 'I' for Inactive)
REMARK    1  A    between atoms: C_2  and  C_3
REMARK    2  A    between atoms: C_3  and  N_4
REMARK    3  A    between atoms: C_3  and  C_21
REMARK    4  A    between atoms: N_4  and  C_5
REMARK    5  A    between atoms: C_5  and  C_6
REMARK    6  A    between atoms: C_9  and  C_10
REMARK    7  A    between atoms: C_10  and  S_11
REMARK    8  A    between atoms: S_11  and  C_12
REMARK    9  A    between atoms: C_12  and  C_13
REMARK                            x       y       z     vdW  Elec       q    Type
REMARK                         _______ _______ _______ _____ _____    ______ ____
ROOT
ATOM      1  N   UNL     1      49.500   6.642  14.395  0.00  0.00    +0.000 NA
ATOM      2  H   UNL     1      50.255   6.327  13.777  0.00  0.00    +0.000 HD
ENDROOT
BRANCH   1   3
ATOM      3  C   UNL     1      50.082   7.439  15.486  0.00  0.00    +0.000 C 
BRANCH   3   4
ATOM      4  C   UNL     1      49.105   7.577  16.630  0.00  0.00    +0.000 A 
ATOM      5  C   UNL     1      48.540   8.777  17.032  0.00  0.00    +0.000 A 
ATOM      6  S   UNL     1      48.013   8.724  18.665  0.00  0.00    +0.000 S 
ATOM      7  C   UNL     1      48.324   7.045  18.771  0.00  0.00    +0.000 A 
ATOM      8  N   UNL     1      48.202   6.351  19.928  0.00  0.00    +0.000 NA
ATOM      9  C   UNL     1      48.344   5.079  19.789  0.00  0.00    +0.000 A 
ATOM     10  N   UNL     1      48.545   4.429  18.592  0.00  0.00    +0.000 N 
ATOM     11  C   UNL     1      48.732   5.100  17.400  0.00  0.00    +0.000 A 
ATOM     12  O   UNL     1      48.874   4.525  16.334  0.00  0.00    +0.000 OA
ATOM     13  C   UNL     1      48.682   6.540  17.534  0.00  0.00    +0.000 A 
ATOM     14  H   UNL     1      48.546   3.421  18.544  0.00  0.00    +0.000 HD
ENDBRANCH   3   4
BRANCH   3  16
ATOM     15  N   UNL     1      52.406   6.560  16.413  0.00  0.00    +0.000 NA
ATOM     16  C   UNL     1      51.389   6.939  16.010  0.00  0.00    +0.000 C 
ENDBRANCH   3  16
ENDBRANCH   1   3
BRANCH   1  17
ATOM     17  C   UNL     1      48.556   7.465  13.633  0.00  0.00    +0.000 C 
BRANCH  17  18
ATOM     18  C   UNL     1      47.294   6.737  13.253  0.00  0.00    +0.000 A 
ATOM     19  C   UNL     1      47.216   5.346  13.401  0.00  0.00    +0.000 A 
ATOM     20  C   UNL     1      46.004   4.679  13.222  0.00  0.00    +0.000 A 
ATOM     21  C   UNL     1      44.841   5.386  12.890  0.00  0.00    +0.000 A 
ATOM     22  C   UNL     1      44.944   6.763  12.646  0.00  0.00    +0.000 A 
ATOM     23  C   UNL     1      46.157   7.434  12.830  0.00  0.00    +0.000 A 
BRANCH  21  24
ATOM     24  C   UNL     1      43.504   4.690  12.803  0.00  0.00    +0.000 C 
BRANCH  24  25
ATOM     25  S   UNL     1      43.430   3.375  11.535  0.00  0.00    +0.000 S 
BRANCH  25  26
ATOM     26  C   UNL     1      43.881   4.321  10.034  0.00  0.00    +0.000 C 
BRANCH  26  27
ATOM     27  C   UNL     1      44.854   3.612   9.124  0.00  0.00    +0.000 A 
ATOM     28  N   UNL     1      45.467   4.333   8.161  0.00  0.00    +0.000 NA
ATOM     29  C   UNL     1      46.307   3.664   7.350  0.00  0.00    +0.000 A 
ATOM     30  C   UNL     1      46.556   2.316   7.457  0.00  0.00    +0.000 A 
ATOM     31  C   UNL     1      45.890   1.671   8.468  0.00  0.00    +0.000 A 
ATOM     32  N   UNL     1      45.043   2.288   9.311  0.00  0.00    +0.000 NA
ENDBRANCH  26  27
ENDBRANCH  25  26
ENDBRANCH  24  25
ENDBRANCH  21  24
ENDBRANCH  17  18
ENDBRANCH   1  17
TORSDOF 9
ENDMDL
MODEL 2
REMARK VINA RESULT:    -6.951      1.783      2.327
REMARK INTER + INTRA:         -11.991
REMARK INTER:                 -10.895
REMARK INTRA:                  -1.096
REMARK UNBOUND:                -1.382
REMARK  Name = 
REMARK  9 active torsions:
REMARK  status: ('A' for Active; 'I' for Inactive)
REMARK    1  A    between atoms: C_2  and  C_3
REMARK    2  A    between atoms: C_3  and  N_4
REMARK    3  A    between atoms: C_3  and  C_21
REMARK    4  A    between atoms: N_4  and  C_5
REMARK    5  A    between atoms: C_5  and  C_6
REMARK    6  A    between atoms: C_9  and  C_10
REMARK    7  A    between atoms: C_10  and  S_11
REMARK    8  A    between atoms: S_11  and  C_12
REMARK    9  A    between atoms: C_12  and  C_13
REMARK                            x       y       z     vdW  Elec       q    Type
REMARK                         _______ _______ _______ _____ _____    ______ ____
ROOT
ATOM      1  N   UNL     1      49.425   6.736  14.157  0.00  0.00    +0.000 NA
ATOM      2  H   UNL     1      50.340   7.159  13.973  0.00  0.00    +0.000 HD
ENDROOT
BRANCH   1   3
ATOM      3  C   UNL     1      49.016   7.070  15.530  0.00  0.00    +0.000 C 
BRANCH   3   4
ATOM      4  C   UNL     1      49.881   6.350  16.538  0.00  0.00    +0.000 A 
ATOM      5  C   UNL     1      51.049   6.869  17.076  0.00  0.00    +0.000 A 
ATOM      6  S   UNL     1      52.092   5.637  17.656  0.00  0.00    +0.000 S 
ATOM      7  C   UNL     1      50.904   4.432  17.404  0.00  0.00    +0.000 A 
ATOM      8  N   UNL     1      51.152   3.113  17.587  0.00  0.00    +0.000 NA
ATOM      9  C   UNL     1      50.106   2.368  17.482  0.00  0.00    +0.000 A 
ATOM     10  N   UNL     1      48.826   2.825  17.265  0.00  0.00    +0.000 N 
ATOM     11  C   UNL     1      48.538   4.152  17.017  0.00  0.00    +0.000 A 
ATOM     12  O   UNL     1      47.399   4.562  16.860  0.00  0.00    +0.000 OA
ATOM     13  C   UNL     1      49.705   5.006  17.024  0.00  0.00    +0.000 A 
ATOM     14  H   UNL     1      48.039   2.193  17.296  0.00  0.00    +0.000 HD
ENDBRANCH   3   4
BRANCH   3  16
ATOM     15  N   UNL     1      48.981   9.658  16.107  0.00  0.00    +0.000 NA
ATOM     16  C   UNL     1      48.997   8.530  15.850  0.00  0.00    +0.000 C 
ENDBRANCH   3  16
ENDBRANCH   1   3
BRANCH   1  17
ATOM     17  C   UNL     1      48.441   7.267  13.209  0.00  0.00    +0.000 C 
BRANCH  17  18
ATOM     18  C   UNL     1      47.122   6.539  13.241  0.00  0.00    +0.000 A 
ATOM     19  C   UNL     1      45.942   7.213  12.906  0.00  0.00    +0.000 A 
ATOM     20  C   UNL     1      44.741   6.517  12.759  0.00  0.00    +0.000 A 
ATOM     21  C   UNL     1      44.694   5.129  12.946  0.00  0.00    +0.000 A 
ATOM     22  C   UNL     1      45.855   4.473  13.377  0.00  0.00    +0.000 A 
ATOM     23  C   UNL     1      47.060   5.169  13.520  0.00  0.00    +0.000 A 
BRANCH  21  24
ATOM     24  C   UNL     1      43.427   4.351  12.683  0.00  0.00    +0.000 C 
BRANCH  24  25
ATOM     25  S   UNL     1      43.584   3.097  11.364  0.00  0.00    +0.000 S 
BRANCH  25  26
ATOM     26  C   UNL     1      44.032   4.154   9.938  0.00  0.00    +0.000 C 
BRANCH  26  27
ATOM     27  C   UNL     1      45.048   3.538   9.005  0.00  0.00    +0.000 A 
ATOM     28  N   UNL     1      45.690   4.350   8.139  0.00  0.00    +0.000 NA
ATOM     29  C   UNL     1      46.568   3.765   7.304  0.00  0.00    +0.000 A 
ATOM     30  C   UNL     1      46.828   2.415   7.295  0.00  0.00    +0.000 A 
ATOM     31  C   UNL     1      46.129   1.674   8.216  0.00  0.00    +0.000 A 
ATOM     32  N   UNL     1      45.244   2.204   9.077  0.00  0.00    +0.000 NA
ENDBRANCH  26  27
ENDBRANCH  25  26
ENDBRANCH  24  25
ENDBRANCH  21  24
ENDBRANCH  17  18
ENDBRANCH   1  17
TORSDOF 9
ENDMDL
MODEL 3
REMARK VINA RESULT:    -6.724      2.036      2.649
REMARK INTER + INTRA:         -11.644
REMARK INTER:                 -10.744
REMARK INTRA:                  -0.900
REMARK UNBOUND:                -1.382
REMARK  Name = 
REMARK  9 active torsions:
REMARK  status: ('A' for Active; 'I' for Inactive)
REMARK    1  A    between atoms: C_2  and  C_3
REMARK    2  A    between atoms: C_3  and  N_4
REMARK    3  A    between atoms: C_3  and  C_21
REMARK    4  A    between atoms: N_4  and  C_5
REMARK    5  A    between atoms: C_5  and  C_6
REMARK    6  A    between atoms: C_9  and  C_10
REMARK    7  A    between atoms: C_10  and  S_11
REMARK    8  A    between atoms: S_11  and  C_12
REMARK    9  A    between atoms: C_12  and  C_13
REMARK                            x       y       z     vdW  Elec       q    Type
REMARK                         _______ _______ _______ _____ _____    ______ ____
ROOT
ATOM      1  N   UNL     1      48.091   6.282  16.148  0.00  0.00    +0.000 NA
ATOM      2  H   UNL     1      47.072   6.316  16.253  0.00  0.00    +0.000 HD
ENDROOT
BRANCH   1   3
ATOM      3  C   UNL     1      48.576   4.985  16.646  0.00  0.00    +0.000 C 
BRANCH   3   4
ATOM      4  C   UNL     1      49.495   5.174  17.830  0.00  0.00    +0.000 A 
ATOM      5  C   UNL     1      50.864   4.959  17.797  0.00  0.00    +0.000 A 
ATOM      6  S   UNL     1      51.503   4.642  19.358  0.00  0.00    +0.000 S 
ATOM      7  C   UNL     1      50.010   5.012  20.107  0.00  0.00    +0.000 A 
ATOM      8  N   UNL     1      49.799   4.847  21.435  0.00  0.00    +0.000 NA
ATOM      9  C   UNL     1      48.666   5.304  21.842  0.00  0.00    +0.000 A 
ATOM     10  N   UNL     1      47.745   5.957  21.055  0.00  0.00    +0.000 N 
ATOM     11  C   UNL     1      47.894   6.095  19.690  0.00  0.00    +0.000 A 
ATOM     12  O   UNL     1      47.096   6.705  18.996  0.00  0.00    +0.000 OA
ATOM     13  C   UNL     1      49.110   5.502  19.179  0.00  0.00    +0.000 A 
ATOM     14  H   UNL     1      46.923   6.379  21.461  0.00  0.00    +0.000 HD
ENDBRANCH   3   4
BRANCH   3  16
ATOM     15  N   UNL     1      46.687   3.236  17.284  0.00  0.00    +0.000 NA
ATOM     16  C   UNL     1      47.508   4.002  17.002  0.00  0.00    +0.000 C 
ENDBRANCH   3  16
ENDBRANCH   1   3
BRANCH   1  17
ATOM     17  C   UNL     1      48.442   6.426  14.732  0.00  0.00    +0.000 C 
BRANCH  17  18
ATOM     18  C   UNL     1      47.316   6.075  13.795  0.00  0.00    +0.000 A 
ATOM     19  C   UNL     1      46.990   4.733  13.564  0.00  0.00    +0.000 A 
ATOM     20  C   UNL     1      45.846   4.393  12.842  0.00  0.00    +0.000 A 
ATOM     21  C   UNL     1      45.000   5.388  12.334  0.00  0.00    +0.000 A 
ATOM     22  C   UNL     1      45.382   6.728  12.482  0.00  0.00    +0.000 A 
ATOM     23  C   UNL     1      46.527   7.071  13.210  0.00  0.00    +0.000 A 
BRANCH  21  24
ATOM     24  C   UNL     1      43.704   5.032  11.648  0.00  0.00    +0.000 C 
BRANCH  24  25
ATOM     25  S   UNL     1      43.796   3.528  10.614  0.00  0.00    +0.000 S 
BRANCH  25  26
ATOM     26  C   UNL     1      44.400   4.233   9.037  0.00  0.00    +0.000 C 
BRANCH  26  27
ATOM     27  C   UNL     1      45.458   3.402   8.352  0.00  0.00    +0.000 A 
ATOM     28  N   UNL     1      46.273   4.012   7.466  0.00  0.00    +0.000 NA
ATOM     29  C   UNL     1      47.186   3.237   6.854  0.00  0.00    +0.000 A 
ATOM     30  C   UNL     1      47.317   1.888   7.084  0.00  0.00    +0.000 A 
ATOM     31  C   UNL     1      46.447   1.359   8.004  0.00  0.00    +0.000 A 
ATOM     32  N   UNL     1      45.518   2.086   8.650  0.00  0.00    +0.000 NA
ENDBRANCH  26  27
ENDBRANCH  25  26
ENDBRANCH  24  25
ENDBRANCH  21  24
ENDBRANCH  17  18
ENDBRANCH   1  17
TORSDOF 9
ENDMDL
MODEL 4
REMARK VINA RESULT:    -6.632      1.706      2.032
REMARK INTER + INTRA:         -11.504
REMARK INTER:                 -10.418
REMARK INTRA:                  -1.086
REMARK UNBOUND:                -1.382
REMARK  Name = 
REMARK  9 active torsions:
REMARK  status: ('A' for Active; 'I' for Inactive)
REMARK    1  A    between atoms: C_2  and  C_3
REMARK    2  A    between atoms: C_3  and  N_4
REMARK    3  A    between atoms: C_3  and  C_21
REMARK    4  A    between atoms: N_4  and  C_5
REMARK    5  A    between atoms: C_5  and  C_6
REMARK    6  A    between atoms: C_9  and  C_10
REMARK    7  A    between atoms: C_10  and  S_11
REMARK    8  A    between atoms: S_11  and  C_12
REMARK    9  A    between atoms: C_12  and  C_13
REMARK                            x       y       z     vdW  Elec       q    Type
REMARK                         _______ _______ _______ _____ _____    ______ ____
ROOT
ATOM      1  N   UNL     1      49.966   6.899  14.204  0.00  0.00    +0.000 NA
ATOM      2  H   UNL     1      50.564   7.022  13.381  0.00  0.00    +0.000 HD
ENDROOT
BRANCH   1   3
ATOM      3  C   UNL     1      50.600   7.562  15.354  0.00  0.00    +0.000 C 
BRANCH   3   4
ATOM      4  C   UNL     1      50.509   6.698  16.590  0.00  0.00    +0.000 A 
ATOM      5  C   UNL     1      51.443   5.734  16.939  0.00  0.00    +0.000 A 
ATOM      6  S   UNL     1      50.778   4.541  17.977  0.00  0.00    +0.000 S 
ATOM      7  C   UNL     1      49.320   5.419  18.148  0.00  0.00    +0.000 A 
ATOM      8  N   UNL     1      48.249   4.932  18.819  0.00  0.00    +0.000 NA
ATOM      9  C   UNL     1      47.293   5.784  18.960  0.00  0.00    +0.000 A 
ATOM     10  N   UNL     1      47.329   7.094  18.540  0.00  0.00    +0.000 N 
ATOM     11  C   UNL     1      48.375   7.613  17.804  0.00  0.00    +0.000 A 
ATOM     12  O   UNL     1      48.425   8.784  17.462  0.00  0.00    +0.000 OA
ATOM     13  C   UNL     1      49.424   6.654  17.535  0.00  0.00    +0.000 A 
ATOM     14  H   UNL     1      46.584   7.734  18.774  0.00  0.00    +0.000 HD
ENDBRANCH   3   4
BRANCH   3  16
ATOM     15  N   UNL     1      53.125   8.286  14.988  0.00  0.00    +0.000 NA
ATOM     16  C   UNL     1      52.021   7.974  15.144  0.00  0.00    +0.000 C 
ENDBRANCH   3  16
ENDBRANCH   1   3
BRANCH   1  17
ATOM     17  C   UNL     1      48.654   7.502  13.951  0.00  0.00    +0.000 C 
BRANCH  17  18
ATOM     18  C   UNL     1      47.660   6.547  13.344  0.00  0.00    +0.000 A 
ATOM     19  C   UNL     1      47.293   5.386  14.034  0.00  0.00    +0.000 A 
ATOM     20  C   UNL     1      46.249   4.583  13.572  0.00  0.00    +0.000 A 
ATOM     21  C   UNL     1      45.549   4.923  12.407  0.00  0.00    +0.000 A 
ATOM     22  C   UNL     1      45.984   6.030  11.666  0.00  0.00    +0.000 A 
ATOM     23  C   UNL     1      47.026   6.839  12.130  0.00  0.00    +0.000 A 
BRANCH  21  24
ATOM     24  C   UNL     1      44.349   4.124  11.959  0.00  0.00    +0.000 C 
BRANCH  24  25
ATOM     25  S   UNL     1      44.004   4.238  10.168  0.00  0.00    +0.000 S 
BRANCH  25  26
ATOM     26  C   UNL     1      44.414   2.537   9.632  0.00  0.00    +0.000 C 
BRANCH  26  27
ATOM     27  C   UNL     1      45.499   2.461   8.584  0.00  0.00    +0.000 A 
ATOM     28  N   UNL     1      45.792   3.581   7.890  0.00  0.00    +0.000 NA
ATOM     29  C   UNL     1      46.744   3.471   6.946  0.00  0.00    +0.000 A 
ATOM     30  C   UNL     1      47.408   2.301   6.665  0.00  0.00    +0.000 A 
ATOM     31  C   UNL     1      47.044   1.219   7.427  0.00  0.00    +0.000 A 
ATOM     32  N   UNL     1      46.104   1.270   8.387  0.00  0.00    +0.000 NA
ENDBRANCH  26  27
ENDBRANCH  25  26
ENDBRANCH  24  25
ENDBRANCH  21  24
ENDBRANCH  17  18
ENDBRANCH   1  17
TORSDOF 9
ENDMDL
MODEL 5
REMARK VINA RESULT:    -6.329      1.869      2.380
REMARK INTER + INTRA:         -11.040
REMARK INTER:                 -10.082
REMARK INTRA:                  -0.958
REMARK UNBOUND:                -1.382
REMARK  Name = 
REMARK  9 active torsions:
REMARK  status: ('A' for Active; 'I' for Inactive)
REMARK    1  A    between atoms: C_2  and  C_3
REMARK    2  A    between atoms: C_3  and  N_4
REMARK    3  A    between atoms: C_3  and  C_21
REMARK    4  A    between atoms: N_4  and  C_5
REMARK    5  A    between atoms: C_5  and  C_6
REMARK    6  A    between atoms: C_9  and  C_10
REMARK    7  A    between atoms: C_10  and  S_11
REMARK    8  A    between atoms: S_11  and  C_12
REMARK    9  A    between atoms: C_12  and  C_13
REMARK                            x       y       z     vdW  Elec       q    Type
REMARK                         _______ _______ _______ _____ _____    ______ ____
ROOT
ATOM      1  N   UNL     1      49.355   7.306  16.099  0.00  0.00    +0.000 NA
ATOM      2  H   UNL     1      48.616   6.629  16.317  0.00  0.00    +0.000 HD
ENDROOT
BRANCH   1   3
ATOM      3  C   UNL     1      50.565   6.945  16.854  0.00  0.00    +0.000 C 
BRANCH   3   4
ATOM      4  C   UNL     1      50.482   5.522  17.354  0.00  0.00    +0.000 A 
ATOM      5  C   UNL     1      51.573   4.677  17.487  0.00  0.00    +0.000 A 
ATOM      6  S   UNL     1      51.113   3.024  17.456  0.00  0.00    +0.000 S 
ATOM      7  C   UNL     1      49.451   3.426  17.495  0.00  0.00    +0.000 A 
ATOM      8  N   UNL     1      48.472   2.496  17.382  0.00  0.00    +0.000 NA
ATOM      9  C   UNL     1      47.287   2.964  17.569  0.00  0.00    +0.000 A 
ATOM     10  N   UNL     1      46.992   4.265  17.910  0.00  0.00    +0.000 N 
ATOM     11  C   UNL     1      47.952   5.254  17.980  0.00  0.00    +0.000 A 
ATOM     12  O   UNL     1      47.696   6.399  18.317  0.00  0.00    +0.000 OA
ATOM     13  C   UNL     1      49.286   4.787  17.674  0.00  0.00    +0.000 A 
ATOM     14  H   UNL     1      46.048   4.538  18.141  0.00  0.00    +0.000 HD
ENDBRANCH   3   4
BRANCH   3  16
ATOM     15  N   UNL     1      52.848   7.273  15.543  0.00  0.00    +0.000 NA
ATOM     16  C   UNL     1      51.852   7.135  16.118  0.00  0.00    +0.000 C 
ENDBRANCH   3  16
ENDBRANCH   1   3
BRANCH   1  17
ATOM     17  C   UNL     1      49.643   7.270  14.662  0.00  0.00    +0.000 C 
BRANCH  17  18
ATOM     18  C   UNL     1      48.458   6.873  13.822  0.00  0.00    +0.000 A 
ATOM     19  C   UNL     1      47.756   5.696  14.111  0.00  0.00    +0.000 A 
ATOM     20  C   UNL     1      46.557   5.403  13.460  0.00  0.00    +0.000 A 
ATOM     21  C   UNL     1      46.033   6.281  12.502  0.00  0.00    +0.000 A 
ATOM     22  C   UNL     1      46.787   7.407  12.144  0.00  0.00    +0.000 A 
ATOM     23  C   UNL     1      47.986   7.704  12.799  0.00  0.00    +0.000 A 
BRANCH  21  24
ATOM     24  C   UNL     1      44.684   6.030  11.872  0.00  0.00    +0.000 C 
BRANCH  24  25
ATOM     25  S   UNL     1      44.343   4.270  11.518  0.00  0.00    +0.000 S 
BRANCH  25  26
ATOM     26  C   UNL     1      44.006   4.342   9.720  0.00  0.00    +0.000 C 
BRANCH  26  27
ATOM     27  C   UNL     1      45.026   3.624   8.869  0.00  0.00    +0.000 A 
ATOM     28  N   UNL     1      45.696   4.338   7.940  0.00  0.00    +0.000 NA
ATOM     29  C   UNL     1      46.577   3.662   7.181  0.00  0.00    +0.000 A 
ATOM     30  C   UNL     1      46.813   2.314   7.306  0.00  0.00    +0.000 A 
ATOM     31  C   UNL     1      46.086   1.675   8.280  0.00  0.00    +0.000 A 
ATOM     32  N   UNL     1      45.197   2.300   9.071  0.00  0.00    +0.000 NA
ENDBRANCH  26  27
ENDBRANCH  25  26
ENDBRANCH  24  25
ENDBRANCH  21  24
ENDBRANCH  17  18
ENDBRANCH   1  17
TORSDOF 9
ENDMDL
MODEL 6
REMARK VINA RESULT:    -6.055      1.977      2.652
REMARK INTER + INTRA:         -10.623
REMARK INTER:                  -9.678
REMARK INTRA:                  -0.945
REMARK UNBOUND:                -1.382
REMARK  Name = 
REMARK  9 active torsions:
REMARK  status: ('A' for Active; 'I' for Inactive)
REMARK    1  A    between atoms: C_2  and  C_3
REMARK    2  A    between atoms: C_3  and  N_4
REMARK    3  A    between atoms: C_3  and  C_21
REMARK    4  A    between atoms: N_4  and  C_5
REMARK    5  A    between atoms: C_5  and  C_6
REMARK    6  A    between atoms: C_9  and  C_10
REMARK    7  A    between atoms: C_10  and  S_11
REMARK    8  A    between atoms: S_11  and  C_12
REMARK    9  A    between atoms: C_12  and  C_13
REMARK                            x       y       z     vdW  Elec       q    Type
REMARK                         _______ _______ _______ _____ _____    ______ ____
ROOT
ATOM      1  N   UNL     1      49.580   6.817  14.877  0.00  0.00    +0.000 NA
ATOM      2  H   UNL     1      50.533   7.157  14.715  0.00  0.00    +0.000 HD
ENDROOT
BRANCH   1   3
ATOM      3  C   UNL     1      49.148   7.240  16.218  0.00  0.00    +0.000 C 
BRANCH   3   4
ATOM      4  C   UNL     1      49.315   6.118  17.216  0.00  0.00    +0.000 A 
ATOM      5  C   UNL     1      48.262   5.420  17.788  0.00  0.00    +0.000 A 
ATOM      6  S   UNL     1      48.708   4.695  19.278  0.00  0.00    +0.000 S 
ATOM      7  C   UNL     1      50.352   5.110  19.055  0.00  0.00    +0.000 A 
ATOM      8  N   UNL     1      51.295   4.892  20.003  0.00  0.00    +0.000 NA
ATOM      9  C   UNL     1      52.496   5.142  19.609  0.00  0.00    +0.000 A 
ATOM     10  N   UNL     1      52.847   5.541  18.339  0.00  0.00    +0.000 N 
ATOM     11  C   UNL     1      51.915   5.829  17.362  0.00  0.00    +0.000 A 
ATOM     12  O   UNL     1      52.226   6.148  16.226  0.00  0.00    +0.000 OA
ATOM     13  C   UNL     1      50.547   5.659  17.801  0.00  0.00    +0.000 A 
ATOM     14  H   UNL     1      53.817   5.621  18.071  0.00  0.00    +0.000 HD
ENDBRANCH   3   4
BRANCH   3  16
ATOM     15  N   UNL     1      50.327   9.428  17.144  0.00  0.00    +0.000 NA
ATOM     16  C   UNL     1      49.816   8.470  16.742  0.00  0.00    +0.000 C 
ENDBRANCH   3  16
ENDBRANCH   1   3
BRANCH   1  17
ATOM     17  C   UNL     1      48.679   7.383  13.869  0.00  0.00    +0.000 C 
BRANCH  17  18
ATOM     18  C   UNL     1      47.582   6.441  13.446  0.00  0.00    +0.000 A 
ATOM     19  C   UNL     1      46.847   6.699  12.283  0.00  0.00    +0.000 A 
ATOM     20  C   UNL     1      45.951   5.753  11.783  0.00  0.00    +0.000 A 
ATOM     21  C   UNL     1      45.770   4.526  12.435  0.00  0.00    +0.000 A 
ATOM     22  C   UNL     1      46.434   4.312  13.652  0.00  0.00    +0.000 A 
ATOM     23  C   UNL     1      47.335   5.258  14.152  0.00  0.00    +0.000 A 
BRANCH  21  24
ATOM     24  C   UNL     1      44.889   3.452  11.844  0.00  0.00    +0.000 C 
BRANCH  24  25
ATOM     25  S   UNL     1      44.254   3.844  10.176  0.00  0.00    +0.000 S 
BRANCH  25  26
ATOM     26  C   UNL     1      44.479   2.233   9.337  0.00  0.00    +0.000 C 
BRANCH  26  27
ATOM     27  C   UNL     1      45.654   2.186   8.390  0.00  0.00    +0.000 A 
ATOM     28  N   UNL     1      46.265   1.000   8.191  0.00  0.00    +0.000 NA
ATOM     29  C   UNL     1      47.325   0.999   7.363  0.00  0.00    +0.000 A 
ATOM     30  C   UNL     1      47.798   2.124   6.731  0.00  0.00    +0.000 A 
ATOM     31  C   UNL     1      47.108   3.282   6.992  0.00  0.00    +0.000 A 
ATOM     32  N   UNL     1      46.041   3.341   7.807  0.00  0.00    +0.000 NA
ENDBRANCH  26  27
ENDBRANCH  25  26
ENDBRANCH  24  25
ENDBRANCH  21  24
ENDBRANCH  17  18
ENDBRANCH   1  17
TORSDOF 9
ENDMDL
MODEL 7
REMARK VINA RESULT:    -5.897      2.087      2.808
REMARK INTER + INTRA:         -10.382
REMARK INTER:                  -9.570
REMARK INTRA:                  -0.812
REMARK UNBOUND:                -1.382
REMARK  Name = 
REMARK  9 active torsions:
REMARK  status: ('A' for Active; 'I' for Inactive)
REMARK    1  A    between atoms: C_2  and  C_3
REMARK    2  A    between atoms: C_3  and  N_4
REMARK    3  A    between atoms: C_3  and  C_21
REMARK    4  A    between atoms: N_4  and  C_5
REMARK    5  A    between atoms: C_5  and  C_6
REMARK    6  A    between atoms: C_9  and  C_10
REMARK    7  A    between atoms: C_10  and  S_11
REMARK    8  A    between atoms: S_11  and  C_12
REMARK    9  A    between atoms: C_12  and  C_13
REMARK                            x       y       z     vdW  Elec       q    Type
REMARK                         _______ _______ _______ _____ _____    ______ ____
ROOT
ATOM      1  N   UNL     1      48.873   6.158  14.499  0.00  0.00    +0.000 NA
ATOM      2  H   UNL     1      48.860   6.522  13.541  0.00  0.00    +0.000 HD
ENDROOT
BRANCH   1   3
ATOM      3  C   UNL     1      49.247   7.247  15.415  0.00  0.00    +0.000 C 
BRANCH   3   4
ATOM      4  C   UNL     1      50.549   6.937  16.116  0.00  0.00    +0.000 A 
ATOM      5  C   UNL     1      51.754   7.561  15.836  0.00  0.00    +0.000 A 
ATOM      6  S   UNL     1      53.099   6.602  16.302  0.00  0.00    +0.000 S 
ATOM      7  C   UNL     1      52.089   5.463  17.082  0.00  0.00    +0.000 A 
ATOM      8  N   UNL     1      52.563   4.311  17.614  0.00  0.00    +0.000 NA
ATOM      9  C   UNL     1      51.683   3.643  18.277  0.00  0.00    +0.000 A 
ATOM     10  N   UNL     1      50.386   4.046  18.502  0.00  0.00    +0.000 N 
ATOM     11  C   UNL     1      49.847   5.182  17.932  0.00  0.00    +0.000 A 
ATOM     12  O   UNL     1      48.709   5.559  18.160  0.00  0.00    +0.000 OA
ATOM     13  C   UNL     1      50.779   5.905  17.094  0.00  0.00    +0.000 A 
ATOM     14  H   UNL     1      49.780   3.522  19.116  0.00  0.00    +0.000 HD
ENDBRANCH   3   4
BRANCH   3  16
ATOM     15  N   UNL     1      49.403   9.654  14.313  0.00  0.00    +0.000 NA
ATOM     16  C   UNL     1      49.335   8.601  14.789  0.00  0.00    +0.000 C 
ENDBRANCH   3  16
ENDBRANCH   1   3
BRANCH   1  17
ATOM     17  C   UNL     1      47.542   5.656  14.851  0.00  0.00    +0.000 C 
BRANCH  17  18
ATOM     18  C   UNL     1      46.718   5.251  13.657  0.00  0.00    +0.000 A 
ATOM     19  C   UNL     1      46.397   3.904  13.451  0.00  0.00    +0.000 A 
ATOM     20  C   UNL     1      45.493   3.531  12.455  0.00  0.00    +0.000 A 
ATOM     21  C   UNL     1      44.890   4.498  11.640  0.00  0.00    +0.000 A 
ATOM     22  C   UNL     1      45.287   5.835  11.784  0.00  0.00    +0.000 A 
ATOM     23  C   UNL     1      46.189   6.210  12.785  0.00  0.00    +0.000 A 
BRANCH  21  24
ATOM     24  C   UNL     1      43.829   4.118  10.636  0.00  0.00    +0.000 C 
BRANCH  24  25
ATOM     25  S   UNL     1      44.424   4.064   8.909  0.00  0.00    +0.000 S 
BRANCH  25  26
ATOM     26  C   UNL     1      45.531   2.608   8.974  0.00  0.00    +0.000 C 
BRANCH  26  27
ATOM     27  C   UNL     1      46.247   2.315   7.676  0.00  0.00    +0.000 A 
ATOM     28  N   UNL     1      46.266   3.276   6.729  0.00  0.00    +0.000 NA
ATOM     29  C   UNL     1      46.888   2.972   5.576  0.00  0.00    +0.000 A 
ATOM     30  C   UNL     1      47.484   1.758   5.328  0.00  0.00    +0.000 A 
ATOM     31  C   UNL     1      47.416   0.848   6.354  0.00  0.00    +0.000 A 
ATOM     32  N   UNL     1      46.812   1.098   7.528  0.00  0.00    +0.000 NA
ENDBRANCH  26  27
ENDBRANCH  25  26
ENDBRANCH  24  25
ENDBRANCH  21  24
ENDBRANCH  17  18
ENDBRANCH   1  17
TORSDOF 9
ENDMDL
MODEL 8
REMARK VINA RESULT:    -5.792      3.992      5.707
REMARK INTER + INTRA:         -10.221
REMARK INTER:                  -9.313
REMARK INTRA:                  -0.908
REMARK UNBOUND:                -1.382
REMARK  Name = 
REMARK  9 active torsions:
REMARK  status: ('A' for Active; 'I' for Inactive)
REMARK    1  A    between atoms: C_2  and  C_3
REMARK    2  A    between atoms: C_3  and  N_4
REMARK    3  A    between atoms: C_3  and  C_21
REMARK    4  A    between atoms: N_4  and  C_5
REMARK    5  A    between atoms: C_5  and  C_6
REMARK    6  A    between atoms: C_9  and  C_10
REMARK    7  A    between atoms: C_10  and  S_11
REMARK    8  A    between atoms: S_11  and  C_12
REMARK    9  A    between atoms: C_12  and  C_13
REMARK                            x       y       z     vdW  Elec       q    Type
REMARK                         _______ _______ _______ _____ _____    ______ ____
ROOT
ATOM      1  N   UNL     1      46.448   8.429  13.351  0.00  0.00    +0.000 NA
ATOM      2  H   UNL     1      46.561   9.015  14.184  0.00  0.00    +0.000 HD
ENDROOT
BRANCH   1   3
ATOM      3  C   UNL     1      47.218   9.021  12.246  0.00  0.00    +0.000 C 
BRANCH   3   4
ATOM      4  C   UNL     1      46.590  10.316  11.788  0.00  0.00    +0.000 A 
ATOM      5  C   UNL     1      47.269  11.521  11.690  0.00  0.00    +0.000 A 
ATOM      6  S   UNL     1      46.206  12.866  11.766  0.00  0.00    +0.000 S 
ATOM      7  C   UNL     1      44.828  11.854  11.699  0.00  0.00    +0.000 A 
ATOM      8  N   UNL     1      43.566  12.329  11.830  0.00  0.00    +0.000 NA
ATOM      9  C   UNL     1      42.653  11.446  11.618  0.00  0.00    +0.000 A 
ATOM     10  N   UNL     1      42.884  10.144  11.235  0.00  0.00    +0.000 N 
ATOM     11  C   UNL     1      44.151   9.604  11.145  0.00  0.00    +0.000 A 
ATOM     12  O   UNL     1      44.357   8.461  10.771  0.00  0.00    +0.000 OA
ATOM     13  C   UNL     1      45.202  10.541  11.478  0.00  0.00    +0.000 A 
ATOM     14  H   UNL     1      42.118   9.534  10.987  0.00  0.00    +0.000 HD
ENDBRANCH   3   4
BRANCH   3  16
ATOM     15  N   UNL     1      49.791   9.427  12.745  0.00  0.00    +0.000 NA
ATOM     16  C   UNL     1      48.667   9.250  12.533  0.00  0.00    +0.000 C 
ENDBRANCH   3  16
ENDBRANCH   1   3
BRANCH   1  17
ATOM     17  C   UNL     1      46.949   7.080  13.631  0.00  0.00    +0.000 C 
BRANCH  17  18
ATOM     18  C   UNL     1      45.988   5.988  13.238  0.00  0.00    +0.000 A 
ATOM     19  C   UNL     1      44.667   6.307  12.899  0.00  0.00    +0.000 A 
ATOM     20  C   UNL     1      43.816   5.338  12.366  0.00  0.00    +0.000 A 
ATOM     21  C   UNL     1      44.267   4.028  12.159  0.00  0.00    +0.000 A 
ATOM     22  C   UNL     1      45.557   3.689  12.590  0.00  0.00    +0.000 A 
ATOM     23  C   UNL     1      46.413   4.660  13.120  0.00  0.00    +0.000 A 
BRANCH  21  24
ATOM     24  C   UNL     1      43.392   3.001  11.481  0.00  0.00    +0.000 C 
BRANCH  24  25
ATOM     25  S   UNL     1      44.239   2.048  10.172  0.00  0.00    +0.000 S 
BRANCH  25  26
ATOM     26  C   UNL     1      44.892   3.403   9.130  0.00  0.00    +0.000 C 
BRANCH  26  27
ATOM     27  C   UNL     1      45.824   2.947   8.033  0.00  0.00    +0.000 A 
ATOM     28  N   UNL     1      46.055   3.788   7.003  0.00  0.00    +0.000 NA
ATOM     29  C   UNL     1      46.869   3.339   6.030  0.00  0.00    +0.000 A 
ATOM     30  C   UNL     1      47.453   2.095   6.039  0.00  0.00    +0.000 A 
ATOM     31  C   UNL     1      47.161   1.314   7.129  0.00  0.00    +0.000 A 
ATOM     32  N   UNL     1      46.360   1.711   8.133  0.00  0.00    +0.000 NA
ENDBRANCH  26  27
ENDBRANCH  25  26
ENDBRANCH  24  25
ENDBRANCH  21  24
ENDBRANCH  17  18
ENDBRANCH   1  17
TORSDOF 9
ENDMDL
MODEL 9
REMARK VINA RESULT:    -5.689      3.000      7.670
REMARK INTER + INTRA:         -10.064
REMARK INTER:                  -8.808
REMARK INTRA:                  -1.256
REMARK UNBOUND:                -1.382
REMARK  Name = 
REMARK  9 active torsions:
REMARK  status: ('A' for Active; 'I' for Inactive)
REMARK    1  A    between atoms: C_2  and  C_3
REMARK    2  A    between atoms: C_3  and  N_4
REMARK    3  A    between atoms: C_3  and  C_21
REMARK    4  A    between atoms: N_4  and  C_5
REMARK    5  A    between atoms: C_5  and  C_6
REMARK    6  A    between atoms: C_9  and  C_10
REMARK    7  A    between atoms: C_10  and  S_11
REMARK    8  A    between atoms: S_11  and  C_12
REMARK    9  A    between atoms: C_12  and  C_13
REMARK                            x       y       z     vdW  Elec       q    Type
REMARK                         _______ _______ _______ _____ _____    ______ ____
ROOT
ATOM      1  N   UNL     1      48.021   7.501  11.776  0.00  0.00    +0.000 NA
ATOM      2  H   UNL     1      48.447   6.856  12.449  0.00  0.00    +0.000 HD
ENDROOT
BRANCH   1   3
ATOM      3  C   UNL     1      46.565   7.291  11.775  0.00  0.00    +0.000 C 
BRANCH   3   4
ATOM      4  C   UNL     1      46.199   6.058  12.567  0.00  0.00    +0.000 A 
ATOM      5  C   UNL     1      46.983   5.517  13.575  0.00  0.00    +0.000 A 
ATOM      6  S   UNL     1      46.646   3.854  13.828  0.00  0.00    +0.000 S 
ATOM      7  C   UNL     1      45.307   3.904  12.764  0.00  0.00    +0.000 A 
ATOM      8  N   UNL     1      44.607   2.796  12.419  0.00  0.00    +0.000 NA
ATOM      9  C   UNL     1      43.554   3.044  11.720  0.00  0.00    +0.000 A 
ATOM     10  N   UNL     1      43.106   4.300  11.378  0.00  0.00    +0.000 N 
ATOM     11  C   UNL     1      43.817   5.448  11.660  0.00  0.00    +0.000 A 
ATOM     12  O   UNL     1      43.403   6.564  11.389  0.00  0.00    +0.000 OA
ATOM     13  C   UNL     1      45.061   5.201  12.356  0.00  0.00    +0.000 A 
ATOM     14  H   UNL     1      42.217   4.424  10.916  0.00  0.00    +0.000 HD
ENDBRANCH   3   4
BRANCH   3  16
ATOM     15  N   UNL     1      45.122   9.341  12.642  0.00  0.00    +0.000 NA
ATOM     16  C   UNL     1      45.756   8.450  12.263  0.00  0.00    +0.000 C 
ENDBRANCH   3  16
ENDBRANCH   1   3
BRANCH   1  17
ATOM     17  C   UNL     1      48.318   8.882  12.166  0.00  0.00    +0.000 C 
BRANCH  17  18
ATOM     18  C   UNL     1      49.065   8.991  13.470  0.00  0.00    +0.000 A 
ATOM     19  C   UNL     1      48.360   9.098  14.674  0.00  0.00    +0.000 A 
ATOM     20  C   UNL     1      49.027   9.022  15.898  0.00  0.00    +0.000 A 
ATOM     21  C   UNL     1      50.415   8.839  15.945  0.00  0.00    +0.000 A 
ATOM     22  C   UNL     1      51.128   8.832  14.739  0.00  0.00    +0.000 A 
ATOM     23  C   UNL     1      50.461   8.902  13.511  0.00  0.00    +0.000 A 
BRANCH  21  24
ATOM     24  C   UNL     1      51.131   8.645  17.260  0.00  0.00    +0.000 C 
BRANCH  24  25
ATOM     25  S   UNL     1      50.542   7.210  18.225  0.00  0.00    +0.000 S 
BRANCH  25  26
ATOM     26  C   UNL     1      50.467   5.928  16.920  0.00  0.00    +0.000 C 
BRANCH  26  27
ATOM     27  C   UNL     1      49.360   4.918  17.105  0.00  0.00    +0.000 A 
ATOM     28  N   UNL     1      48.128   5.374  17.415  0.00  0.00    +0.000 NA
ATOM     29  C   UNL     1      47.172   4.446  17.600  0.00  0.00    +0.000 A 
ATOM     30  C   UNL     1      47.392   3.093  17.493  0.00  0.00    +0.000 A 
ATOM     31  C   UNL     1      48.676   2.728  17.171  0.00  0.00    +0.000 A 
ATOM     32  N   UNL     1      49.669   3.611  16.970  0.00  0.00    +0.000 NA
ENDBRANCH  26  27
ENDBRANCH  25  26
ENDBRANCH  24  25
ENDBRANCH  21  24
ENDBRANCH  17  18
ENDBRANCH   1  17
TORSDOF 9
ENDMDL
