MODEL 1
REMARK VINA RESULT:    -8.142      0.000      0.000
REMARK INTER + INTRA:         -11.463
REMARK INTER:                 -10.522
REMARK INTRA:                  -0.941
REMARK UNBOUND:                -0.941
REMARK  Name = 
REMARK  6 active torsions:
REMARK  status: ('A' for Active; 'I' for Inactive)
REMARK    1  A    between atoms: N_1  and  C_2
REMARK    2  A    between atoms: C_4  and  N_5
REMARK    3  A    between atoms: N_5  and  C_6
REMARK    4  A    between atoms: C_6  and  C_7
REMARK    5  A    between atoms: C_21  and  C_22
REMARK    6  A    between atoms: C_22  and  O_24
REMARK                            x       y       z     vdW  Elec       q    Type
REMARK                         _______ _______ _______ _____ _____    ______ ____
ROOT
ATOM      1  N   UNL     1      43.660   4.822   9.880  0.00  0.00    +0.000 N 
ATOM      2  H   UNL     1      42.793   4.970   9.368  0.00  0.00    +0.000 HD
ENDROOT
BRANCH   1   5
ATOM      3  C   UNL     1      46.333   3.407   7.664  0.00  0.00    +0.000 A 
ATOM      4  C   UNL     1      45.504   4.332   8.330  0.00  0.00    +0.000 A 
ATOM      5  C   UNL     1      44.560   3.946   9.293  0.00  0.00    +0.000 A 
ATOM      6  C   UNL     1      44.472   2.587   9.597  0.00  0.00    +0.000 A 
ATOM      7  C   UNL     1      45.296   1.646   8.977  0.00  0.00    +0.000 A 
ATOM      8  C   UNL     1      46.230   2.049   8.012  0.00  0.00    +0.000 A 
BRANCH   3   9
ATOM      9  N   UNL     1      47.340   3.907   6.802  0.00  0.00    +0.000 N 
ATOM     10  H   UNL     1      48.050   4.436   7.309  0.00  0.00    +0.000 HD
ATOM     11  H   UNL     1      46.958   4.501   6.060  0.00  0.00    +0.000 HD
ENDBRANCH   3   9
BRANCH   8  12
ATOM     12  C   UNL     1      47.047   0.970   7.393  0.00  0.00    +0.000 C 
ATOM     13  O   UNL     1      47.897   1.188   6.541  0.00  0.00    +0.000 OA
BRANCH  12  14
ATOM     14  O   UNL     1      46.729  -0.268   7.818  0.00  0.00    +0.000 OA
ATOM     15  H   UNL     1      46.390  -0.834   7.090  0.00  0.00    +0.000 HD
ENDBRANCH  12  14
ENDBRANCH   8  12
ENDBRANCH   1   5
BRANCH   1  16
ATOM     16  C   UNL     1      43.582   5.135  11.299  0.00  0.00    +0.000 C 
BRANCH  16  17
ATOM     17  C   UNL     1      44.920   5.164  12.000  0.00  0.00    +0.000 A 
ATOM     18  C   UNL     1      45.267   4.144  12.882  0.00  0.00    +0.000 A 
ATOM     19  C   UNL     1      46.497   4.209  13.516  0.00  0.00    +0.000 A 
ATOM     20  N   UNL     1      47.387   5.213  13.341  0.00  0.00    +0.000 NA
ATOM     21  C   UNL     1      47.051   6.233  12.526  0.00  0.00    +0.000 A 
ATOM     22  N   UNL     1      47.937   7.275  12.347  0.00  0.00    +0.000 N 
ATOM     23  C   UNL     1      49.370   7.035  12.457  0.00  0.00    +0.000 C 
ATOM     24  C   UNL     1      49.972   7.889  13.568  0.00  0.00    +0.000 C 
ATOM     25  C   UNL     1      49.582   9.360  13.419  0.00  0.00    +0.000 C 
ATOM     26  C   UNL     1      48.068   9.518  13.307  0.00  0.00    +0.000 C 
ATOM     27  C   UNL     1      47.495   8.654  12.184  0.00  0.00    +0.000 C 
ATOM     28  C   UNL     1      45.828   6.220  11.852  0.00  0.00    +0.000 A 
ENDBRANCH  16  17
ENDBRANCH   1  16
TORSDOF 6
ENDMDL
MODEL 2
REMARK VINA RESULT:    -7.306      2.474      3.681
REMARK INTER + INTRA:         -10.384
REMARK INTER:                  -9.718
REMARK INTRA:                  -0.665
REMARK UNBOUND:                -0.941
REMARK  Name = 
REMARK  6 active torsions:
REMARK  status: ('A' for Active; 'I' for Inactive)
REMARK    1  A    between atoms: N_1  and  C_2
REMARK    2  A    between atoms: C_4  and  N_5
REMARK    3  A    between atoms: N_5  and  C_6
REMARK    4  A    between atoms: C_6  and  C_7
REMARK    5  A    between atoms: C_21  and  C_22
REMARK    6  A    between atoms: C_22  and  O_24
REMARK                            x       y       z     vdW  Elec       q    Type
REMARK                         _______ _______ _______ _____ _____    ______ ____
ROOT
ATOM      1  N   UNL     1      44.449   4.144  10.830  0.00  0.00    +0.000 N 
ATOM      2  H   UNL     1      43.517   4.531  10.697  0.00  0.00    +0.000 HD
ENDROOT
BRANCH   1   5
ATOM      3  C   UNL     1      46.094   1.936   8.285  0.00  0.00    +0.000 A 
ATOM      4  C   UNL     1      45.350   2.354   9.407  0.00  0.00    +0.000 A 
ATOM      5  C   UNL     1      45.083   3.704   9.678  0.00  0.00    +0.000 A 
ATOM      6  C   UNL     1      45.571   4.649   8.775  0.00  0.00    +0.000 A 
ATOM      7  C   UNL     1      46.289   4.269   7.639  0.00  0.00    +0.000 A 
ATOM      8  C   UNL     1      46.552   2.916   7.386  0.00  0.00    +0.000 A 
BRANCH   3   9
ATOM      9  N   UNL     1      46.203   0.547   8.030  0.00  0.00    +0.000 N 
ATOM     10  H   UNL     1      45.293   0.117   7.861  0.00  0.00    +0.000 HD
ATOM     11  H   UNL     1      46.663   0.045   8.795  0.00  0.00    +0.000 HD
ENDBRANCH   3   9
BRANCH   8  12
ATOM     12  C   UNL     1      47.342   2.614   6.163  0.00  0.00    +0.000 C 
ATOM     13  O   UNL     1      46.936   2.853   5.035  0.00  0.00    +0.000 OA
BRANCH  12  14
ATOM     14  O   UNL     1      48.521   2.008   6.410  0.00  0.00    +0.000 OA
ATOM     15  H   UNL     1      48.502   1.487   7.243  0.00  0.00    +0.000 HD
ENDBRANCH  12  14
ENDBRANCH   8  12
ENDBRANCH   1   5
BRANCH   1  16
ATOM     16  C   UNL     1      44.721   3.678  12.181  0.00  0.00    +0.000 C 
BRANCH  16  17
ATOM     17  C   UNL     1      45.810   4.445  12.893  0.00  0.00    +0.000 A 
ATOM     18  C   UNL     1      46.463   5.492  12.245  0.00  0.00    +0.000 A 
ATOM     19  C   UNL     1      47.464   6.166  12.924  0.00  0.00    +0.000 A 
ATOM     20  N   UNL     1      47.861   5.867  14.182  0.00  0.00    +0.000 NA
ATOM     21  C   UNL     1      47.273   4.828  14.809  0.00  0.00    +0.000 A 
ATOM     22  N   UNL     1      47.674   4.495  16.086  0.00  0.00    +0.000 N 
ATOM     23  C   UNL     1      48.189   5.526  16.977  0.00  0.00    +0.000 C 
ATOM     24  C   UNL     1      49.618   5.202  17.401  0.00  0.00    +0.000 C 
ATOM     25  C   UNL     1      49.733   3.777  17.945  0.00  0.00    +0.000 C 
ATOM     26  C   UNL     1      49.167   2.765  16.953  0.00  0.00    +0.000 C 
ATOM     27  C   UNL     1      47.734   3.114  16.549  0.00  0.00    +0.000 C 
ATOM     28  C   UNL     1      46.251   4.115  14.180  0.00  0.00    +0.000 A 
ENDBRANCH  16  17
ENDBRANCH   1  16
TORSDOF 6
ENDMDL
MODEL 3
REMARK VINA RESULT:    -6.681      4.725      6.037
REMARK INTER + INTRA:          -9.575
REMARK INTER:                  -8.977
REMARK INTRA:                  -0.598
REMARK UNBOUND:                -0.941
REMARK  Name = 
REMARK  6 active torsions:
REMARK  status: ('A' for Active; 'I' for Inactive)
REMARK    1  A    between atoms: N_1  and  C_2
REMARK    2  A    between atoms: C_4  and  N_5
REMARK    3  A    between atoms: N_5  and  C_6
REMARK    4  A    between atoms: C_6  and  C_7
REMARK    5  A    between atoms: C_21  and  C_22
REMARK    6  A    between atoms: C_22  and  O_24
REMARK                            x       y       z     vdW  Elec       q    Type
REMARK                         _______ _______ _______ _____ _____    ______ ____
ROOT
ATOM      1  N   UNL     1      46.832   6.383  14.036  0.00  0.00    +0.000 N 
ATOM      2  H   UNL     1      46.271   6.966  14.653  0.00  0.00    +0.000 HD
ENDROOT
BRANCH   1   5
ATOM      3  C   UNL     1      44.821   3.823  12.177  0.00  0.00    +0.000 A 
ATOM      4  C   UNL     1      45.430   4.531  13.232  0.00  0.00    +0.000 A 
ATOM      5  C   UNL     1      46.134   5.728  13.034  0.00  0.00    +0.000 A 
ATOM      6  C   UNL     1      46.203   6.223  11.731  0.00  0.00    +0.000 A 
ATOM      7  C   UNL     1      45.589   5.561  10.665  0.00  0.00    +0.000 A 
ATOM      8  C   UNL     1      44.894   4.363  10.881  0.00  0.00    +0.000 A 
BRANCH   3   9
ATOM      9  N   UNL     1      44.027   2.694  12.496  0.00  0.00    +0.000 N 
ATOM     10  H   UNL     1      43.095   2.752  12.083  0.00  0.00    +0.000 HD
ATOM     11  H   UNL     1      43.928   2.559  13.507  0.00  0.00    +0.000 HD
ENDBRANCH   3   9
BRANCH   8  12
ATOM     12  C   UNL     1      44.293   3.723   9.681  0.00  0.00    +0.000 C 
ATOM     13  O   UNL     1      44.343   2.519   9.476  0.00  0.00    +0.000 OA
BRANCH  12  14
ATOM     14  O   UNL     1      43.734   4.595   8.819  0.00  0.00    +0.000 OA
ATOM     15  H   UNL     1      42.831   4.319   8.545  0.00  0.00    +0.000 HD
ENDBRANCH  12  14
ENDBRANCH   8  12
ENDBRANCH   1   5
BRANCH   1  16
ATOM     16  C   UNL     1      48.106   5.961  14.600  0.00  0.00    +0.000 C 
BRANCH  16  17
ATOM     17  C   UNL     1      47.989   5.246  15.925  0.00  0.00    +0.000 A 
ATOM     18  C   UNL     1      47.449   3.963  15.980  0.00  0.00    +0.000 A 
ATOM     19  C   UNL     1      47.346   3.342  17.214  0.00  0.00    +0.000 A 
ATOM     20  N   UNL     1      47.728   3.908  18.381  0.00  0.00    +0.000 NA
ATOM     21  C   UNL     1      48.211   5.167  18.355  0.00  0.00    +0.000 A 
ATOM     22  N   UNL     1      48.591   5.770  19.537  0.00  0.00    +0.000 N 
ATOM     23  C   UNL     1      49.084   4.956  20.640  0.00  0.00    +0.000 C 
ATOM     24  C   UNL     1      48.200   5.132  21.871  0.00  0.00    +0.000 C 
ATOM     25  C   UNL     1      47.998   6.609  22.210  0.00  0.00    +0.000 C 
ATOM     26  C   UNL     1      47.487   7.386  20.999  0.00  0.00    +0.000 C 
ATOM     27  C   UNL     1      48.394   7.192  19.784  0.00  0.00    +0.000 C 
ATOM     28  C   UNL     1      48.347   5.842  17.140  0.00  0.00    +0.000 A 
ENDBRANCH  16  17
ENDBRANCH   1  16
TORSDOF 6
ENDMDL
MODEL 4
REMARK VINA RESULT:    -6.588      3.059      5.306
REMARK INTER + INTRA:          -9.456
REMARK INTER:                  -8.726
REMARK INTRA:                  -0.730
REMARK UNBOUND:                -0.941
REMARK  Name = 
REMARK  6 active torsions:
REMARK  status: ('A' for Active; 'I' for Inactive)
REMARK    1  A    between atoms: N_1  and  C_2
REMARK    2  A    between atoms: C_4  and  N_5
REMARK    3  A    between atoms: N_5  and  C_6
REMARK    4  A    between atoms: C_6  and  C_7
REMARK    5  A    between atoms: C_21  and  C_22
REMARK    6  A    between atoms: C_22  and  O_24
REMARK                            x       y       z     vdW  Elec       q    Type
REMARK                         _______ _______ _______ _____ _____    ______ ____
ROOT
ATOM      1  N   UNL     1      46.436   7.598  12.218  0.00  0.00    +0.000 N 
ATOM      2  H   UNL     1      45.993   8.247  12.864  0.00  0.00    +0.000 HD
ENDROOT
BRANCH   1   5
ATOM      3  C   UNL     1      44.366   4.499  12.631  0.00  0.00    +0.000 A 
ATOM      4  C   UNL     1      44.997   5.728  12.909  0.00  0.00    +0.000 A 
ATOM      5  C   UNL     1      45.718   6.445  11.942  0.00  0.00    +0.000 A 
ATOM      6  C   UNL     1      45.781   5.903  10.657  0.00  0.00    +0.000 A 
ATOM      7  C   UNL     1      45.145   4.701  10.340  0.00  0.00    +0.000 A 
ATOM      8  C   UNL     1      44.434   3.996  11.321  0.00  0.00    +0.000 A 
BRANCH   3   9
ATOM      9  N   UNL     1      43.558   3.916  13.639  0.00  0.00    +0.000 N 
ATOM     10  H   UNL     1      42.989   4.612  14.123  0.00  0.00    +0.000 HD
ATOM     11  H   UNL     1      44.110   3.406  14.334  0.00  0.00    +0.000 HD
ENDBRANCH   3   9
BRANCH   8  12
ATOM     12  C   UNL     1      43.810   2.715  10.891  0.00  0.00    +0.000 C 
ATOM     13  O   UNL     1      42.837   2.232  11.451  0.00  0.00    +0.000 OA
BRANCH  12  14
ATOM     14  O   UNL     1      44.445   2.115   9.866  0.00  0.00    +0.000 OA
ATOM     15  H   UNL     1      44.791   1.229  10.112  0.00  0.00    +0.000 HD
ENDBRANCH  12  14
ENDBRANCH   8  12
ENDBRANCH   1   5
BRANCH   1  16
ATOM     16  C   UNL     1      47.880   7.744  12.112  0.00  0.00    +0.000 C 
BRANCH  16  17
ATOM     17  C   UNL     1      48.632   7.394  13.375  0.00  0.00    +0.000 A 
ATOM     18  C   UNL     1      49.930   7.860  13.566  0.00  0.00    +0.000 A 
ATOM     19  C   UNL     1      50.593   7.509  14.730  0.00  0.00    +0.000 A 
ATOM     20  N   UNL     1      50.062   6.727  15.698  0.00  0.00    +0.000 NA
ATOM     21  C   UNL     1      48.823   6.228  15.511  0.00  0.00    +0.000 A 
ATOM     22  N   UNL     1      48.269   5.415  16.478  0.00  0.00    +0.000 N 
ATOM     23  C   UNL     1      48.648   5.588  17.874  0.00  0.00    +0.000 C 
ATOM     24  C   UNL     1      49.272   4.308  18.422  0.00  0.00    +0.000 C 
ATOM     25  C   UNL     1      48.388   3.091  18.148  0.00  0.00    +0.000 C 
ATOM     26  C   UNL     1      48.037   2.990  16.666  0.00  0.00    +0.000 C 
ATOM     27  C   UNL     1      47.411   4.285  16.147  0.00  0.00    +0.000 C 
ATOM     28  C   UNL     1      48.101   6.554  14.362  0.00  0.00    +0.000 A 
ENDBRANCH  16  17
ENDBRANCH   1  16
TORSDOF 6
ENDMDL
MODEL 5
REMARK VINA RESULT:    -6.428      2.932      4.687
REMARK INTER + INTRA:          -9.248
REMARK INTER:                  -8.362
REMARK INTRA:                  -0.886
REMARK UNBOUND:                -0.941
REMARK  Name = 
REMARK  6 active torsions:
REMARK  status: ('A' for Active; 'I' for Inactive)
REMARK    1  A    between atoms: N_1  and  C_2
REMARK    2  A    between atoms: C_4  and  N_5
REMARK    3  A    between atoms: N_5  and  C_6
REMARK    4  A    between atoms: C_6  and  C_7
REMARK    5  A    between atoms: C_21  and  C_22
REMARK    6  A    between atoms: C_22  and  O_24
REMARK                            x       y       z     vdW  Elec       q    Type
REMARK                         _______ _______ _______ _____ _____    ______ ____
ROOT
ATOM      1  N   UNL     1      45.201   7.710  13.013  0.00  0.00    +0.000 N 
ATOM      2  H   UNL     1      45.018   7.863  14.002  0.00  0.00    +0.000 HD
ENDROOT
BRANCH   1   5
ATOM      3  C   UNL     1      45.233   4.013  12.390  0.00  0.00    +0.000 A 
ATOM      4  C   UNL     1      45.497   5.270  12.970  0.00  0.00    +0.000 A 
ATOM      5  C   UNL     1      44.877   6.450  12.533  0.00  0.00    +0.000 A 
ATOM      6  C   UNL     1      43.953   6.342  11.492  0.00  0.00    +0.000 A 
ATOM      7  C   UNL     1      43.648   5.109  10.913  0.00  0.00    +0.000 A 
ATOM      8  C   UNL     1      44.282   3.941  11.358  0.00  0.00    +0.000 A 
BRANCH   3   9
ATOM      9  N   UNL     1      45.814   2.864  12.983  0.00  0.00    +0.000 N 
ATOM     10  H   UNL     1      46.656   2.563  12.491  0.00  0.00    +0.000 HD
ATOM     11  H   UNL     1      45.162   2.076  13.027  0.00  0.00    +0.000 HD
ENDBRANCH   3   9
BRANCH   8  12
ATOM     12  C   UNL     1      43.905   2.680  10.664  0.00  0.00    +0.000 C 
ATOM     13  O   UNL     1      44.220   2.442   9.506  0.00  0.00    +0.000 OA
BRANCH  12  14
ATOM     14  O   UNL     1      43.147   1.852  11.408  0.00  0.00    +0.000 OA
ATOM     15  H   UNL     1      42.294   2.266  11.669  0.00  0.00    +0.000 HD
ENDBRANCH  12  14
ENDBRANCH   8  12
ENDBRANCH   1   5
BRANCH   1  16
ATOM     16  C   UNL     1      46.186   8.612  12.435  0.00  0.00    +0.000 C 
BRANCH  16  17
ATOM     17  C   UNL     1      47.616   8.269  12.782  0.00  0.00    +0.000 A 
ATOM     18  C   UNL     1      48.583   8.218  11.780  0.00  0.00    +0.000 A 
ATOM     19  C   UNL     1      49.881   7.889  12.133  0.00  0.00    +0.000 A 
ATOM     20  N   UNL     1      50.274   7.601  13.394  0.00  0.00    +0.000 NA
ATOM     21  C   UNL     1      49.344   7.600  14.371  0.00  0.00    +0.000 A 
ATOM     22  N   UNL     1      49.720   7.292  15.662  0.00  0.00    +0.000 N 
ATOM     23  C   UNL     1      51.072   7.592  16.114  0.00  0.00    +0.000 C 
ATOM     24  C   UNL     1      51.786   6.317  16.551  0.00  0.00    +0.000 C 
ATOM     25  C   UNL     1      50.945   5.515  17.545  0.00  0.00    +0.000 C 
ATOM     26  C   UNL     1      49.547   5.251  16.993  0.00  0.00    +0.000 C 
ATOM     27  C   UNL     1      48.856   6.547  16.568  0.00  0.00    +0.000 C 
ATOM     28  C   UNL     1      48.020   7.932  14.079  0.00  0.00    +0.000 A 
ENDBRANCH  16  17
ENDBRANCH   1  16
TORSDOF 6
ENDMDL
MODEL 6
REMARK VINA RESULT:    -6.256      3.177      5.275
REMARK INTER + INTRA:          -9.026
REMARK INTER:                  -8.256
REMARK INTRA:                  -0.770
REMARK UNBOUND:                -0.941
REMARK  Name = 
REMARK  6 active torsions:
REMARK  status: ('A' for Active; 'I' for Inactive)
REMARK    1  A    between atoms: N_1  and  C_2
REMARK    2  A    between atoms: C_4  and  N_5
REMARK    3  A    between atoms: N_5  and  C_6
REMARK    4  A    between atoms: C_6  and  C_7
REMARK    5  A    between atoms: C_21  and  C_22
REMARK    6  A    between atoms: C_22  and  O_24
REMARK                            x       y       z     vdW  Elec       q    Type
REMARK                         _______ _______ _______ _____ _____    ______ ____
ROOT
ATOM      1  N   UNL     1      46.885   6.804  13.681  0.00  0.00    +0.000 N 
ATOM      2  H   UNL     1      46.384   7.039  14.535  0.00  0.00    +0.000 HD
ENDROOT
BRANCH   1   5
ATOM      3  C   UNL     1      45.067   3.923  12.117  0.00  0.00    +0.000 A 
ATOM      4  C   UNL     1      45.673   4.751  13.082  0.00  0.00    +0.000 A 
ATOM      5  C   UNL     1      46.189   6.019  12.776  0.00  0.00    +0.000 A 
ATOM      6  C   UNL     1      46.066   6.460  11.457  0.00  0.00    +0.000 A 
ATOM      7  C   UNL     1      45.447   5.677  10.481  0.00  0.00    +0.000 A 
ATOM      8  C   UNL     1      44.943   4.409  10.804  0.00  0.00    +0.000 A 
BRANCH   3   9
ATOM      9  N   UNL     1      44.466   2.715  12.550  0.00  0.00    +0.000 N 
ATOM     10  H   UNL     1      44.605   1.957  11.881  0.00  0.00    +0.000 HD
ATOM     11  H   UNL     1      43.461   2.819  12.721  0.00  0.00    +0.000 HD
ENDBRANCH   3   9
BRANCH   8  12
ATOM     12  C   UNL     1      44.320   3.643   9.691  0.00  0.00    +0.000 C 
ATOM     13  O   UNL     1      44.352   2.423   9.627  0.00  0.00    +0.000 OA
BRANCH  12  14
ATOM     14  O   UNL     1      43.765   4.418   8.738  0.00  0.00    +0.000 OA
ATOM     15  H   UNL     1      43.547   3.907   7.927  0.00  0.00    +0.000 HD
ENDBRANCH  12  14
ENDBRANCH   8  12
ENDBRANCH   1   5
BRANCH   1  16
ATOM     16  C   UNL     1      48.334   6.895  13.789  0.00  0.00    +0.000 C 
BRANCH  16  17
ATOM     17  C   UNL     1      48.958   7.924  12.876  0.00  0.00    +0.000 A 
ATOM     18  C   UNL     1      48.306   9.131  12.636  0.00  0.00    +0.000 A 
ATOM     19  C   UNL     1      48.902  10.046  11.785  0.00  0.00    +0.000 A 
ATOM     20  N   UNL     1      50.082   9.839  11.156  0.00  0.00    +0.000 NA
ATOM     21  C   UNL     1      50.707   8.658  11.339  0.00  0.00    +0.000 A 
ATOM     22  N   UNL     1      51.903   8.420  10.694  0.00  0.00    +0.000 N 
ATOM     23  C   UNL     1      52.790   9.531  10.377  0.00  0.00    +0.000 C 
ATOM     24  C   UNL     1      53.019   9.620   8.872  0.00  0.00    +0.000 C 
ATOM     25  C   UNL     1      53.452   8.274   8.289  0.00  0.00    +0.000 C 
ATOM     26  C   UNL     1      52.472   7.169   8.673  0.00  0.00    +0.000 C 
ATOM     27  C   UNL     1      52.265   7.102  10.186  0.00  0.00    +0.000 C 
ATOM     28  C   UNL     1      50.160   7.699  12.193  0.00  0.00    +0.000 A 
ENDBRANCH  16  17
ENDBRANCH   1  16
TORSDOF 6
ENDMDL
MODEL 7
REMARK VINA RESULT:    -6.122      4.986      8.444
REMARK INTER + INTRA:          -8.853
REMARK INTER:                  -8.069
REMARK INTRA:                  -0.784
REMARK UNBOUND:                -0.941
REMARK  Name = 
REMARK  6 active torsions:
REMARK  status: ('A' for Active; 'I' for Inactive)
REMARK    1  A    between atoms: N_1  and  C_2
REMARK    2  A    between atoms: C_4  and  N_5
REMARK    3  A    between atoms: N_5  and  C_6
REMARK    4  A    between atoms: C_6  and  C_7
REMARK    5  A    between atoms: C_21  and  C_22
REMARK    6  A    between atoms: C_22  and  O_24
REMARK                            x       y       z     vdW  Elec       q    Type
REMARK                         _______ _______ _______ _____ _____    ______ ____
ROOT
ATOM      1  N   UNL     1      48.960   6.749  14.963  0.00  0.00    +0.000 N 
ATOM      2  H   UNL     1      49.286   6.204  14.169  0.00  0.00    +0.000 HD
ENDROOT
BRANCH   1   5
ATOM      3  C   UNL     1      47.752   4.341  17.571  0.00  0.00    +0.000 A 
ATOM      4  C   UNL     1      47.955   4.965  16.324  0.00  0.00    +0.000 A 
ATOM      5  C   UNL     1      48.826   6.051  16.153  0.00  0.00    +0.000 A 
ATOM      6  C   UNL     1      49.520   6.499  17.278  0.00  0.00    +0.000 A 
ATOM      7  C   UNL     1      49.364   5.887  18.523  0.00  0.00    +0.000 A 
ATOM      8  C   UNL     1      48.484   4.806  18.676  0.00  0.00    +0.000 A 
BRANCH   3   9
ATOM      9  N   UNL     1      46.949   3.174  17.615  0.00  0.00    +0.000 N 
ATOM     10  H   UNL     1      46.907   2.704  16.710  0.00  0.00    +0.000 HD
ATOM     11  H   UNL     1      45.994   3.370  17.926  0.00  0.00    +0.000 HD
ENDBRANCH   3   9
BRANCH   8  12
ATOM     12  C   UNL     1      48.370   4.236  20.046  0.00  0.00    +0.000 C 
ATOM     13  O   UNL     1      48.379   4.927  21.054  0.00  0.00    +0.000 OA
BRANCH  12  14
ATOM     14  O   UNL     1      48.309   2.891  20.074  0.00  0.00    +0.000 OA
ATOM     15  H   UNL     1      48.563   2.526  20.951  0.00  0.00    +0.000 HD
ENDBRANCH  12  14
ENDBRANCH   8  12
ENDBRANCH   1   5
BRANCH   1  16
ATOM     16  C   UNL     1      48.243   7.964  14.606  0.00  0.00    +0.000 C 
BRANCH  16  17
ATOM     17  C   UNL     1      47.184   7.768  13.546  0.00  0.00    +0.000 A 
ATOM     18  C   UNL     1      46.454   8.859  13.079  0.00  0.00    +0.000 A 
ATOM     19  C   UNL     1      45.484   8.640  12.116  0.00  0.00    +0.000 A 
ATOM     20  N   UNL     1      45.188   7.426  11.600  0.00  0.00    +0.000 NA
ATOM     21  C   UNL     1      45.852   6.351  12.071  0.00  0.00    +0.000 A 
ATOM     22  N   UNL     1      45.554   5.100  11.571  0.00  0.00    +0.000 N 
ATOM     23  C   UNL     1      45.073   4.962  10.203  0.00  0.00    +0.000 C 
ATOM     24  C   UNL     1      43.689   4.320  10.185  0.00  0.00    +0.000 C 
ATOM     25  C   UNL     1      43.658   3.029  11.003  0.00  0.00    +0.000 C 
ATOM     26  C   UNL     1      44.182   3.264  12.418  0.00  0.00    +0.000 C 
ATOM     27  C   UNL     1      45.570   3.904  12.404  0.00  0.00    +0.000 C 
ATOM     28  C   UNL     1      46.848   6.508  13.037  0.00  0.00    +0.000 A 
ENDBRANCH  16  17
ENDBRANCH   1  16
TORSDOF 6
ENDMDL
MODEL 8
REMARK VINA RESULT:    -6.053      3.564      7.180
REMARK INTER + INTRA:          -8.764
REMARK INTER:                  -7.762
REMARK INTRA:                  -1.002
REMARK UNBOUND:                -0.941
REMARK  Name = 
REMARK  6 active torsions:
REMARK  status: ('A' for Active; 'I' for Inactive)
REMARK    1  A    between atoms: N_1  and  C_2
REMARK    2  A    between atoms: C_4  and  N_5
REMARK    3  A    between atoms: N_5  and  C_6
REMARK    4  A    between atoms: C_6  and  C_7
REMARK    5  A    between atoms: C_21  and  C_22
REMARK    6  A    between atoms: C_22  and  O_24
REMARK                            x       y       z     vdW  Elec       q    Type
REMARK                         _______ _______ _______ _____ _____    ______ ____
ROOT
ATOM      1  N   UNL     1      46.335   8.697  12.054  0.00  0.00    +0.000 N 
ATOM      2  H   UNL     1      46.358   9.075  11.110  0.00  0.00    +0.000 HD
ENDROOT
BRANCH   1   5
ATOM      3  C   UNL     1      49.953   7.868  12.577  0.00  0.00    +0.000 A 
ATOM      4  C   UNL     1      48.734   8.171  11.941  0.00  0.00    +0.000 A 
ATOM      5  C   UNL     1      47.570   8.502  12.651  0.00  0.00    +0.000 A 
ATOM      6  C   UNL     1      47.659   8.543  14.044  0.00  0.00    +0.000 A 
ATOM      7  C   UNL     1      48.858   8.274  14.706  0.00  0.00    +0.000 A 
ATOM      8  C   UNL     1      50.009   7.939  13.980  0.00  0.00    +0.000 A 
BRANCH   3   9
ATOM      9  N   UNL     1      51.101   7.669  11.770  0.00  0.00    +0.000 N 
ATOM     10  H   UNL     1      50.948   7.971  10.808  0.00  0.00    +0.000 HD
ATOM     11  H   UNL     1      51.407   6.692  11.761  0.00  0.00    +0.000 HD
ENDBRANCH   3   9
BRANCH   8  12
ATOM     12  C   UNL     1      51.231   7.649  14.777  0.00  0.00    +0.000 C 
ATOM     13  O   UNL     1      52.290   8.236  14.604  0.00  0.00    +0.000 OA
BRANCH  12  14
ATOM     14  O   UNL     1      51.079   6.650  15.667  0.00  0.00    +0.000 OA
ATOM     15  H   UNL     1      51.846   6.577  16.278  0.00  0.00    +0.000 HD
ENDBRANCH  12  14
ENDBRANCH   8  12
ENDBRANCH   1   5
BRANCH   1  16
ATOM     16  C   UNL     1      45.108   7.989  12.388  0.00  0.00    +0.000 C 
BRANCH  16  17
ATOM     17  C   UNL     1      45.182   6.494  12.187  0.00  0.00    +0.000 A 
ATOM     18  C   UNL     1      45.426   5.655  13.273  0.00  0.00    +0.000 A 
ATOM     19  C   UNL     1      45.499   4.291  13.049  0.00  0.00    +0.000 A 
ATOM     20  N   UNL     1      45.359   3.713  11.834  0.00  0.00    +0.000 NA
ATOM     21  C   UNL     1      45.168   4.511  10.764  0.00  0.00    +0.000 A 
ATOM     22  N   UNL     1      45.039   3.944   9.513  0.00  0.00    +0.000 N 
ATOM     23  C   UNL     1      44.480   2.605   9.378  0.00  0.00    +0.000 C 
ATOM     24  C   UNL     1      45.488   1.668   8.720  0.00  0.00    +0.000 C 
ATOM     25  C   UNL     1      46.042   2.259   7.424  0.00  0.00    +0.000 C 
ATOM     26  C   UNL     1      46.602   3.660   7.656  0.00  0.00    +0.000 C 
ATOM     27  C   UNL     1      45.569   4.577   8.312  0.00  0.00    +0.000 C 
ATOM     28  C   UNL     1      45.076   5.894  10.926  0.00  0.00    +0.000 A 
ENDBRANCH  16  17
ENDBRANCH   1  16
TORSDOF 6
ENDMDL
MODEL 9
REMARK VINA RESULT:    -5.948      4.670      6.790
REMARK INTER + INTRA:          -8.629
REMARK INTER:                  -7.898
REMARK INTRA:                  -0.730
REMARK UNBOUND:                -0.941
REMARK  Name = 
REMARK  6 active torsions:
REMARK  status: ('A' for Active; 'I' for Inactive)
REMARK    1  A    between atoms: N_1  and  C_2
REMARK    2  A    between atoms: C_4  and  N_5
REMARK    3  A    between atoms: N_5  and  C_6
REMARK    4  A    between atoms: C_6  and  C_7
REMARK    5  A    between atoms: C_21  and  C_22
REMARK    6  A    between atoms: C_22  and  O_24
REMARK                            x       y       z     vdW  Elec       q    Type
REMARK                         _______ _______ _______ _____ _____    ______ ____
ROOT
ATOM      1  N   UNL     1      48.599   7.394  12.959  0.00  0.00    +0.000 N 
ATOM      2  H   UNL     1      48.640   8.269  12.441  0.00  0.00    +0.000 HD
ENDROOT
BRANCH   1   5
ATOM      3  C   UNL     1      44.998   6.579  12.309  0.00  0.00    +0.000 A 
ATOM      4  C   UNL     1      46.248   7.226  12.259  0.00  0.00    +0.000 A 
ATOM      5  C   UNL     1      47.388   6.722  12.903  0.00  0.00    +0.000 A 
ATOM      6  C   UNL     1      47.252   5.520  13.600  0.00  0.00    +0.000 A 
ATOM      7  C   UNL     1      46.035   4.839  13.649  0.00  0.00    +0.000 A 
ATOM      8  C   UNL     1      44.905   5.360  13.004  0.00  0.00    +0.000 A 
BRANCH   3   9
ATOM      9  N   UNL     1      43.940   7.099  11.523  0.00  0.00    +0.000 N 
ATOM     10  H   UNL     1      43.548   7.951  11.925  0.00  0.00    +0.000 HD
ATOM     11  H   UNL     1      43.183   6.422  11.391  0.00  0.00    +0.000 HD
ENDBRANCH   3   9
BRANCH   8  12
ATOM     12  C   UNL     1      43.649   4.573  13.132  0.00  0.00    +0.000 C 
ATOM     13  O   UNL     1      43.605   3.363  12.957  0.00  0.00    +0.000 OA
BRANCH  12  14
ATOM     14  O   UNL     1      42.562   5.319  13.407  0.00  0.00    +0.000 OA
ATOM     15  H   UNL     1      42.599   6.201  12.975  0.00  0.00    +0.000 HD
ENDBRANCH  12  14
ENDBRANCH   8  12
ENDBRANCH   1   5
BRANCH   1  16
ATOM     16  C   UNL     1      49.589   7.275  14.019  0.00  0.00    +0.000 C 
BRANCH  16  17
ATOM     17  C   UNL     1      49.060   7.590  15.398  0.00  0.00    +0.000 A 
ATOM     18  C   UNL     1      48.712   8.897  15.729  0.00  0.00    +0.000 A 
ATOM     19  C   UNL     1      48.241   9.151  17.006  0.00  0.00    +0.000 A 
ATOM     20  N   UNL     1      48.105   8.208  17.966  0.00  0.00    +0.000 NA
ATOM     21  C   UNL     1      48.479   6.944  17.679  0.00  0.00    +0.000 A 
ATOM     22  N   UNL     1      48.364   5.969  18.648  0.00  0.00    +0.000 N 
ATOM     23  C   UNL     1      47.327   6.076  19.666  0.00  0.00    +0.000 C 
ATOM     24  C   UNL     1      47.947   6.132  21.058  0.00  0.00    +0.000 C 
ATOM     25  C   UNL     1      48.938   4.988  21.277  0.00  0.00    +0.000 C 
ATOM     26  C   UNL     1      49.983   4.946  20.166  0.00  0.00    +0.000 C 
ATOM     27  C   UNL     1      49.332   4.888  18.784  0.00  0.00    +0.000 C 
ATOM     28  C   UNL     1      48.953   6.624  16.405  0.00  0.00    +0.000 A 
ENDBRANCH  16  17
ENDBRANCH   1  16
TORSDOF 6
ENDMDL
