MODEL 1
REMARK VINA RESULT:    -7.526      0.000      0.000
REMARK INTER + INTRA:         -10.392
REMARK INTER:                  -9.726
REMARK INTRA:                  -0.666
REMARK UNBOUND:                -0.666
REMARK  Name = 
REMARK  5 active torsions:
REMARK  status: ('A' for Active; 'I' for Inactive)
REMARK    1  A    between atoms: C_2  and  C_4
REMARK    2  A    between atoms: C_8  and  C_9
REMARK    3  A    between atoms: C_9  and  O_10
REMARK    4  A    between atoms: O_10  and  C_11
REMARK    5  A    between atoms: C_15  and  N_16
REMARK                            x       y       z     vdW  Elec       q    Type
REMARK                         _______ _______ _______ _____ _____    ______ ____
ROOT
ATOM      1  O   UNL     1      44.051   4.580  10.885  0.00  0.00    +0.000 OA
ENDROOT
BRANCH   1   2
ATOM      2  C   UNL     1      45.070   4.908  11.735  0.00  0.00    +0.000 A 
ATOM      3  C   UNL     1      45.477   3.918  12.621  0.00  0.00    +0.000 A 
ATOM      4  C   UNL     1      46.476   4.194  13.552  0.00  0.00    +0.000 A 
ATOM      5  C   UNL     1      47.095   5.451  13.572  0.00  0.00    +0.000 A 
ATOM      6  C   UNL     1      46.748   6.444  12.650  0.00  0.00    +0.000 A 
ATOM      7  C   UNL     1      45.711   6.145  11.752  0.00  0.00    +0.000 A 
BRANCH   6   8
ATOM      8  N   UNL     1      47.338   7.695  12.600  0.00  0.00    +0.000 N 
ATOM      9  C   UNL     1      46.640   8.913  13.001  0.00  0.00    +0.000 C 
ATOM     10  C   UNL     1      47.059  10.040  12.049  0.00  0.00    +0.000 C 
ATOM     11  C   UNL     1      48.581  10.178  11.943  0.00  0.00    +0.000 C 
ATOM     12  C   UNL     1      49.248   8.837  11.640  0.00  0.00    +0.000 C 
ATOM     13  C   UNL     1      48.802   7.780  12.643  0.00  0.00    +0.000 C 
ENDBRANCH   6   8
ENDBRANCH   1   2
BRANCH   1  14
ATOM     14  C   UNL     1      44.107   3.253  10.347  0.00  0.00    +0.000 C 
BRANCH  14  19
ATOM     15  C   UNL     1      46.469   1.905   7.677  0.00  0.00    +0.000 A 
ATOM     16  C   UNL     1      46.915   3.086   7.075  0.00  0.00    +0.000 A 
ATOM     17  C   UNL     1      46.469   4.320   7.544  0.00  0.00    +0.000 A 
ATOM     18  C   UNL     1      45.566   4.378   8.603  0.00  0.00    +0.000 A 
ATOM     19  C   UNL     1      45.079   3.203   9.193  0.00  0.00    +0.000 A 
ATOM     20  C   UNL     1      45.552   1.965   8.732  0.00  0.00    +0.000 A 
BRANCH  15  22
ATOM     21  N   UNL     1      47.423   0.483   5.942  0.00  0.00    +0.000 N 
ATOM     22  C   UNL     1      46.919   0.567   7.209  0.00  0.00    +0.000 C 
ATOM     23  O   UNL     1      46.882  -0.418   7.937  0.00  0.00    +0.000 OA
ATOM     24  H   UNL     1      47.812  -0.415   5.674  0.00  0.00    +0.000 HD
ATOM     25  H   UNL     1      47.706   1.293   5.411  0.00  0.00    +0.000 HD
ENDBRANCH  15  22
ENDBRANCH  14  19
ENDBRANCH   1  14
TORSDOF 5
ENDMDL
MODEL 2
REMARK VINA RESULT:    -7.323      2.676      6.897
REMARK INTER + INTRA:         -10.129
REMARK INTER:                  -9.444
REMARK INTRA:                  -0.685
REMARK UNBOUND:                -0.666
REMARK  Name = 
REMARK  5 active torsions:
REMARK  status: ('A' for Active; 'I' for Inactive)
REMARK    1  A    between atoms: C_2  and  C_4
REMARK    2  A    between atoms: C_8  and  C_9
REMARK    3  A    between atoms: C_9  and  O_10
REMARK    4  A    between atoms: O_10  and  C_11
REMARK    5  A    between atoms: C_15  and  N_16
REMARK                            x       y       z     vdW  Elec       q    Type
REMARK                         _______ _______ _______ _____ _____    ______ ____
ROOT
ATOM      1  O   UNL     1      44.855   6.785  12.053  0.00  0.00    +0.000 OA
ENDROOT
BRANCH   1   2
ATOM      2  C   UNL     1      44.516   5.526  11.643  0.00  0.00    +0.000 A 
ATOM      3  C   UNL     1      43.593   4.850  12.431  0.00  0.00    +0.000 A 
ATOM      4  C   UNL     1      43.234   3.543  12.104  0.00  0.00    +0.000 A 
ATOM      5  C   UNL     1      43.773   2.926  10.968  0.00  0.00    +0.000 A 
ATOM      6  C   UNL     1      44.656   3.607  10.124  0.00  0.00    +0.000 A 
ATOM      7  C   UNL     1      45.026   4.907  10.504  0.00  0.00    +0.000 A 
BRANCH   6   8
ATOM      8  N   UNL     1      45.203   3.064   8.974  0.00  0.00    +0.000 N 
ATOM      9  C   UNL     1      45.225   1.629   8.712  0.00  0.00    +0.000 C 
ATOM     10  C   UNL     1      46.551   1.288   8.020  0.00  0.00    +0.000 C 
ATOM     11  C   UNL     1      46.812   2.169   6.794  0.00  0.00    +0.000 C 
ATOM     12  C   UNL     1      46.653   3.653   7.122  0.00  0.00    +0.000 C 
ATOM     13  C   UNL     1      45.302   3.912   7.780  0.00  0.00    +0.000 C 
ENDBRANCH   6   8
ENDBRANCH   1   2
BRANCH   1  14
ATOM     14  C   UNL     1      46.231   7.138  11.870  0.00  0.00    +0.000 C 
BRANCH  14  19
ATOM     15  C   UNL     1      47.590   5.250  14.889  0.00  0.00    +0.000 A 
ATOM     16  C   UNL     1      48.443   6.204  15.455  0.00  0.00    +0.000 A 
ATOM     17  C   UNL     1      48.564   7.465  14.874  0.00  0.00    +0.000 A 
ATOM     18  C   UNL     1      47.848   7.771  13.719  0.00  0.00    +0.000 A 
ATOM     19  C   UNL     1      47.019   6.815  13.117  0.00  0.00    +0.000 A 
ATOM     20  C   UNL     1      46.882   5.556  13.721  0.00  0.00    +0.000 A 
BRANCH  15  22
ATOM     21  N   UNL     1      46.956   3.815  16.755  0.00  0.00    +0.000 N 
ATOM     22  C   UNL     1      47.430   3.894  15.476  0.00  0.00    +0.000 C 
ATOM     23  O   UNL     1      47.670   2.879  14.832  0.00  0.00    +0.000 OA
ATOM     24  H   UNL     1      46.764   2.882  17.104  0.00  0.00    +0.000 HD
ATOM     25  H   UNL     1      46.512   4.591  17.222  0.00  0.00    +0.000 HD
ENDBRANCH  15  22
ENDBRANCH  14  19
ENDBRANCH   1  14
TORSDOF 5
ENDMDL
MODEL 3
REMARK VINA RESULT:    -7.191      2.601      7.224
REMARK INTER + INTRA:          -9.959
REMARK INTER:                  -9.098
REMARK INTRA:                  -0.861
REMARK UNBOUND:                -0.666
REMARK  Name = 
REMARK  5 active torsions:
REMARK  status: ('A' for Active; 'I' for Inactive)
REMARK    1  A    between atoms: C_2  and  C_4
REMARK    2  A    between atoms: C_8  and  C_9
REMARK    3  A    between atoms: C_9  and  O_10
REMARK    4  A    between atoms: O_10  and  C_11
REMARK    5  A    between atoms: C_15  and  N_16
REMARK                            x       y       z     vdW  Elec       q    Type
REMARK                         _______ _______ _______ _____ _____    ______ ____
ROOT
ATOM      1  O   UNL     1      45.243   6.222  12.785  0.00  0.00    +0.000 OA
ENDROOT
BRANCH   1   2
ATOM      2  C   UNL     1      44.762   5.094  12.181  0.00  0.00    +0.000 A 
ATOM      3  C   UNL     1      43.749   4.420  12.852  0.00  0.00    +0.000 A 
ATOM      4  C   UNL     1      43.242   3.235  12.323  0.00  0.00    +0.000 A 
ATOM      5  C   UNL     1      43.724   2.742  11.103  0.00  0.00    +0.000 A 
ATOM      6  C   UNL     1      44.699   3.435  10.377  0.00  0.00    +0.000 A 
ATOM      7  C   UNL     1      45.216   4.604  10.958  0.00  0.00    +0.000 A 
BRANCH   6   8
ATOM      8  N   UNL     1      45.199   3.017   9.157  0.00  0.00    +0.000 N 
ATOM      9  C   UNL     1      45.244   1.612   8.761  0.00  0.00    +0.000 C 
ATOM     10  C   UNL     1      46.540   1.378   7.975  0.00  0.00    +0.000 C 
ATOM     11  C   UNL     1      46.714   2.374   6.825  0.00  0.00    +0.000 C 
ATOM     12  C   UNL     1      46.534   3.816   7.297  0.00  0.00    +0.000 C 
ATOM     13  C   UNL     1      45.213   3.973   8.042  0.00  0.00    +0.000 C 
ENDBRANCH   6   8
ENDBRANCH   1   2
BRANCH   1  14
ATOM     14  C   UNL     1      46.026   7.079  11.946  0.00  0.00    +0.000 C 
BRANCH  14  19
ATOM     15  C   UNL     1      48.918   7.093  14.429  0.00  0.00    +0.000 A 
ATOM     16  C   UNL     1      49.959   7.599  13.644  0.00  0.00    +0.000 A 
ATOM     17  C   UNL     1      49.722   7.956  12.317  0.00  0.00    +0.000 A 
ATOM     18  C   UNL     1      48.453   7.793  11.767  0.00  0.00    +0.000 A 
ATOM     19  C   UNL     1      47.408   7.251  12.529  0.00  0.00    +0.000 A 
ATOM     20  C   UNL     1      47.646   6.918  13.871  0.00  0.00    +0.000 A 
BRANCH  15  22
ATOM     21  N   UNL     1      48.430   7.395  16.798  0.00  0.00    +0.000 N 
ATOM     22  C   UNL     1      49.124   6.700  15.848  0.00  0.00    +0.000 C 
ATOM     23  O   UNL     1      49.853   5.766  16.160  0.00  0.00    +0.000 OA
ATOM     24  H   UNL     1      48.510   7.052  17.750  0.00  0.00    +0.000 HD
ATOM     25  H   UNL     1      47.642   7.986  16.578  0.00  0.00    +0.000 HD
ENDBRANCH  15  22
ENDBRANCH  14  19
ENDBRANCH   1  14
TORSDOF 5
ENDMDL
MODEL 4
REMARK VINA RESULT:    -7.183      2.244      3.870
REMARK INTER + INTRA:          -9.949
REMARK INTER:                  -9.028
REMARK INTRA:                  -0.921
REMARK UNBOUND:                -0.666
REMARK  Name = 
REMARK  5 active torsions:
REMARK  status: ('A' for Active; 'I' for Inactive)
REMARK    1  A    between atoms: C_2  and  C_4
REMARK    2  A    between atoms: C_8  and  C_9
REMARK    3  A    between atoms: C_9  and  O_10
REMARK    4  A    between atoms: O_10  and  C_11
REMARK    5  A    between atoms: C_15  and  N_16
REMARK                            x       y       z     vdW  Elec       q    Type
REMARK                         _______ _______ _______ _____ _____    ______ ____
ROOT
ATOM      1  O   UNL     1      44.681   5.169  11.552  0.00  0.00    +0.000 OA
ENDROOT
BRANCH   1   2
ATOM      2  C   UNL     1      45.816   5.599  12.182  0.00  0.00    +0.000 A 
ATOM      3  C   UNL     1      46.571   6.552  11.509  0.00  0.00    +0.000 A 
ATOM      4  C   UNL     1      47.766   7.003  12.065  0.00  0.00    +0.000 A 
ATOM      5  C   UNL     1      48.189   6.526  13.314  0.00  0.00    +0.000 A 
ATOM      6  C   UNL     1      47.416   5.614  14.040  0.00  0.00    +0.000 A 
ATOM      7  C   UNL     1      46.237   5.152  13.432  0.00  0.00    +0.000 A 
BRANCH   6   8
ATOM      8  N   UNL     1      47.763   5.125  15.286  0.00  0.00    +0.000 N 
ATOM      9  C   UNL     1      48.441   5.936  16.293  0.00  0.00    +0.000 C 
ATOM     10  C   UNL     1      49.447   5.043  17.029  0.00  0.00    +0.000 C 
ATOM     11  C   UNL     1      48.804   3.760  17.566  0.00  0.00    +0.000 C 
ATOM     12  C   UNL     1      48.013   3.030  16.482  0.00  0.00    +0.000 C 
ATOM     13  C   UNL     1      47.019   3.977  15.819  0.00  0.00    +0.000 C 
ENDBRANCH   6   8
ENDBRANCH   1   2
BRANCH   1  14
ATOM     14  C   UNL     1      44.677   5.322  10.128  0.00  0.00    +0.000 C 
BRANCH  14  19
ATOM     15  C   UNL     1      46.290   2.782   7.788  0.00  0.00    +0.000 A 
ATOM     16  C   UNL     1      45.670   1.595   8.193  0.00  0.00    +0.000 A 
ATOM     17  C   UNL     1      44.715   1.618   9.209  0.00  0.00    +0.000 A 
ATOM     18  C   UNL     1      44.389   2.820   9.832  0.00  0.00    +0.000 A 
ATOM     19  C   UNL     1      45.028   4.012   9.466  0.00  0.00    +0.000 A 
ATOM     20  C   UNL     1      45.970   3.987   8.426  0.00  0.00    +0.000 A 
BRANCH  15  22
ATOM     21  N   UNL     1      46.999   3.476   5.562  0.00  0.00    +0.000 N 
ATOM     22  C   UNL     1      47.313   2.805   6.711  0.00  0.00    +0.000 C 
ATOM     23  O   UNL     1      48.413   2.284   6.852  0.00  0.00    +0.000 OA
ATOM     24  H   UNL     1      47.743   3.562   4.877  0.00  0.00    +0.000 HD
ATOM     25  H   UNL     1      46.228   4.123   5.500  0.00  0.00    +0.000 HD
ENDBRANCH  15  22
ENDBRANCH  14  19
ENDBRANCH   1  14
TORSDOF 5
ENDMDL
MODEL 5
REMARK VINA RESULT:    -7.148      2.745      7.414
REMARK INTER + INTRA:          -9.904
REMARK INTER:                  -9.031
REMARK INTRA:                  -0.873
REMARK UNBOUND:                -0.666
REMARK  Name = 
REMARK  5 active torsions:
REMARK  status: ('A' for Active; 'I' for Inactive)
REMARK    1  A    between atoms: C_2  and  C_4
REMARK    2  A    between atoms: C_8  and  C_9
REMARK    3  A    between atoms: C_9  and  O_10
REMARK    4  A    between atoms: O_10  and  C_11
REMARK    5  A    between atoms: C_15  and  N_16
REMARK                            x       y       z     vdW  Elec       q    Type
REMARK                         _______ _______ _______ _____ _____    ______ ____
ROOT
ATOM      1  O   UNL     1      45.484   6.338  13.006  0.00  0.00    +0.000 OA
ENDROOT
BRANCH   1   2
ATOM      2  C   UNL     1      44.931   5.236  12.415  0.00  0.00    +0.000 A 
ATOM      3  C   UNL     1      43.917   4.601  13.123  0.00  0.00    +0.000 A 
ATOM      4  C   UNL     1      43.339   3.443  12.608  0.00  0.00    +0.000 A 
ATOM      5  C   UNL     1      43.749   2.939  11.366  0.00  0.00    +0.000 A 
ATOM      6  C   UNL     1      44.722   3.595  10.605  0.00  0.00    +0.000 A 
ATOM      7  C   UNL     1      45.312   4.737  11.172  0.00  0.00    +0.000 A 
BRANCH   6   8
ATOM      8  N   UNL     1      45.154   3.166   9.363  0.00  0.00    +0.000 N 
ATOM      9  C   UNL     1      45.038   1.779   8.922  0.00  0.00    +0.000 C 
ATOM     10  C   UNL     1      46.288   1.430   8.105  0.00  0.00    +0.000 C 
ATOM     11  C   UNL     1      46.551   2.439   6.983  0.00  0.00    +0.000 C 
ATOM     12  C   UNL     1      46.538   3.876   7.503  0.00  0.00    +0.000 C 
ATOM     13  C   UNL     1      45.255   4.151   8.279  0.00  0.00    +0.000 C 
ENDBRANCH   6   8
ENDBRANCH   1   2
BRANCH   1  14
ATOM     14  C   UNL     1      46.558   6.946  12.281  0.00  0.00    +0.000 C 
BRANCH  14  19
ATOM     15  C   UNL     1      44.703  10.181  11.497  0.00  0.00    +0.000 A 
ATOM     16  C   UNL     1      45.725  11.128  11.621  0.00  0.00    +0.000 A 
ATOM     17  C   UNL     1      47.020  10.719  11.937  0.00  0.00    +0.000 A 
ATOM     18  C   UNL     1      47.293   9.370  12.146  0.00  0.00    +0.000 A 
ATOM     19  C   UNL     1      46.273   8.412  12.065  0.00  0.00    +0.000 A 
ATOM     20  C   UNL     1      44.977   8.827  11.721  0.00  0.00    +0.000 A 
BRANCH  15  22
ATOM     21  N   UNL     1      42.788  10.094   9.991  0.00  0.00    +0.000 N 
ATOM     22  C   UNL     1      43.308  10.572  11.161  0.00  0.00    +0.000 C 
ATOM     23  O   UNL     1      42.630  11.258  11.916  0.00  0.00    +0.000 OA
ATOM     24  H   UNL     1      41.807  10.292   9.825  0.00  0.00    +0.000 HD
ATOM     25  H   UNL     1      43.207   9.335   9.476  0.00  0.00    +0.000 HD
ENDBRANCH  15  22
ENDBRANCH  14  19
ENDBRANCH   1  14
TORSDOF 5
ENDMDL
MODEL 6
REMARK VINA RESULT:    -6.994      2.333      7.146
REMARK INTER + INTRA:          -9.705
REMARK INTER:                  -8.729
REMARK INTRA:                  -0.975
REMARK UNBOUND:                -0.666
REMARK  Name = 
REMARK  5 active torsions:
REMARK  status: ('A' for Active; 'I' for Inactive)
REMARK    1  A    between atoms: C_2  and  C_4
REMARK    2  A    between atoms: C_8  and  C_9
REMARK    3  A    between atoms: C_9  and  O_10
REMARK    4  A    between atoms: O_10  and  C_11
REMARK    5  A    between atoms: C_15  and  N_16
REMARK                            x       y       z     vdW  Elec       q    Type
REMARK                         _______ _______ _______ _____ _____    ______ ____
ROOT
ATOM      1  O   UNL     1      44.497   5.928  10.404  0.00  0.00    +0.000 OA
ENDROOT
BRANCH   1   2
ATOM      2  C   UNL     1      44.621   4.633   9.984  0.00  0.00    +0.000 A 
ATOM      3  C   UNL     1      43.870   3.688  10.670  0.00  0.00    +0.000 A 
ATOM      4  C   UNL     1      43.981   2.340  10.332  0.00  0.00    +0.000 A 
ATOM      5  C   UNL     1      44.818   1.942   9.281  0.00  0.00    +0.000 A 
ATOM      6  C   UNL     1      45.537   2.881   8.534  0.00  0.00    +0.000 A 
ATOM      7  C   UNL     1      45.432   4.224   8.927  0.00  0.00    +0.000 A 
BRANCH   6   8
ATOM      8  N   UNL     1      46.360   2.557   7.470  0.00  0.00    +0.000 N 
ATOM      9  C   UNL     1      46.874   3.555   6.537  0.00  0.00    +0.000 C 
ATOM     10  C   UNL     1      46.887   2.936   5.133  0.00  0.00    +0.000 C 
ATOM     11  C   UNL     1      47.616   1.589   5.097  0.00  0.00    +0.000 C 
ATOM     12  C   UNL     1      47.104   0.642   6.182  0.00  0.00    +0.000 C 
ATOM     13  C   UNL     1      47.148   1.320   7.546  0.00  0.00    +0.000 C 
ENDBRANCH   6   8
ENDBRANCH   1   2
BRANCH   1  14
ATOM     14  C   UNL     1      44.534   6.117  11.823  0.00  0.00    +0.000 C 
BRANCH  14  19
ATOM     15  C   UNL     1      47.670   6.080  13.989  0.00  0.00    +0.000 A 
ATOM     16  C   UNL     1      48.587   6.741  13.166  0.00  0.00    +0.000 A 
ATOM     17  C   UNL     1      48.188   7.218  11.919  0.00  0.00    +0.000 A 
ATOM     18  C   UNL     1      46.879   7.023  11.484  0.00  0.00    +0.000 A 
ATOM     19  C   UNL     1      45.958   6.328  12.280  0.00  0.00    +0.000 A 
ATOM     20  C   UNL     1      46.359   5.872  13.545  0.00  0.00    +0.000 A 
BRANCH  15  22
ATOM     21  N   UNL     1      48.401   6.467  16.282  0.00  0.00    +0.000 N 
ATOM     22  C   UNL     1      48.052   5.554  15.326  0.00  0.00    +0.000 C 
ATOM     23  O   UNL     1      48.017   4.357  15.585  0.00  0.00    +0.000 OA
ATOM     24  H   UNL     1      48.566   6.098  17.212  0.00  0.00    +0.000 HD
ATOM     25  H   UNL     1      48.201   7.452  16.197  0.00  0.00    +0.000 HD
ENDBRANCH  15  22
ENDBRANCH  14  19
ENDBRANCH   1  14
TORSDOF 5
ENDMDL
MODEL 7
REMARK VINA RESULT:    -6.838      4.747      6.396
REMARK INTER + INTRA:          -9.503
REMARK INTER:                  -8.847
REMARK INTRA:                  -0.656
REMARK UNBOUND:                -0.666
REMARK  Name = 
REMARK  5 active torsions:
REMARK  status: ('A' for Active; 'I' for Inactive)
REMARK    1  A    between atoms: C_2  and  C_4
REMARK    2  A    between atoms: C_8  and  C_9
REMARK    3  A    between atoms: C_9  and  O_10
REMARK    4  A    between atoms: O_10  and  C_11
REMARK    5  A    between atoms: C_15  and  N_16
REMARK                            x       y       z     vdW  Elec       q    Type
REMARK                         _______ _______ _______ _____ _____    ______ ____
ROOT
ATOM      1  O   UNL     1      46.618   4.049  15.210  0.00  0.00    +0.000 OA
ENDROOT
BRANCH   1   2
ATOM      2  C   UNL     1      47.453   3.894  16.282  0.00  0.00    +0.000 A 
ATOM      3  C   UNL     1      48.348   2.834  16.217  0.00  0.00    +0.000 A 
ATOM      4  C   UNL     1      49.197   2.582  17.293  0.00  0.00    +0.000 A 
ATOM      5  C   UNL     1      49.176   3.415  18.420  0.00  0.00    +0.000 A 
ATOM      6  C   UNL     1      48.328   4.526  18.483  0.00  0.00    +0.000 A 
ATOM      7  C   UNL     1      47.459   4.726  17.399  0.00  0.00    +0.000 A 
BRANCH   6   8
ATOM      8  N   UNL     1      48.276   5.400  19.554  0.00  0.00    +0.000 N 
ATOM      9  C   UNL     1      48.535   4.982  20.928  0.00  0.00    +0.000 C 
ATOM     10  C   UNL     1      47.576   5.746  21.850  0.00  0.00    +0.000 C 
ATOM     11  C   UNL     1      47.627   7.260  21.619  0.00  0.00    +0.000 C 
ATOM     12  C   UNL     1      47.468   7.610  20.140  0.00  0.00    +0.000 C 
ATOM     13  C   UNL     1      48.472   6.832  19.297  0.00  0.00    +0.000 C 
ENDBRANCH   6   8
ENDBRANCH   1   2
BRANCH   1  14
ATOM     14  C   UNL     1      47.033   5.026  14.248  0.00  0.00    +0.000 C 
BRANCH  14  19
ATOM     15  C   UNL     1      44.497   4.077  11.566  0.00  0.00    +0.000 A 
ATOM     16  C   UNL     1      44.112   5.334  11.088  0.00  0.00    +0.000 A 
ATOM     17  C   UNL     1      44.686   6.489  11.617  0.00  0.00    +0.000 A 
ATOM     18  C   UNL     1      45.633   6.392  12.634  0.00  0.00    +0.000 A 
ATOM     19  C   UNL     1      46.001   5.143  13.152  0.00  0.00    +0.000 A 
ATOM     20  C   UNL     1      45.438   3.984  12.597  0.00  0.00    +0.000 A 
BRANCH  15  22
ATOM     21  N   UNL     1      44.545   2.233   9.972  0.00  0.00    +0.000 N 
ATOM     22  C   UNL     1      43.910   2.821  11.031  0.00  0.00    +0.000 C 
ATOM     23  O   UNL     1      42.923   2.301  11.538  0.00  0.00    +0.000 OA
ATOM     24  H   UNL     1      44.187   1.330   9.683  0.00  0.00    +0.000 HD
ATOM     25  H   UNL     1      45.483   2.478   9.693  0.00  0.00    +0.000 HD
ENDBRANCH  15  22
ENDBRANCH  14  19
ENDBRANCH   1  14
TORSDOF 5
ENDMDL
MODEL 8
REMARK VINA RESULT:    -6.755      4.217      7.971
REMARK INTER + INTRA:          -9.396
REMARK INTER:                  -8.438
REMARK INTRA:                  -0.958
REMARK UNBOUND:                -0.666
REMARK  Name = 
REMARK  5 active torsions:
REMARK  status: ('A' for Active; 'I' for Inactive)
REMARK    1  A    between atoms: C_2  and  C_4
REMARK    2  A    between atoms: C_8  and  C_9
REMARK    3  A    between atoms: C_9  and  O_10
REMARK    4  A    between atoms: O_10  and  C_11
REMARK    5  A    between atoms: C_15  and  N_16
REMARK                            x       y       z     vdW  Elec       q    Type
REMARK                         _______ _______ _______ _____ _____    ______ ____
ROOT
ATOM      1  O   UNL     1      49.130   6.637  14.802  0.00  0.00    +0.000 OA
ENDROOT
BRANCH   1   2
ATOM      2  C   UNL     1      47.998   6.855  14.067  0.00  0.00    +0.000 A 
ATOM      3  C   UNL     1      47.778   8.161  13.646  0.00  0.00    +0.000 A 
ATOM      4  C   UNL     1      46.621   8.470  12.935  0.00  0.00    +0.000 A 
ATOM      5  C   UNL     1      45.699   7.465  12.612  0.00  0.00    +0.000 A 
ATOM      6  C   UNL     1      45.928   6.132  12.969  0.00  0.00    +0.000 A 
ATOM      7  C   UNL     1      47.084   5.862  13.719  0.00  0.00    +0.000 A 
BRANCH   6   8
ATOM      8  N   UNL     1      45.073   5.089  12.659  0.00  0.00    +0.000 N 
ATOM      9  C   UNL     1      45.515   3.700  12.588  0.00  0.00    +0.000 C 
ATOM     10  C   UNL     1      44.770   3.019  11.433  0.00  0.00    +0.000 C 
ATOM     11  C   UNL     1      43.252   3.205  11.528  0.00  0.00    +0.000 C 
ATOM     12  C   UNL     1      42.876   4.674  11.722  0.00  0.00    +0.000 C 
ATOM     13  C   UNL     1      43.636   5.268  12.902  0.00  0.00    +0.000 C 
ENDBRANCH   6   8
ENDBRANCH   1   2
BRANCH   1  14
ATOM     14  C   UNL     1      49.068   7.074  16.164  0.00  0.00    +0.000 C 
BRANCH  14  19
ATOM     15  C   UNL     1      49.391   3.528  17.525  0.00  0.00    +0.000 A 
ATOM     16  C   UNL     1      48.749   3.644  18.763  0.00  0.00    +0.000 A 
ATOM     17  C   UNL     1      48.193   4.862  19.149  0.00  0.00    +0.000 A 
ATOM     18  C   UNL     1      48.290   5.970  18.311  0.00  0.00    +0.000 A 
ATOM     19  C   UNL     1      48.964   5.882  17.085  0.00  0.00    +0.000 A 
ATOM     20  C   UNL     1      49.499   4.646  16.690  0.00  0.00    +0.000 A 
BRANCH  15  22
ATOM     21  N   UNL     1      50.953   1.690  17.874  0.00  0.00    +0.000 N 
ATOM     22  C   UNL     1      49.998   2.249  17.072  0.00  0.00    +0.000 C 
ATOM     23  O   UNL     1      49.634   1.689  16.045  0.00  0.00    +0.000 OA
ATOM     24  H   UNL     1      51.287   0.772  17.598  0.00  0.00    +0.000 HD
ATOM     25  H   UNL     1      51.098   1.973  18.832  0.00  0.00    +0.000 HD
ENDBRANCH  15  22
ENDBRANCH  14  19
ENDBRANCH   1  14
TORSDOF 5
ENDMDL
MODEL 9
REMARK VINA RESULT:    -6.712      2.879      5.149
REMARK INTER + INTRA:          -9.340
REMARK INTER:                  -8.445
REMARK INTRA:                  -0.895
REMARK UNBOUND:                -0.666
REMARK  Name = 
REMARK  5 active torsions:
REMARK  status: ('A' for Active; 'I' for Inactive)
REMARK    1  A    between atoms: C_2  and  C_4
REMARK    2  A    between atoms: C_8  and  C_9
REMARK    3  A    between atoms: C_9  and  O_10
REMARK    4  A    between atoms: O_10  and  C_11
REMARK    5  A    between atoms: C_15  and  N_16
REMARK                            x       y       z     vdW  Elec       q    Type
REMARK                         _______ _______ _______ _____ _____    ______ ____
ROOT
ATOM      1  O   UNL     1      47.127   6.667  11.752  0.00  0.00    +0.000 OA
ENDROOT
BRANCH   1   2
ATOM      2  C   UNL     1      47.813   6.844  12.922  0.00  0.00    +0.000 A 
ATOM      3  C   UNL     1      48.651   7.950  12.983  0.00  0.00    +0.000 A 
ATOM      4  C   UNL     1      49.420   8.170  14.124  0.00  0.00    +0.000 A 
ATOM      5  C   UNL     1      49.323   7.302  15.220  0.00  0.00    +0.000 A 
ATOM      6  C   UNL     1      48.440   6.217  15.208  0.00  0.00    +0.000 A 
ATOM      7  C   UNL     1      47.710   6.003  14.028  0.00  0.00    +0.000 A 
BRANCH   6   8
ATOM      8  N   UNL     1      48.278   5.339  16.264  0.00  0.00    +0.000 N 
ATOM      9  C   UNL     1      48.617   5.688  17.641  0.00  0.00    +0.000 C 
ATOM     10  C   UNL     1      49.216   4.448  18.315  0.00  0.00    +0.000 C 
ATOM     11  C   UNL     1      48.321   3.214  18.168  0.00  0.00    +0.000 C 
ATOM     12  C   UNL     1      47.911   2.985  16.714  0.00  0.00    +0.000 C 
ATOM     13  C   UNL     1      47.301   4.252  16.126  0.00  0.00    +0.000 C 
ENDBRANCH   6   8
ENDBRANCH   1   2
BRANCH   1  14
ATOM     14  C   UNL     1      45.718   6.909  11.827  0.00  0.00    +0.000 C 
BRANCH  14  19
ATOM     15  C   UNL     1      44.303   3.648  10.449  0.00  0.00    +0.000 A 
ATOM     16  C   UNL     1      43.539   3.196  11.529  0.00  0.00    +0.000 A 
ATOM     17  C   UNL     1      43.462   3.954  12.697  0.00  0.00    +0.000 A 
ATOM     18  C   UNL     1      44.161   5.155  12.795  0.00  0.00    +0.000 A 
ATOM     19  C   UNL     1      44.963   5.604  11.736  0.00  0.00    +0.000 A 
ATOM     20  C   UNL     1      45.015   4.849  10.554  0.00  0.00    +0.000 A 
BRANCH  15  22
ATOM     21  N   UNL     1      44.358   3.573   8.013  0.00  0.00    +0.000 N 
ATOM     22  C   UNL     1      44.413   2.873   9.186  0.00  0.00    +0.000 C 
ATOM     23  O   UNL     1      44.588   1.660   9.185  0.00  0.00    +0.000 OA
ATOM     24  H   UNL     1      44.529   3.041   7.167  0.00  0.00    +0.000 HD
ATOM     25  H   UNL     1      44.471   4.575   7.968  0.00  0.00    +0.000 HD
ENDBRANCH  15  22
ENDBRANCH  14  19
ENDBRANCH   1  14
TORSDOF 5
ENDMDL
