MODEL 1
REMARK VINA RESULT:    -6.908      0.000      0.000
REMARK INTER + INTRA:         -11.283
REMARK INTER:                 -10.139
REMARK INTRA:                  -1.144
REMARK UNBOUND:                -1.144
REMARK  Name = 
REMARK  10 active torsions:
REMARK  status: ('A' for Active; 'I' for Inactive)
REMARK    1  A    between atoms: C_1  and  O_2
REMARK    2  A    between atoms: O_2  and  C_3
REMARK    3  A    between atoms: C_6  and  C_7
REMARK    4  A    between atoms: C_7  and  C_8
REMARK    5  A    between atoms: C_8  and  N_9
REMARK    6  A    between atoms: C_13  and  C_14
REMARK    7  A    between atoms: C_17  and  O_18
REMARK    8  A    between atoms: O_18  and  C_19
REMARK    9  A    between atoms: C_22  and  N_23
REMARK   10  A    between atoms: N_23  and  C_24
REMARK                            x       y       z     vdW  Elec       q    Type
REMARK                         _______ _______ _______ _____ _____    ______ ____
ROOT
ATOM      1  C   UNL     1      47.177   7.870  12.060  0.00  0.00    +0.000 C 
ENDROOT
BRANCH   1   5
ATOM      2  C   UNL     1      43.956   5.028  11.509  0.00  0.00    +0.000 A 
ATOM      3  C   UNL     1      44.095   5.728  12.716  0.00  0.00    +0.000 A 
ATOM      4  C   UNL     1      45.124   6.655  12.884  0.00  0.00    +0.000 A 
ATOM      5  C   UNL     1      46.032   6.905  11.854  0.00  0.00    +0.000 A 
ATOM      6  C   UNL     1      45.895   6.203  10.647  0.00  0.00    +0.000 A 
ATOM      7  C   UNL     1      44.882   5.249  10.462  0.00  0.00    +0.000 A 
BRANCH   2   9
ATOM      8  C   UNL     1      43.221   2.778  11.704  0.00  0.00    +0.000 C 
ATOM      9  O   UNL     1      42.955   4.114  11.278  0.00  0.00    +0.000 OA
ENDBRANCH   2   9
BRANCH   7  10
ATOM     10  N   UNL     1      44.710   4.608   9.213  0.00  0.00    +0.000 N 
ATOM     11  H   UNL     1      43.741   4.621   8.905  0.00  0.00    +0.000 HD
BRANCH  10  12
ATOM     12  C   UNL     1      45.581   3.647   8.598  0.00  0.00    +0.000 C 
ATOM     13  C   UNL     1      46.597   4.287   7.631  0.00  0.00    +0.000 C 
ATOM     14  N   UNL     1      46.248   3.285   6.605  0.00  0.00    +0.000 NA
ATOM     15  C   UNL     1      45.023   2.934   7.356  0.00  0.00    +0.000 C 
ATOM     16  H   UNL     1      46.921   2.522   6.541  0.00  0.00    +0.000 HD
ENDBRANCH  10  12
ENDBRANCH   7  10
ENDBRANCH   1   5
BRANCH   1  17
ATOM     17  C   UNL     1      48.422   7.157  12.594  0.00  0.00    +0.000 C 
BRANCH  17  18
ATOM     18  N   UNL     1      48.708   7.560  13.980  0.00  0.00    +0.000 N 
ATOM     19  C   UNL     1      48.451   6.523  14.899  0.00  0.00    +0.000 A 
ATOM     20  C   UNL     1      48.647   6.743  16.247  0.00  0.00    +0.000 A 
ATOM     21  C   UNL     1      48.350   5.718  17.147  0.00  0.00    +0.000 A 
ATOM     22  C   UNL     1      47.861   4.473  16.696  0.00  0.00    +0.000 A 
ATOM     23  C   UNL     1      47.718   4.315  15.318  0.00  0.00    +0.000 A 
ATOM     24  N   UNL     1      48.026   5.331  14.462  0.00  0.00    +0.000 NA
ATOM     25  H   UNL     1      48.159   8.371  14.255  0.00  0.00    +0.000 HD
BRANCH  22  26
ATOM     26  C   UNL     1      47.461   3.494  17.743  0.00  0.00    +0.000 C 
ATOM     27  N   UNL     1      48.120   3.533  18.950  0.00  0.00    +0.000 N 
ATOM     28  O   UNL     1      46.543   2.696  17.615  0.00  0.00    +0.000 OA
ATOM     29  H   UNL     1      48.882   4.152  19.183  0.00  0.00    +0.000 HD
ATOM     30  H   UNL     1      47.801   2.884  19.661  0.00  0.00    +0.000 HD
ENDBRANCH  22  26
BRANCH  23  31
ATOM     31  O   UNL     1      47.336   3.271  14.556  0.00  0.00    +0.000 OA
ATOM     32  C   UNL     1      46.678   3.395  13.318  0.00  0.00    +0.000 C 
ENDBRANCH  23  31
ENDBRANCH  17  18
ENDBRANCH   1  17
TORSDOF 8
ENDMDL
MODEL 2
REMARK VINA RESULT:    -6.775      1.326      1.595
REMARK INTER + INTRA:         -11.088
REMARK INTER:                 -10.092
REMARK INTRA:                  -0.996
REMARK UNBOUND:                -1.144
REMARK  Name = 
REMARK  10 active torsions:
REMARK  status: ('A' for Active; 'I' for Inactive)
REMARK    1  A    between atoms: C_1  and  O_2
REMARK    2  A    between atoms: O_2  and  C_3
REMARK    3  A    between atoms: C_6  and  C_7
REMARK    4  A    between atoms: C_7  and  C_8
REMARK    5  A    between atoms: C_8  and  N_9
REMARK    6  A    between atoms: C_13  and  C_14
REMARK    7  A    between atoms: C_17  and  O_18
REMARK    8  A    between atoms: O_18  and  C_19
REMARK    9  A    between atoms: C_22  and  N_23
REMARK   10  A    between atoms: N_23  and  C_24
REMARK                            x       y       z     vdW  Elec       q    Type
REMARK                         _______ _______ _______ _____ _____    ______ ____
ROOT
ATOM      1  C   UNL     1      47.605   6.993  11.959  0.00  0.00    +0.000 C 
ENDROOT
BRANCH   1   5
ATOM      2  C   UNL     1      44.123   4.451  11.537  0.00  0.00    +0.000 A 
ATOM      3  C   UNL     1      44.593   4.819  12.806  0.00  0.00    +0.000 A 
ATOM      4  C   UNL     1      45.704   5.651  12.939  0.00  0.00    +0.000 A 
ATOM      5  C   UNL     1      46.369   6.136  11.810  0.00  0.00    +0.000 A 
ATOM      6  C   UNL     1      45.901   5.766  10.540  0.00  0.00    +0.000 A 
ATOM      7  C   UNL     1      44.799   4.912  10.381  0.00  0.00    +0.000 A 
BRANCH   2   9
ATOM      8  C   UNL     1      43.168   2.288  11.753  0.00  0.00    +0.000 C 
ATOM      9  O   UNL     1      43.025   3.647  11.343  0.00  0.00    +0.000 OA
ENDBRANCH   2   9
BRANCH   7  10
ATOM     10  N   UNL     1      44.293   4.613   9.095  0.00  0.00    +0.000 N 
ATOM     11  H   UNL     1      43.389   5.049   8.927  0.00  0.00    +0.000 HD
BRANCH  10  12
ATOM     12  C   UNL     1      44.658   3.513   8.248  0.00  0.00    +0.000 C 
ATOM     13  C   UNL     1      45.381   2.384   9.007  0.00  0.00    +0.000 C 
ATOM     14  N   UNL     1      46.429   2.359   7.967  0.00  0.00    +0.000 NA
ATOM     15  C   UNL     1      45.974   3.675   7.470  0.00  0.00    +0.000 C 
ATOM     16  H   UNL     1      46.311   1.604   7.293  0.00  0.00    +0.000 HD
ENDBRANCH  10  12
ENDBRANCH   7  10
ENDBRANCH   1   5
BRANCH   1  17
ATOM     17  C   UNL     1      48.580   6.397  12.978  0.00  0.00    +0.000 C 
BRANCH  17  18
ATOM     18  N   UNL     1      48.841   7.344  14.075  0.00  0.00    +0.000 N 
ATOM     19  C   UNL     1      48.720   6.737  15.341  0.00  0.00    +0.000 A 
ATOM     20  C   UNL     1      48.912   7.492  16.479  0.00  0.00    +0.000 A 
ATOM     21  C   UNL     1      48.750   6.885  17.725  0.00  0.00    +0.000 A 
ATOM     22  C   UNL     1      48.400   5.522  17.831  0.00  0.00    +0.000 A 
ATOM     23  C   UNL     1      48.253   4.816  16.637  0.00  0.00    +0.000 A 
ATOM     24  N   UNL     1      48.428   5.434  15.433  0.00  0.00    +0.000 NA
ATOM     25  H   UNL     1      48.208   8.138  14.042  0.00  0.00    +0.000 HD
BRANCH  22  26
ATOM     26  C   UNL     1      48.133   5.004  19.201  0.00  0.00    +0.000 C 
ATOM     27  N   UNL     1      48.498   3.709  19.483  0.00  0.00    +0.000 N 
ATOM     28  O   UNL     1      47.662   5.680  20.104  0.00  0.00    +0.000 OA
ATOM     29  H   UNL     1      48.906   3.058  18.830  0.00  0.00    +0.000 HD
ATOM     30  H   UNL     1      48.344   3.392  20.435  0.00  0.00    +0.000 HD
ENDBRANCH  22  26
BRANCH  23  31
ATOM     31  O   UNL     1      47.980   3.523  16.370  0.00  0.00    +0.000 OA
ATOM     32  C   UNL     1      48.919   2.480  16.476  0.00  0.00    +0.000 C 
ENDBRANCH  23  31
ENDBRANCH  17  18
ENDBRANCH   1  17
TORSDOF 8
ENDMDL
MODEL 3
REMARK VINA RESULT:    -6.649      2.266      3.325
REMARK INTER + INTRA:         -10.902
REMARK INTER:                  -9.945
REMARK INTRA:                  -0.958
REMARK UNBOUND:                -1.144
REMARK  Name = 
REMARK  10 active torsions:
REMARK  status: ('A' for Active; 'I' for Inactive)
REMARK    1  A    between atoms: C_1  and  O_2
REMARK    2  A    between atoms: O_2  and  C_3
REMARK    3  A    between atoms: C_6  and  C_7
REMARK    4  A    between atoms: C_7  and  C_8
REMARK    5  A    between atoms: C_8  and  N_9
REMARK    6  A    between atoms: C_13  and  C_14
REMARK    7  A    between atoms: C_17  and  O_18
REMARK    8  A    between atoms: O_18  and  C_19
REMARK    9  A    between atoms: C_22  and  N_23
REMARK   10  A    between atoms: N_23  and  C_24
REMARK                            x       y       z     vdW  Elec       q    Type
REMARK                         _______ _______ _______ _____ _____    ______ ____
ROOT
ATOM      1  C   UNL     1      48.097   8.985  12.564  0.00  0.00    +0.000 C 
ENDROOT
BRANCH   1   5
ATOM      2  C   UNL     1      44.038   9.455  11.126  0.00  0.00    +0.000 A 
ATOM      3  C   UNL     1      44.868  10.571  11.308  0.00  0.00    +0.000 A 
ATOM      4  C   UNL     1      46.180  10.415  11.755  0.00  0.00    +0.000 A 
ATOM      5  C   UNL     1      46.693   9.145  12.027  0.00  0.00    +0.000 A 
ATOM      6  C   UNL     1      45.862   8.028  11.850  0.00  0.00    +0.000 A 
ATOM      7  C   UNL     1      44.532   8.161  11.423  0.00  0.00    +0.000 A 
BRANCH   2   9
ATOM      8  C   UNL     1      42.441  10.683   9.869  0.00  0.00    +0.000 C 
ATOM      9  O   UNL     1      42.743   9.544  10.675  0.00  0.00    +0.000 OA
ENDBRANCH   2   9
BRANCH   7  10
ATOM     10  N   UNL     1      43.733   7.021  11.173  0.00  0.00    +0.000 N 
ATOM     11  H   UNL     1      42.777   7.269  10.930  0.00  0.00    +0.000 HD
BRANCH  10  12
ATOM     12  C   UNL     1      43.971   5.676  11.611  0.00  0.00    +0.000 C 
ATOM     13  C   UNL     1      43.639   4.624  10.534  0.00  0.00    +0.000 C 
ATOM     14  N   UNL     1      42.867   3.853  11.528  0.00  0.00    +0.000 NA
ATOM     15  C   UNL     1      42.842   5.026  12.427  0.00  0.00    +0.000 C 
ATOM     16  H   UNL     1      43.380   3.058  11.907  0.00  0.00    +0.000 HD
ENDBRANCH  10  12
ENDBRANCH   7  10
ENDBRANCH   1   5
BRANCH   1  17
ATOM     17  C   UNL     1      48.286   7.627  13.245  0.00  0.00    +0.000 C 
BRANCH  17  18
ATOM     18  N   UNL     1      48.735   7.792  14.637  0.00  0.00    +0.000 N 
ATOM     19  C   UNL     1      48.505   6.637  15.410  0.00  0.00    +0.000 A 
ATOM     20  C   UNL     1      48.848   6.631  16.746  0.00  0.00    +0.000 A 
ATOM     21  C   UNL     1      48.578   5.493  17.506  0.00  0.00    +0.000 A 
ATOM     22  C   UNL     1      47.968   4.359  16.927  0.00  0.00    +0.000 A 
ATOM     23  C   UNL     1      47.678   4.427  15.565  0.00  0.00    +0.000 A 
ATOM     24  N   UNL     1      47.963   5.550  14.845  0.00  0.00    +0.000 NA
ATOM     25  H   UNL     1      48.268   8.575  15.089  0.00  0.00    +0.000 HD
BRANCH  22  26
ATOM     26  C   UNL     1      47.613   3.246  17.850  0.00  0.00    +0.000 C 
ATOM     27  N   UNL     1      48.378   3.077  18.980  0.00  0.00    +0.000 N 
ATOM     28  O   UNL     1      46.648   2.512  17.693  0.00  0.00    +0.000 OA
ATOM     29  H   UNL     1      49.188   3.624  19.229  0.00  0.00    +0.000 HD
ATOM     30  H   UNL     1      48.092   2.339  19.615  0.00  0.00    +0.000 HD
ENDBRANCH  22  26
BRANCH  23  31
ATOM     31  O   UNL     1      47.156   3.536  14.699  0.00  0.00    +0.000 OA
ATOM     32  C   UNL     1      46.627   3.874  13.440  0.00  0.00    +0.000 C 
ENDBRANCH  23  31
ENDBRANCH  17  18
ENDBRANCH   1  17
TORSDOF 8
ENDMDL
MODEL 4
REMARK VINA RESULT:    -6.269      2.473      7.507
REMARK INTER + INTRA:         -10.345
REMARK INTER:                  -8.947
REMARK INTRA:                  -1.398
REMARK UNBOUND:                -1.144
REMARK  Name = 
REMARK  10 active torsions:
REMARK  status: ('A' for Active; 'I' for Inactive)
REMARK    1  A    between atoms: C_1  and  O_2
REMARK    2  A    between atoms: O_2  and  C_3
REMARK    3  A    between atoms: C_6  and  C_7
REMARK    4  A    between atoms: C_7  and  C_8
REMARK    5  A    between atoms: C_8  and  N_9
REMARK    6  A    between atoms: C_13  and  C_14
REMARK    7  A    between atoms: C_17  and  O_18
REMARK    8  A    between atoms: O_18  and  C_19
REMARK    9  A    between atoms: C_22  and  N_23
REMARK   10  A    between atoms: N_23  and  C_24
REMARK                            x       y       z     vdW  Elec       q    Type
REMARK                         _______ _______ _______ _____ _____    ______ ____
ROOT
ATOM      1  C   UNL     1      49.347   7.853  15.933  0.00  0.00    +0.000 C 
ENDROOT
BRANCH   1   5
ATOM      2  C   UNL     1      48.840   5.112  19.248  0.00  0.00    +0.000 A 
ATOM      3  C   UNL     1      47.924   6.152  19.031  0.00  0.00    +0.000 A 
ATOM      4  C   UNL     1      48.081   7.022  17.952  0.00  0.00    +0.000 A 
ATOM      5  C   UNL     1      49.151   6.874  17.067  0.00  0.00    +0.000 A 
ATOM      6  C   UNL     1      50.069   5.836  17.286  0.00  0.00    +0.000 A 
ATOM      7  C   UNL     1      49.946   4.961  18.377  0.00  0.00    +0.000 A 
BRANCH   2   9
ATOM      8  C   UNL     1      48.630   4.780  21.590  0.00  0.00    +0.000 C 
ATOM      9  O   UNL     1      48.731   4.215  20.284  0.00  0.00    +0.000 OA
ENDBRANCH   2   9
BRANCH   7  10
ATOM     10  N   UNL     1      50.834   3.873  18.538  0.00  0.00    +0.000 N 
ATOM     11  H   UNL     1      51.397   3.959  19.381  0.00  0.00    +0.000 HD
BRANCH  10  12
ATOM     12  C   UNL     1      51.305   2.973  17.523  0.00  0.00    +0.000 C 
ATOM     13  C   UNL     1      50.257   1.916  17.124  0.00  0.00    +0.000 C 
ATOM     14  N   UNL     1      51.276   0.857  17.264  0.00  0.00    +0.000 NA
ATOM     15  C   UNL     1      52.145   1.785  18.018  0.00  0.00    +0.000 C 
ATOM     16  H   UNL     1      51.672   0.558  16.374  0.00  0.00    +0.000 HD
ENDBRANCH  10  12
ENDBRANCH   7  10
ENDBRANCH   1   5
BRANCH   1  17
ATOM     17  C   UNL     1      49.770   7.141  14.645  0.00  0.00    +0.000 C 
BRANCH  17  18
ATOM     18  N   UNL     1      48.971   7.604  13.499  0.00  0.00    +0.000 N 
ATOM     19  C   UNL     1      47.950   6.693  13.159  0.00  0.00    +0.000 A 
ATOM     20  C   UNL     1      47.122   6.966  12.091  0.00  0.00    +0.000 A 
ATOM     21  C   UNL     1      46.141   6.035  11.744  0.00  0.00    +0.000 A 
ATOM     22  C   UNL     1      45.988   4.835  12.471  0.00  0.00    +0.000 A 
ATOM     23  C   UNL     1      46.842   4.644  13.556  0.00  0.00    +0.000 A 
ATOM     24  N   UNL     1      47.784   5.576  13.878  0.00  0.00    +0.000 NA
ATOM     25  H   UNL     1      49.550   7.752  12.676  0.00  0.00    +0.000 HD
BRANCH  22  26
ATOM     26  C   UNL     1      44.996   3.857  11.945  0.00  0.00    +0.000 C 
ATOM     27  N   UNL     1      44.734   2.737  12.698  0.00  0.00    +0.000 N 
ATOM     28  O   UNL     1      44.359   4.021  10.915  0.00  0.00    +0.000 OA
ATOM     29  H   UNL     1      45.181   2.496  13.570  0.00  0.00    +0.000 HD
ATOM     30  H   UNL     1      44.024   2.107  12.340  0.00  0.00    +0.000 HD
ENDBRANCH  22  26
BRANCH  23  31
ATOM     31  O   UNL     1      46.940   3.663  14.477  0.00  0.00    +0.000 OA
ATOM     32  C   UNL     1      47.316   3.872  15.817  0.00  0.00    +0.000 C 
ENDBRANCH  23  31
ENDBRANCH  17  18
ENDBRANCH   1  17
TORSDOF 8
ENDMDL
MODEL 5
REMARK VINA RESULT:    -6.129      2.574      7.110
REMARK INTER + INTRA:         -10.140
REMARK INTER:                  -8.895
REMARK INTRA:                  -1.244
REMARK UNBOUND:                -1.144
REMARK  Name = 
REMARK  10 active torsions:
REMARK  status: ('A' for Active; 'I' for Inactive)
REMARK    1  A    between atoms: C_1  and  O_2
REMARK    2  A    between atoms: O_2  and  C_3
REMARK    3  A    between atoms: C_6  and  C_7
REMARK    4  A    between atoms: C_7  and  C_8
REMARK    5  A    between atoms: C_8  and  N_9
REMARK    6  A    between atoms: C_13  and  C_14
REMARK    7  A    between atoms: C_17  and  O_18
REMARK    8  A    between atoms: O_18  and  C_19
REMARK    9  A    between atoms: C_22  and  N_23
REMARK   10  A    between atoms: N_23  and  C_24
REMARK                            x       y       z     vdW  Elec       q    Type
REMARK                         _______ _______ _______ _____ _____    ______ ____
ROOT
ATOM      1  C   UNL     1      47.684   8.761  12.877  0.00  0.00    +0.000 C 
ENDROOT
BRANCH   1   5
ATOM      2  C   UNL     1      50.731   7.158  15.506  0.00  0.00    +0.000 A 
ATOM      3  C   UNL     1      51.038   8.172  14.587  0.00  0.00    +0.000 A 
ATOM      4  C   UNL     1      50.051   8.698  13.753  0.00  0.00    +0.000 A 
ATOM      5  C   UNL     1      48.738   8.227  13.820  0.00  0.00    +0.000 A 
ATOM      6  C   UNL     1      48.431   7.210  14.738  0.00  0.00    +0.000 A 
ATOM      7  C   UNL     1      49.411   6.650  15.571  0.00  0.00    +0.000 A 
BRANCH   2   9
ATOM      8  C   UNL     1      53.025   6.856  16.040  0.00  0.00    +0.000 C 
ATOM      9  O   UNL     1      51.656   6.612  16.363  0.00  0.00    +0.000 OA
ENDBRANCH   2   9
BRANCH   7  10
ATOM     10  N   UNL     1      49.069   5.683  16.544  0.00  0.00    +0.000 N 
ATOM     11  H   UNL     1      49.887   5.203  16.913  0.00  0.00    +0.000 HD
BRANCH  10  12
ATOM     12  C   UNL     1      47.795   5.048  16.734  0.00  0.00    +0.000 C 
ATOM     13  C   UNL     1      47.301   5.117  18.192  0.00  0.00    +0.000 C 
ATOM     14  N   UNL     1      47.002   3.671  18.156  0.00  0.00    +0.000 NA
ATOM     15  C   UNL     1      47.829   3.525  16.939  0.00  0.00    +0.000 C 
ATOM     16  H   UNL     1      46.015   3.468  18.006  0.00  0.00    +0.000 HD
ENDBRANCH  10  12
ENDBRANCH   7  10
ENDBRANCH   1   5
BRANCH   1  17
ATOM     17  C   UNL     1      46.282   8.645  13.480  0.00  0.00    +0.000 C 
BRANCH  17  18
ATOM     18  N   UNL     1      45.264   8.504  12.426  0.00  0.00    +0.000 N 
ATOM     19  C   UNL     1      44.864   7.165  12.249  0.00  0.00    +0.000 A 
ATOM     20  C   UNL     1      43.929   6.855  11.282  0.00  0.00    +0.000 A 
ATOM     21  C   UNL     1      43.573   5.519  11.094  0.00  0.00    +0.000 A 
ATOM     22  C   UNL     1      44.150   4.495  11.875  0.00  0.00    +0.000 A 
ATOM     23  C   UNL     1      45.063   4.888  12.852  0.00  0.00    +0.000 A 
ATOM     24  N   UNL     1      45.384   6.203  13.021  0.00  0.00    +0.000 NA
ATOM     25  H   UNL     1      45.600   8.856  11.533  0.00  0.00    +0.000 HD
BRANCH  22  26
ATOM     26  C   UNL     1      43.793   3.096  11.511  0.00  0.00    +0.000 C 
ATOM     27  N   UNL     1      43.628   2.187  12.530  0.00  0.00    +0.000 N 
ATOM     28  O   UNL     1      43.583   2.722  10.367  0.00  0.00    +0.000 OA
ATOM     29  H   UNL     1      43.758   2.376  13.513  0.00  0.00    +0.000 HD
ATOM     30  H   UNL     1      43.344   1.251  12.260  0.00  0.00    +0.000 HD
ENDBRANCH  22  26
BRANCH  23  31
ATOM     31  O   UNL     1      45.750   4.201  13.787  0.00  0.00    +0.000 OA
ATOM     32  C   UNL     1      46.976   3.552  13.549  0.00  0.00    +0.000 C 
ENDBRANCH  23  31
ENDBRANCH  17  18
ENDBRANCH   1  17
TORSDOF 8
ENDMDL
MODEL 6
REMARK VINA RESULT:    -6.076      2.317      3.325
REMARK INTER + INTRA:         -10.062
REMARK INTER:                  -8.974
REMARK INTRA:                  -1.089
REMARK UNBOUND:                -1.144
REMARK  Name = 
REMARK  10 active torsions:
REMARK  status: ('A' for Active; 'I' for Inactive)
REMARK    1  A    between atoms: C_1  and  O_2
REMARK    2  A    between atoms: O_2  and  C_3
REMARK    3  A    between atoms: C_6  and  C_7
REMARK    4  A    between atoms: C_7  and  C_8
REMARK    5  A    between atoms: C_8  and  N_9
REMARK    6  A    between atoms: C_13  and  C_14
REMARK    7  A    between atoms: C_17  and  O_18
REMARK    8  A    between atoms: O_18  and  C_19
REMARK    9  A    between atoms: C_22  and  N_23
REMARK   10  A    between atoms: N_23  and  C_24
REMARK                            x       y       z     vdW  Elec       q    Type
REMARK                         _______ _______ _______ _____ _____    ______ ____
ROOT
ATOM      1  C   UNL     1      48.369   6.939  12.280  0.00  0.00    +0.000 C 
ENDROOT
BRANCH   1   5
ATOM      2  C   UNL     1      44.294   8.060  11.332  0.00  0.00    +0.000 A 
ATOM      3  C   UNL     1      45.208   9.012  11.806  0.00  0.00    +0.000 A 
ATOM      4  C   UNL     1      46.524   8.652  12.095  0.00  0.00    +0.000 A 
ATOM      5  C   UNL     1      46.958   7.337  11.914  0.00  0.00    +0.000 A 
ATOM      6  C   UNL     1      46.043   6.383  11.443  0.00  0.00    +0.000 A 
ATOM      7  C   UNL     1      44.708   6.717  11.167  0.00  0.00    +0.000 A 
BRANCH   2   9
ATOM      8  C   UNL     1      42.733   9.712  10.644  0.00  0.00    +0.000 C 
ATOM      9  O   UNL     1      42.990   8.358  11.017  0.00  0.00    +0.000 OA
ENDBRANCH   2   9
BRANCH   7  10
ATOM     10  N   UNL     1      43.820   5.762  10.618  0.00  0.00    +0.000 N 
ATOM     11  H   UNL     1      43.471   6.043   9.705  0.00  0.00    +0.000 HD
BRANCH  10  12
ATOM     12  C   UNL     1      43.081   4.752  11.321  0.00  0.00    +0.000 C 
ATOM     13  C   UNL     1      43.225   4.858  12.852  0.00  0.00    +0.000 C 
ATOM     14  N   UNL     1      43.520   3.413  12.922  0.00  0.00    +0.000 NA
ATOM     15  C   UNL     1      43.778   3.390  11.466  0.00  0.00    +0.000 C 
ATOM     16  H   UNL     1      42.717   2.851  13.204  0.00  0.00    +0.000 HD
ENDBRANCH  10  12
ENDBRANCH   7  10
ENDBRANCH   1   5
BRANCH   1  17
ATOM     17  C   UNL     1      48.415   6.207  13.623  0.00  0.00    +0.000 C 
BRANCH  17  18
ATOM     18  N   UNL     1      48.867   7.104  14.699  0.00  0.00    +0.000 N 
ATOM     19  C   UNL     1      48.830   6.481  15.962  0.00  0.00    +0.000 A 
ATOM     20  C   UNL     1      49.202   7.193  17.084  0.00  0.00    +0.000 A 
ATOM     21  C   UNL     1      49.123   6.572  18.332  0.00  0.00    +0.000 A 
ATOM     22  C   UNL     1      48.674   5.240  18.455  0.00  0.00    +0.000 A 
ATOM     23  C   UNL     1      48.345   4.575  17.274  0.00  0.00    +0.000 A 
ATOM     24  N   UNL     1      48.443   5.204  16.067  0.00  0.00    +0.000 NA
ATOM     25  H   UNL     1      48.301   7.948  14.744  0.00  0.00    +0.000 HD
BRANCH  22  26
ATOM     26  C   UNL     1      48.511   4.714  19.838  0.00  0.00    +0.000 C 
ATOM     27  N   UNL     1      48.495   3.350  20.012  0.00  0.00    +0.000 N 
ATOM     28  O   UNL     1      48.449   5.423  20.832  0.00  0.00    +0.000 OA
ATOM     29  H   UNL     1      48.552   2.663  19.276  0.00  0.00    +0.000 HD
ATOM     30  H   UNL     1      48.424   3.017  20.968  0.00  0.00    +0.000 HD
ENDBRANCH  22  26
BRANCH  23  31
ATOM     31  O   UNL     1      47.941   3.314  17.020  0.00  0.00    +0.000 OA
ATOM     32  C   UNL     1      48.785   2.296  16.538  0.00  0.00    +0.000 C 
ENDBRANCH  23  31
ENDBRANCH  17  18
ENDBRANCH   1  17
TORSDOF 8
ENDMDL
MODEL 7
REMARK VINA RESULT:    -6.050      2.915      4.224
REMARK INTER + INTRA:         -10.023
REMARK INTER:                  -9.113
REMARK INTRA:                  -0.911
REMARK UNBOUND:                -1.144
REMARK  Name = 
REMARK  10 active torsions:
REMARK  status: ('A' for Active; 'I' for Inactive)
REMARK    1  A    between atoms: C_1  and  O_2
REMARK    2  A    between atoms: O_2  and  C_3
REMARK    3  A    between atoms: C_6  and  C_7
REMARK    4  A    between atoms: C_7  and  C_8
REMARK    5  A    between atoms: C_8  and  N_9
REMARK    6  A    between atoms: C_13  and  C_14
REMARK    7  A    between atoms: C_17  and  O_18
REMARK    8  A    between atoms: O_18  and  C_19
REMARK    9  A    between atoms: C_22  and  N_23
REMARK   10  A    between atoms: N_23  and  C_24
REMARK                            x       y       z     vdW  Elec       q    Type
REMARK                         _______ _______ _______ _____ _____    ______ ____
ROOT
ATOM      1  C   UNL     1      48.929   7.097  14.607  0.00  0.00    +0.000 C 
ENDROOT
BRANCH   1   5
ATOM      2  C   UNL     1      45.426   7.915  12.193  0.00  0.00    +0.000 A 
ATOM      3  C   UNL     1      46.109   8.954  12.842  0.00  0.00    +0.000 A 
ATOM      4  C   UNL     1      47.247   8.690  13.604  0.00  0.00    +0.000 A 
ATOM      5  C   UNL     1      47.729   7.386  13.735  0.00  0.00    +0.000 A 
ATOM      6  C   UNL     1      47.044   6.345  13.089  0.00  0.00    +0.000 A 
ATOM      7  C   UNL     1      45.885   6.583  12.335  0.00  0.00    +0.000 A 
BRANCH   2   9
ATOM      8  C   UNL     1      44.107   9.448  10.949  0.00  0.00    +0.000 C 
ATOM      9  O   UNL     1      44.310   8.115  11.417  0.00  0.00    +0.000 OA
ENDBRANCH   2   9
BRANCH   7  10
ATOM     10  N   UNL     1      45.253   5.535  11.626  0.00  0.00    +0.000 N 
ATOM     11  H   UNL     1      45.182   5.733  10.631  0.00  0.00    +0.000 HD
BRANCH  10  12
ATOM     12  C   UNL     1      44.387   4.521  12.158  0.00  0.00    +0.000 C 
ATOM     13  C   UNL     1      44.474   3.190  11.384  0.00  0.00    +0.000 C 
ATOM     14  N   UNL     1      43.000   3.138  11.312  0.00  0.00    +0.000 NA
ATOM     15  C   UNL     1      42.927   4.568  11.680  0.00  0.00    +0.000 C 
ATOM     16  H   UNL     1      42.585   2.516  12.004  0.00  0.00    +0.000 HD
ENDBRANCH  10  12
ENDBRANCH   7  10
ENDBRANCH   1   5
BRANCH   1  17
ATOM     17  C   UNL     1      48.530   6.935  16.075  0.00  0.00    +0.000 C 
BRANCH  17  18
ATOM     18  N   UNL     1      47.908   5.623  16.313  0.00  0.00    +0.000 N 
ATOM     19  C   UNL     1      48.839   4.667  16.767  0.00  0.00    +0.000 A 
ATOM     20  C   UNL     1      48.423   3.376  17.017  0.00  0.00    +0.000 A 
ATOM     21  C   UNL     1      49.366   2.433  17.429  0.00  0.00    +0.000 A 
ATOM     22  C   UNL     1      50.723   2.784  17.594  0.00  0.00    +0.000 A 
ATOM     23  C   UNL     1      51.061   4.115  17.352  0.00  0.00    +0.000 A 
ATOM     24  N   UNL     1      50.116   5.017  16.961  0.00  0.00    +0.000 NA
ATOM     25  H   UNL     1      47.467   5.260  15.471  0.00  0.00    +0.000 HD
BRANCH  22  26
ATOM     26  C   UNL     1      51.665   1.678  17.918  0.00  0.00    +0.000 C 
ATOM     27  N   UNL     1      52.837   1.998  18.562  0.00  0.00    +0.000 N 
ATOM     28  O   UNL     1      51.433   0.499  17.696  0.00  0.00    +0.000 OA
ATOM     29  H   UNL     1      53.136   2.928  18.812  0.00  0.00    +0.000 HD
ATOM     30  H   UNL     1      53.443   1.223  18.809  0.00  0.00    +0.000 HD
ENDBRANCH  22  26
BRANCH  23  31
ATOM     31  O   UNL     1      52.222   4.794  17.458  0.00  0.00    +0.000 OA
ATOM     32  C   UNL     1      52.486   6.014  16.808  0.00  0.00    +0.000 C 
ENDBRANCH  23  31
ENDBRANCH  17  18
ENDBRANCH   1  17
TORSDOF 8
ENDMDL
MODEL 8
REMARK VINA RESULT:    -5.976      2.654      7.763
REMARK INTER + INTRA:          -9.916
REMARK INTER:                  -8.776
REMARK INTRA:                  -1.140
REMARK UNBOUND:                -1.144
REMARK  Name = 
REMARK  10 active torsions:
REMARK  status: ('A' for Active; 'I' for Inactive)
REMARK    1  A    between atoms: C_1  and  O_2
REMARK    2  A    between atoms: O_2  and  C_3
REMARK    3  A    between atoms: C_6  and  C_7
REMARK    4  A    between atoms: C_7  and  C_8
REMARK    5  A    between atoms: C_8  and  N_9
REMARK    6  A    between atoms: C_13  and  C_14
REMARK    7  A    between atoms: C_17  and  O_18
REMARK    8  A    between atoms: O_18  and  C_19
REMARK    9  A    between atoms: C_22  and  N_23
REMARK   10  A    between atoms: N_23  and  C_24
REMARK                            x       y       z     vdW  Elec       q    Type
REMARK                         _______ _______ _______ _____ _____    ______ ____
ROOT
ATOM      1  C   UNL     1      49.914   8.619  14.785  0.00  0.00    +0.000 C 
ENDROOT
BRANCH   1   5
ATOM      2  C   UNL     1      47.710   8.857  18.506  0.00  0.00    +0.000 A 
ATOM      3  C   UNL     1      47.958  10.009  17.744  0.00  0.00    +0.000 A 
ATOM      4  C   UNL     1      48.653   9.926  16.538  0.00  0.00    +0.000 A 
ATOM      5  C   UNL     1      49.114   8.696  16.065  0.00  0.00    +0.000 A 
ATOM      6  C   UNL     1      48.869   7.544  16.828  0.00  0.00    +0.000 A 
ATOM      7  C   UNL     1      48.191   7.605  18.055  0.00  0.00    +0.000 A 
BRANCH   2   9
ATOM      8  C   UNL     1      46.982  10.126  20.377  0.00  0.00    +0.000 C 
ATOM      9  O   UNL     1      47.018   8.873  19.693  0.00  0.00    +0.000 OA
ENDBRANCH   2   9
BRANCH   7  10
ATOM     10  N   UNL     1      47.884   6.425  18.773  0.00  0.00    +0.000 N 
ATOM     11  H   UNL     1      46.882   6.299  18.892  0.00  0.00    +0.000 HD
BRANCH  10  12
ATOM     12  C   UNL     1      48.748   5.688  19.651  0.00  0.00    +0.000 C 
ATOM     13  C   UNL     1      48.735   4.172  19.373  0.00  0.00    +0.000 C 
ATOM     14  N   UNL     1      48.543   3.912  20.814  0.00  0.00    +0.000 NA
ATOM     15  C   UNL     1      48.158   5.325  21.022  0.00  0.00    +0.000 C 
ATOM     16  H   UNL     1      49.403   3.648  21.294  0.00  0.00    +0.000 HD
ENDBRANCH  10  12
ENDBRANCH   7  10
ENDBRANCH   1   5
BRANCH   1  17
ATOM     17  C   UNL     1      49.612   7.334  14.011  0.00  0.00    +0.000 C 
BRANCH  17  18
ATOM     18  N   UNL     1      48.666   7.588  12.913  0.00  0.00    +0.000 N 
ATOM     19  C   UNL     1      47.693   6.574  12.803  0.00  0.00    +0.000 A 
ATOM     20  C   UNL     1      46.741   6.648  11.808  0.00  0.00    +0.000 A 
ATOM     21  C   UNL     1      45.809   5.616  11.690  0.00  0.00    +0.000 A 
ATOM     22  C   UNL     1      45.829   4.513  12.570  0.00  0.00    +0.000 A 
ATOM     23  C   UNL     1      46.801   4.523  13.569  0.00  0.00    +0.000 A 
ATOM     24  N   UNL     1      47.693   5.551  13.667  0.00  0.00    +0.000 NA
ATOM     25  H   UNL     1      49.144   7.667  12.018  0.00  0.00    +0.000 HD
BRANCH  22  26
ATOM     26  C   UNL     1      44.871   3.411  12.282  0.00  0.00    +0.000 C 
ATOM     27  N   UNL     1      45.011   2.727  11.097  0.00  0.00    +0.000 N 
ATOM     28  O   UNL     1      44.005   3.040  13.062  0.00  0.00    +0.000 OA
ATOM     29  H   UNL     1      45.692   2.927  10.381  0.00  0.00    +0.000 HD
ATOM     30  H   UNL     1      44.373   1.954  10.943  0.00  0.00    +0.000 HD
ENDBRANCH  22  26
BRANCH  23  31
ATOM     31  O   UNL     1      47.072   3.680  14.586  0.00  0.00    +0.000 OA
ATOM     32  C   UNL     1      47.397   4.095  15.891  0.00  0.00    +0.000 C 
ENDBRANCH  23  31
ENDBRANCH  17  18
ENDBRANCH   1  17
TORSDOF 8
ENDMDL
MODEL 9
REMARK VINA RESULT:    -5.419      2.827      3.936
REMARK INTER + INTRA:          -9.098
REMARK INTER:                  -7.991
REMARK INTRA:                  -1.107
REMARK UNBOUND:                -1.144
REMARK  Name = 
REMARK  10 active torsions:
REMARK  status: ('A' for Active; 'I' for Inactive)
REMARK    1  A    between atoms: C_1  and  O_2
REMARK    2  A    between atoms: O_2  and  C_3
REMARK    3  A    between atoms: C_6  and  C_7
REMARK    4  A    between atoms: C_7  and  C_8
REMARK    5  A    between atoms: C_8  and  N_9
REMARK    6  A    between atoms: C_13  and  C_14
REMARK    7  A    between atoms: C_17  and  O_18
REMARK    8  A    between atoms: O_18  and  C_19
REMARK    9  A    between atoms: C_22  and  N_23
REMARK   10  A    between atoms: N_23  and  C_24
REMARK                            x       y       z     vdW  Elec       q    Type
REMARK                         _______ _______ _______ _____ _____    ______ ____
ROOT
ATOM      1  C   UNL     1      48.790   8.495  12.305  0.00  0.00    +0.000 C 
ENDROOT
BRANCH   1   5
ATOM      2  C   UNL     1      44.791   7.008  11.555  0.00  0.00    +0.000 A 
ATOM      3  C   UNL     1      45.882   6.129  11.626  0.00  0.00    +0.000 A 
ATOM      4  C   UNL     1      47.166   6.609  11.885  0.00  0.00    +0.000 A 
ATOM      5  C   UNL     1      47.389   7.974  12.080  0.00  0.00    +0.000 A 
ATOM      6  C   UNL     1      46.300   8.854  12.005  0.00  0.00    +0.000 A 
ATOM      7  C   UNL     1      45.003   8.398  11.724  0.00  0.00    +0.000 A 
BRANCH   2   9
ATOM      8  C   UNL     1      43.068   5.454  12.060  0.00  0.00    +0.000 C 
ATOM      9  O   UNL     1      43.502   6.594  11.318  0.00  0.00    +0.000 OA
ENDBRANCH   2   9
BRANCH   7  10
ATOM     10  N   UNL     1      43.904   9.288  11.730  0.00  0.00    +0.000 N 
ATOM     11  H   UNL     1      43.357   9.217  12.585  0.00  0.00    +0.000 HD
BRANCH  10  12
ATOM     12  C   UNL     1      43.273   9.904  10.597  0.00  0.00    +0.000 C 
ATOM     13  C   UNL     1      44.117  11.035   9.979  0.00  0.00    +0.000 C 
ATOM     14  N   UNL     1      42.933  11.916   9.978  0.00  0.00    +0.000 NA
ATOM     15  C   UNL     1      42.246  11.002  10.916  0.00  0.00    +0.000 C 
ATOM     16  H   UNL     1      42.481  11.982   9.067  0.00  0.00    +0.000 HD
ENDBRANCH  10  12
ENDBRANCH   7  10
ENDBRANCH   1   5
BRANCH   1  17
ATOM     17  C   UNL     1      49.610   7.541  13.178  0.00  0.00    +0.000 C 
BRANCH  17  18
ATOM     18  N   UNL     1      49.939   8.159  14.472  0.00  0.00    +0.000 N 
ATOM     19  C   UNL     1      49.501   7.380  15.561  0.00  0.00    +0.000 A 
ATOM     20  C   UNL     1      49.712   7.828  16.848  0.00  0.00    +0.000 A 
ATOM     21  C   UNL     1      49.238   7.062  17.914  0.00  0.00    +0.000 A 
ATOM     22  C   UNL     1      48.556   5.846  17.690  0.00  0.00    +0.000 A 
ATOM     23  C   UNL     1      48.409   5.443  16.364  0.00  0.00    +0.000 A 
ATOM     24  N   UNL     1      48.892   6.208  15.342  0.00  0.00    +0.000 NA
ATOM     25  H   UNL     1      49.527   9.085  14.559  0.00  0.00    +0.000 HD
BRANCH  22  26
ATOM     26  C   UNL     1      47.986   5.169  18.887  0.00  0.00    +0.000 C 
ATOM     27  N   UNL     1      48.038   3.796  18.938  0.00  0.00    +0.000 N 
ATOM     28  O   UNL     1      47.527   5.764  19.851  0.00  0.00    +0.000 OA
ATOM     29  H   UNL     1      48.404   3.195  18.215  0.00  0.00    +0.000 HD
ATOM     30  H   UNL     1      47.681   3.360  19.782  0.00  0.00    +0.000 HD
ENDBRANCH  22  26
BRANCH  23  31
ATOM     31  O   UNL     1      47.871   4.343  15.800  0.00  0.00    +0.000 OA
ATOM     32  C   UNL     1      46.936   4.370  14.749  0.00  0.00    +0.000 C 
ENDBRANCH  23  31
ENDBRANCH  17  18
ENDBRANCH   1  17
TORSDOF 8
ENDMDL
