MODEL 1
REMARK VINA RESULT:    -8.708      0.000      0.000
REMARK INTER + INTRA:         -12.446
REMARK INTER:                 -11.762
REMARK INTRA:                  -0.683
REMARK UNBOUND:                -0.683
REMARK  Name = 
REMARK  7 active torsions:
REMARK  status: ('A' for Active; 'I' for Inactive)
REMARK    1  A    between atoms: C_1  and  C_2
REMARK    2  A    between atoms: C_7  and  N_8
REMARK    3  A    between atoms: N_8  and  C_9
REMARK    4  A    between atoms: C_9  and  C_10
REMARK    5  A    between atoms: C_13  and  C_14
REMARK    6  A    between atoms: C_14  and  N_15
REMARK    7  A    between atoms: C_16  and  C_18
REMARK                            x       y       z     vdW  Elec       q    Type
REMARK                         _______ _______ _______ _____ _____    ______ ____
ROOT
ATOM      1  C   UNL     1      44.860   3.822  10.475  0.00  0.00    +0.000 A 
ATOM      2  C   UNL     1      45.057   3.683  11.855  0.00  0.00    +0.000 A 
ATOM      3  C   UNL     1      45.514   4.762  12.618  0.00  0.00    +0.000 A 
ATOM      4  C   UNL     1      45.796   6.004  12.023  0.00  0.00    +0.000 A 
ATOM      5  C   UNL     1      45.604   6.135  10.641  0.00  0.00    +0.000 A 
ATOM      6  C   UNL     1      45.139   5.062   9.881  0.00  0.00    +0.000 A 
ENDROOT
BRANCH   1   7
ATOM      7  C   UNL     1      44.420   2.669   9.603  0.00  0.00    +0.000 C 
BRANCH   7   8
ATOM      8  N   UNL     1      45.515   1.825   9.170  0.00  0.00    +0.000 N 
ATOM      9  H   UNL     1      46.147   1.533   9.908  0.00  0.00    +0.000 HD
BRANCH   8  16
ATOM     10  C   UNL     1      46.855  -0.571   7.696  0.00  0.00    +0.000 C 
ATOM     11  C   UNL     1      46.800   0.859   7.233  0.00  0.00    +0.000 A 
ATOM     12  C   UNL     1      47.465   1.138   6.017  0.00  0.00    +0.000 A 
ATOM     13  C   UNL     1      47.483   2.416   5.469  0.00  0.00    +0.000 A 
ATOM     14  C   UNL     1      46.828   3.445   6.124  0.00  0.00    +0.000 A 
ATOM     15  C   UNL     1      46.167   3.184   7.327  0.00  0.00    +0.000 A 
ATOM     16  C   UNL     1      46.122   1.896   7.912  0.00  0.00    +0.000 A 
ENDBRANCH   8  16
ENDBRANCH   7   8
ENDBRANCH   1   7
BRANCH   4  17
ATOM     17  C   UNL     1      46.315   7.176  12.823  0.00  0.00    +0.000 C 
BRANCH  17  18
ATOM     18  N   UNL     1      46.913   6.748  14.055  0.00  0.00    +0.000 N 
ATOM     19  C   UNL     1      48.263   6.471  14.161  0.00  0.00    +0.000 C 
ATOM     20  O   UNL     1      49.041   6.575  13.227  0.00  0.00    +0.000 OA
ATOM     21  H   UNL     1      46.305   6.281  14.712  0.00  0.00    +0.000 HD
BRANCH  19  22
ATOM     22  C   UNL     1      48.706   6.104  15.515  0.00  0.00    +0.000 A 
ATOM     23  C   UNL     1      49.654   6.881  16.164  0.00  0.00    +0.000 A 
ATOM     24  S   UNL     1      50.023   6.330  17.737  0.00  0.00    +0.000 S 
ATOM     25  C   UNL     1      48.950   5.017  17.593  0.00  0.00    +0.000 A 
ATOM     26  N   UNL     1      48.802   4.113  18.598  0.00  0.00    +0.000 NA
ATOM     27  C   UNL     1      47.971   3.158  18.342  0.00  0.00    +0.000 A 
ATOM     28  N   UNL     1      47.262   3.029  17.177  0.00  0.00    +0.000 N 
ATOM     29  C   UNL     1      47.341   3.943  16.158  0.00  0.00    +0.000 A 
ATOM     30  O   UNL     1      46.627   3.851  15.162  0.00  0.00    +0.000 OA
ATOM     31  C   UNL     1      48.293   5.017  16.374  0.00  0.00    +0.000 A 
ATOM     32  H   UNL     1      46.604   2.275  17.050  0.00  0.00    +0.000 HD
ENDBRANCH  19  22
ENDBRANCH  17  18
ENDBRANCH   4  17
TORSDOF 6
ENDMDL
MODEL 2
REMARK VINA RESULT:    -8.180      1.232      1.736
REMARK INTER + INTRA:         -11.733
REMARK INTER:                 -10.810
REMARK INTRA:                  -0.922
REMARK UNBOUND:                -0.683
REMARK  Name = 
REMARK  7 active torsions:
REMARK  status: ('A' for Active; 'I' for Inactive)
REMARK    1  A    between atoms: C_1  and  C_2
REMARK    2  A    between atoms: C_7  and  N_8
REMARK    3  A    between atoms: N_8  and  C_9
REMARK    4  A    between atoms: C_9  and  C_10
REMARK    5  A    between atoms: C_13  and  C_14
REMARK    6  A    between atoms: C_14  and  N_15
REMARK    7  A    between atoms: C_16  and  C_18
REMARK                            x       y       z     vdW  Elec       q    Type
REMARK                         _______ _______ _______ _____ _____    ______ ____
ROOT
ATOM      1  C   UNL     1      44.827   5.688  10.966  0.00  0.00    +0.000 A 
ATOM      2  C   UNL     1      44.214   6.471  11.953  0.00  0.00    +0.000 A 
ATOM      3  C   UNL     1      44.982   7.294  12.784  0.00  0.00    +0.000 A 
ATOM      4  C   UNL     1      46.380   7.350  12.658  0.00  0.00    +0.000 A 
ATOM      5  C   UNL     1      46.989   6.560  11.674  0.00  0.00    +0.000 A 
ATOM      6  C   UNL     1      46.224   5.747  10.838  0.00  0.00    +0.000 A 
ENDROOT
BRANCH   1   7
ATOM      7  C   UNL     1      44.044   4.745  10.084  0.00  0.00    +0.000 C 
BRANCH   7   8
ATOM      8  N   UNL     1      44.559   4.663   8.731  0.00  0.00    +0.000 N 
ATOM      9  H   UNL     1      43.962   5.074   8.022  0.00  0.00    +0.000 HD
BRANCH   8  16
ATOM     10  C   UNL     1      44.218   1.653   9.463  0.00  0.00    +0.000 C 
ATOM     11  C   UNL     1      45.294   2.259   8.603  0.00  0.00    +0.000 A 
ATOM     12  C   UNL     1      46.269   1.360   8.112  0.00  0.00    +0.000 A 
ATOM     13  C   UNL     1      47.312   1.785   7.297  0.00  0.00    +0.000 A 
ATOM     14  C   UNL     1      47.398   3.122   6.946  0.00  0.00    +0.000 A 
ATOM     15  C   UNL     1      46.441   4.021   7.423  0.00  0.00    +0.000 A 
ATOM     16  C   UNL     1      45.363   3.625   8.250  0.00  0.00    +0.000 A 
ENDBRANCH   8  16
ENDBRANCH   7   8
ENDBRANCH   1   7
BRANCH   4  17
ATOM     17  C   UNL     1      47.231   8.213  13.561  0.00  0.00    +0.000 C 
BRANCH  17  18
ATOM     18  N   UNL     1      47.646   7.497  14.733  0.00  0.00    +0.000 N 
ATOM     19  C   UNL     1      48.907   6.944  14.852  0.00  0.00    +0.000 C 
ATOM     20  O   UNL     1      49.756   7.029  13.980  0.00  0.00    +0.000 OA
ATOM     21  H   UNL     1      46.913   7.069  15.281  0.00  0.00    +0.000 HD
BRANCH  19  22
ATOM     22  C   UNL     1      49.172   6.300  16.147  0.00  0.00    +0.000 A 
ATOM     23  C   UNL     1      50.141   6.823  16.991  0.00  0.00    +0.000 A 
ATOM     24  S   UNL     1      50.289   5.973  18.464  0.00  0.00    +0.000 S 
ATOM     25  C   UNL     1      49.085   4.859  18.011  0.00  0.00    +0.000 A 
ATOM     26  N   UNL     1      48.734   3.829  18.827  0.00  0.00    +0.000 NA
ATOM     27  C   UNL     1      47.822   3.052  18.346  0.00  0.00    +0.000 A 
ATOM     28  N   UNL     1      47.217   3.216  17.128  0.00  0.00    +0.000 N 
ATOM     29  C   UNL     1      47.501   4.267  16.296  0.00  0.00    +0.000 A 
ATOM     30  O   UNL     1      46.879   4.439  15.250  0.00  0.00    +0.000 OA
ATOM     31  C   UNL     1      48.551   5.152  16.768  0.00  0.00    +0.000 A 
ATOM     32  H   UNL     1      46.487   2.589  16.822  0.00  0.00    +0.000 HD
ENDBRANCH  19  22
ENDBRANCH  17  18
ENDBRANCH   4  17
TORSDOF 6
ENDMDL
MODEL 3
REMARK VINA RESULT:    -8.043      1.805      2.310
REMARK INTER + INTRA:         -11.548
REMARK INTER:                 -10.650
REMARK INTRA:                  -0.898
REMARK UNBOUND:                -0.683
REMARK  Name = 
REMARK  7 active torsions:
REMARK  status: ('A' for Active; 'I' for Inactive)
REMARK    1  A    between atoms: C_1  and  C_2
REMARK    2  A    between atoms: C_7  and  N_8
REMARK    3  A    between atoms: N_8  and  C_9
REMARK    4  A    between atoms: C_9  and  C_10
REMARK    5  A    between atoms: C_13  and  C_14
REMARK    6  A    between atoms: C_14  and  N_15
REMARK    7  A    between atoms: C_16  and  C_18
REMARK                            x       y       z     vdW  Elec       q    Type
REMARK                         _______ _______ _______ _____ _____    ______ ____
ROOT
ATOM      1  C   UNL     1      44.942   5.130  11.338  0.00  0.00    +0.000 A 
ATOM      2  C   UNL     1      45.331   4.584  12.568  0.00  0.00    +0.000 A 
ATOM      3  C   UNL     1      46.422   5.113  13.265  0.00  0.00    +0.000 A 
ATOM      4  C   UNL     1      47.158   6.193  12.749  0.00  0.00    +0.000 A 
ATOM      5  C   UNL     1      46.769   6.731  11.515  0.00  0.00    +0.000 A 
ATOM      6  C   UNL     1      45.675   6.211  10.824  0.00  0.00    +0.000 A 
ENDROOT
BRANCH   1   7
ATOM      7  C   UNL     1      43.805   4.557  10.525  0.00  0.00    +0.000 C 
BRANCH   7   8
ATOM      8  N   UNL     1      44.079   4.515   9.102  0.00  0.00    +0.000 N 
ATOM      9  H   UNL     1      43.292   4.758   8.509  0.00  0.00    +0.000 HD
BRANCH   8  16
ATOM     10  C   UNL     1      44.156   1.430   9.529  0.00  0.00    +0.000 C 
ATOM     11  C   UNL     1      45.109   2.254   8.706  0.00  0.00    +0.000 A 
ATOM     12  C   UNL     1      46.170   1.543   8.099  0.00  0.00    +0.000 A 
ATOM     13  C   UNL     1      47.116   2.180   7.302  0.00  0.00    +0.000 A 
ATOM     14  C   UNL     1      47.016   3.544   7.089  0.00  0.00    +0.000 A 
ATOM     15  C   UNL     1      45.972   4.259   7.683  0.00  0.00    +0.000 A 
ATOM     16  C   UNL     1      44.989   3.645   8.494  0.00  0.00    +0.000 A 
ENDBRANCH   8  16
ENDBRANCH   7   8
ENDBRANCH   1   7
BRANCH   4  17
ATOM     17  C   UNL     1      48.356   6.764  13.472  0.00  0.00    +0.000 C 
BRANCH  17  18
ATOM     18  N   UNL     1      48.155   6.778  14.893  0.00  0.00    +0.000 N 
ATOM     19  C   UNL     1      49.209   6.738  15.786  0.00  0.00    +0.000 C 
ATOM     20  O   UNL     1      50.377   6.695  15.438  0.00  0.00    +0.000 OA
ATOM     21  H   UNL     1      47.269   6.426  15.225  0.00  0.00    +0.000 HD
BRANCH  19  22
ATOM     22  C   UNL     1      48.813   6.821  17.200  0.00  0.00    +0.000 A 
ATOM     23  C   UNL     1      48.313   8.012  17.707  0.00  0.00    +0.000 A 
ATOM     24  S   UNL     1      47.871   7.917  19.354  0.00  0.00    +0.000 S 
ATOM     25  C   UNL     1      48.361   6.291  19.453  0.00  0.00    +0.000 A 
ATOM     26  N   UNL     1      48.277   5.599  20.621  0.00  0.00    +0.000 NA
ATOM     27  C   UNL     1      48.703   4.382  20.554  0.00  0.00    +0.000 A 
ATOM     28  N   UNL     1      49.195   3.785  19.423  0.00  0.00    +0.000 N 
ATOM     29  C   UNL     1      49.252   4.427  18.213  0.00  0.00    +0.000 A 
ATOM     30  O   UNL     1      49.614   3.841  17.196  0.00  0.00    +0.000 OA
ATOM     31  C   UNL     1      48.823   5.814  18.238  0.00  0.00    +0.000 A 
ATOM     32  H   UNL     1      49.485   2.819  19.430  0.00  0.00    +0.000 HD
ENDBRANCH  19  22
ENDBRANCH  17  18
ENDBRANCH   4  17
TORSDOF 6
ENDMDL
MODEL 4
REMARK VINA RESULT:    -7.998      1.799      2.223
REMARK INTER + INTRA:         -11.486
REMARK INTER:                 -10.684
REMARK INTRA:                  -0.802
REMARK UNBOUND:                -0.683
REMARK  Name = 
REMARK  7 active torsions:
REMARK  status: ('A' for Active; 'I' for Inactive)
REMARK    1  A    between atoms: C_1  and  C_2
REMARK    2  A    between atoms: C_7  and  N_8
REMARK    3  A    between atoms: N_8  and  C_9
REMARK    4  A    between atoms: C_9  and  C_10
REMARK    5  A    between atoms: C_13  and  C_14
REMARK    6  A    between atoms: C_14  and  N_15
REMARK    7  A    between atoms: C_16  and  C_18
REMARK                            x       y       z     vdW  Elec       q    Type
REMARK                         _______ _______ _______ _____ _____    ______ ____
ROOT
ATOM      1  C   UNL     1      45.000   3.678  10.853  0.00  0.00    +0.000 A 
ATOM      2  C   UNL     1      45.450   3.202  12.091  0.00  0.00    +0.000 A 
ATOM      3  C   UNL     1      46.101   4.056  12.986  0.00  0.00    +0.000 A 
ATOM      4  C   UNL     1      46.327   5.406  12.667  0.00  0.00    +0.000 A 
ATOM      5  C   UNL     1      45.881   5.876  11.424  0.00  0.00    +0.000 A 
ATOM      6  C   UNL     1      45.223   5.027  10.535  0.00  0.00    +0.000 A 
ENDROOT
BRANCH   1   7
ATOM      7  C   UNL     1      44.341   2.779   9.834  0.00  0.00    +0.000 C 
BRANCH   7   8
ATOM      8  N   UNL     1      45.242   1.793   9.270  0.00  0.00    +0.000 N 
ATOM      9  H   UNL     1      45.723   1.216   9.952  0.00  0.00    +0.000 HD
BRANCH   8  16
ATOM     10  C   UNL     1      46.782  -0.472   7.785  0.00  0.00    +0.000 C 
ATOM     11  C   UNL     1      46.720   0.982   7.402  0.00  0.00    +0.000 A 
ATOM     12  C   UNL     1      47.478   1.352   6.267  0.00  0.00    +0.000 A 
ATOM     13  C   UNL     1      47.500   2.661   5.798  0.00  0.00    +0.000 A 
ATOM     14  C   UNL     1      46.757   3.630   6.451  0.00  0.00    +0.000 A 
ATOM     15  C   UNL     1      46.004   3.278   7.574  0.00  0.00    +0.000 A 
ATOM     16  C   UNL     1      45.952   1.956   8.077  0.00  0.00    +0.000 A 
ENDBRANCH   8  16
ENDBRANCH   7   8
ENDBRANCH   1   7
BRANCH   4  17
ATOM     17  C   UNL     1      47.051   6.342  13.607  0.00  0.00    +0.000 C 
BRANCH  17  18
ATOM     18  N   UNL     1      47.256   5.739  14.893  0.00  0.00    +0.000 N 
ATOM     19  C   UNL     1      48.440   5.883  15.593  0.00  0.00    +0.000 C 
ATOM     20  O   UNL     1      49.385   6.532  15.177  0.00  0.00    +0.000 OA
ATOM     21  H   UNL     1      46.711   4.914  15.095  0.00  0.00    +0.000 HD
BRANCH  19  22
ATOM     22  C   UNL     1      48.446   5.245  16.918  0.00  0.00    +0.000 A 
ATOM     23  C   UNL     1      48.585   3.869  17.020  0.00  0.00    +0.000 A 
ATOM     24  S   UNL     1      48.607   3.305  18.631  0.00  0.00    +0.000 S 
ATOM     25  C   UNL     1      48.401   4.878  19.247  0.00  0.00    +0.000 A 
ATOM     26  N   UNL     1      48.309   5.104  20.584  0.00  0.00    +0.000 NA
ATOM     27  C   UNL     1      48.133   6.342  20.907  0.00  0.00    +0.000 A 
ATOM     28  N   UNL     1      48.054   7.380  20.015  0.00  0.00    +0.000 N 
ATOM     29  C   UNL     1      48.193   7.205  18.663  0.00  0.00    +0.000 A 
ATOM     30  O   UNL     1      48.207   8.164  17.894  0.00  0.00    +0.000 OA
ATOM     31  C   UNL     1      48.351   5.826  18.239  0.00  0.00    +0.000 A 
ATOM     32  H   UNL     1      47.946   8.331  20.334  0.00  0.00    +0.000 HD
ENDBRANCH  19  22
ENDBRANCH  17  18
ENDBRANCH   4  17
TORSDOF 6
ENDMDL
MODEL 5
REMARK VINA RESULT:    -7.737      3.413      8.273
REMARK INTER + INTRA:         -11.134
REMARK INTER:                  -9.852
REMARK INTRA:                  -1.282
REMARK UNBOUND:                -0.683
REMARK  Name = 
REMARK  7 active torsions:
REMARK  status: ('A' for Active; 'I' for Inactive)
REMARK    1  A    between atoms: C_1  and  C_2
REMARK    2  A    between atoms: C_7  and  N_8
REMARK    3  A    between atoms: N_8  and  C_9
REMARK    4  A    between atoms: C_9  and  C_10
REMARK    5  A    between atoms: C_13  and  C_14
REMARK    6  A    between atoms: C_14  and  N_15
REMARK    7  A    between atoms: C_16  and  C_18
REMARK                            x       y       z     vdW  Elec       q    Type
REMARK                         _______ _______ _______ _____ _____    ______ ____
ROOT
ATOM      1  C   UNL     1      50.010   6.789  16.157  0.00  0.00    +0.000 A 
ATOM      2  C   UNL     1      48.738   6.365  15.752  0.00  0.00    +0.000 A 
ATOM      3  C   UNL     1      48.261   6.675  14.474  0.00  0.00    +0.000 A 
ATOM      4  C   UNL     1      49.035   7.422  13.571  0.00  0.00    +0.000 A 
ATOM      5  C   UNL     1      50.305   7.850  13.983  0.00  0.00    +0.000 A 
ATOM      6  C   UNL     1      50.786   7.533  15.254  0.00  0.00    +0.000 A 
ENDROOT
BRANCH   1   7
ATOM      7  C   UNL     1      50.544   6.525  17.545  0.00  0.00    +0.000 C 
BRANCH   7   8
ATOM      8  N   UNL     1      50.062   5.286  18.120  0.00  0.00    +0.000 N 
ATOM      9  H   UNL     1      49.718   5.363  19.072  0.00  0.00    +0.000 HD
BRANCH   8  16
ATOM     10  C   UNL     1      48.365   2.921  17.007  0.00  0.00    +0.000 C 
ATOM     11  C   UNL     1      49.826   2.896  17.368  0.00  0.00    +0.000 A 
ATOM     12  C   UNL     1      50.475   1.649  17.217  0.00  0.00    +0.000 A 
ATOM     13  C   UNL     1      51.827   1.488  17.504  0.00  0.00    +0.000 A 
ATOM     14  C   UNL     1      52.562   2.576  17.943  0.00  0.00    +0.000 A 
ATOM     15  C   UNL     1      51.932   3.815  18.097  0.00  0.00    +0.000 A 
ATOM     16  C   UNL     1      50.562   4.018  17.809  0.00  0.00    +0.000 A 
ENDBRANCH   8  16
ENDBRANCH   7   8
ENDBRANCH   1   7
BRANCH   4  17
ATOM     17  C   UNL     1      48.530   7.790  12.195  0.00  0.00    +0.000 C 
BRANCH  17  18
ATOM     18  N   UNL     1      47.719   6.747  11.637  0.00  0.00    +0.000 N 
ATOM     19  C   UNL     1      46.349   6.873  11.499  0.00  0.00    +0.000 C 
ATOM     20  O   UNL     1      45.735   7.873  11.833  0.00  0.00    +0.000 OA
ATOM     21  H   UNL     1      48.079   5.807  11.715  0.00  0.00    +0.000 HD
BRANCH  19  22
ATOM     22  C   UNL     1      45.693   5.727  10.853  0.00  0.00    +0.000 A 
ATOM     23  C   UNL     1      45.822   5.541   9.484  0.00  0.00    +0.000 A 
ATOM     24  S   UNL     1      45.027   4.144   8.910  0.00  0.00    +0.000 S 
ATOM     25  C   UNL     1      44.458   3.756  10.466  0.00  0.00    +0.000 A 
ATOM     26  N   UNL     1      43.671   2.667  10.678  0.00  0.00    +0.000 NA
ATOM     27  C   UNL     1      43.296   2.508  11.903  0.00  0.00    +0.000 A 
ATOM     28  N   UNL     1      43.646   3.330  12.942  0.00  0.00    +0.000 N 
ATOM     29  C   UNL     1      44.477   4.408  12.785  0.00  0.00    +0.000 A 
ATOM     30  O   UNL     1      44.846   5.076  13.748  0.00  0.00    +0.000 OA
ATOM     31  C   UNL     1      44.897   4.660  11.418  0.00  0.00    +0.000 A 
ATOM     32  H   UNL     1      43.343   3.133  13.885  0.00  0.00    +0.000 HD
ENDBRANCH  19  22
ENDBRANCH  17  18
ENDBRANCH   4  17
TORSDOF 6
ENDMDL
MODEL 6
REMARK VINA RESULT:    -7.648      2.739      4.136
REMARK INTER + INTRA:         -11.014
REMARK INTER:                  -9.855
REMARK INTRA:                  -1.159
REMARK UNBOUND:                -0.683
REMARK  Name = 
REMARK  7 active torsions:
REMARK  status: ('A' for Active; 'I' for Inactive)
REMARK    1  A    between atoms: C_1  and  C_2
REMARK    2  A    between atoms: C_7  and  N_8
REMARK    3  A    between atoms: N_8  and  C_9
REMARK    4  A    between atoms: C_9  and  C_10
REMARK    5  A    between atoms: C_13  and  C_14
REMARK    6  A    between atoms: C_14  and  N_15
REMARK    7  A    between atoms: C_16  and  C_18
REMARK                            x       y       z     vdW  Elec       q    Type
REMARK                         _______ _______ _______ _____ _____    ______ ____
ROOT
ATOM      1  C   UNL     1      46.146   5.768  11.940  0.00  0.00    +0.000 A 
ATOM      2  C   UNL     1      47.241   6.354  12.588  0.00  0.00    +0.000 A 
ATOM      3  C   UNL     1      47.668   5.877  13.831  0.00  0.00    +0.000 A 
ATOM      4  C   UNL     1      47.010   4.809  14.464  0.00  0.00    +0.000 A 
ATOM      5  C   UNL     1      45.911   4.230  13.815  0.00  0.00    +0.000 A 
ATOM      6  C   UNL     1      45.490   4.699  12.570  0.00  0.00    +0.000 A 
ENDROOT
BRANCH   1   7
ATOM      7  C   UNL     1      45.616   6.285  10.624  0.00  0.00    +0.000 C 
BRANCH   7   8
ATOM      8  N   UNL     1      44.758   5.340   9.937  0.00  0.00    +0.000 N 
ATOM      9  H   UNL     1      43.879   5.145  10.404  0.00  0.00    +0.000 HD
BRANCH   8  16
ATOM     10  C   UNL     1      44.059   2.338  10.393  0.00  0.00    +0.000 C 
ATOM     11  C   UNL     1      44.985   2.903   9.350  0.00  0.00    +0.000 A 
ATOM     12  C   UNL     1      45.628   1.956   8.520  0.00  0.00    +0.000 A 
ATOM     13  C   UNL     1      46.500   2.343   7.508  0.00  0.00    +0.000 A 
ATOM     14  C   UNL     1      46.743   3.690   7.299  0.00  0.00    +0.000 A 
ATOM     15  C   UNL     1      46.114   4.637   8.112  0.00  0.00    +0.000 A 
ATOM     16  C   UNL     1      45.216   4.282   9.146  0.00  0.00    +0.000 A 
ENDBRANCH   8  16
ENDBRANCH   7   8
ENDBRANCH   1   7
BRANCH   4  17
ATOM     17  C   UNL     1      47.439   4.293  15.818  0.00  0.00    +0.000 C 
BRANCH  17  18
ATOM     18  N   UNL     1      47.384   5.324  16.814  0.00  0.00    +0.000 N 
ATOM     19  C   UNL     1      48.525   5.906  17.336  0.00  0.00    +0.000 C 
ATOM     20  O   UNL     1      49.651   5.593  16.987  0.00  0.00    +0.000 OA
ATOM     21  H   UNL     1      46.562   5.340  17.401  0.00  0.00    +0.000 HD
BRANCH  19  22
ATOM     22  C   UNL     1      48.272   6.985  18.302  0.00  0.00    +0.000 A 
ATOM     23  C   UNL     1      48.177   6.692  19.654  0.00  0.00    +0.000 A 
ATOM     24  S   UNL     1      47.918   8.067  20.632  0.00  0.00    +0.000 S 
ATOM     25  C   UNL     1      47.895   9.098  19.278  0.00  0.00    +0.000 A 
ATOM     26  N   UNL     1      47.683  10.434  19.414  0.00  0.00    +0.000 NA
ATOM     27  C   UNL     1      47.671  11.090  18.302  0.00  0.00    +0.000 A 
ATOM     28  N   UNL     1      47.864  10.535  17.064  0.00  0.00    +0.000 N 
ATOM     29  C   UNL     1      48.132   9.203  16.883  0.00  0.00    +0.000 A 
ATOM     30  O   UNL     1      48.390   8.748  15.771  0.00  0.00    +0.000 OA
ATOM     31  C   UNL     1      48.117   8.408  18.099  0.00  0.00    +0.000 A 
ATOM     32  H   UNL     1      47.873  11.108  16.233  0.00  0.00    +0.000 HD
ENDBRANCH  19  22
ENDBRANCH  17  18
ENDBRANCH   4  17
TORSDOF 6
ENDMDL
MODEL 7
REMARK VINA RESULT:    -7.610      2.980      8.687
REMARK INTER + INTRA:         -10.962
REMARK INTER:                  -9.698
REMARK INTRA:                  -1.264
REMARK UNBOUND:                -0.683
REMARK  Name = 
REMARK  7 active torsions:
REMARK  status: ('A' for Active; 'I' for Inactive)
REMARK    1  A    between atoms: C_1  and  C_2
REMARK    2  A    between atoms: C_7  and  N_8
REMARK    3  A    between atoms: N_8  and  C_9
REMARK    4  A    between atoms: C_9  and  C_10
REMARK    5  A    between atoms: C_13  and  C_14
REMARK    6  A    between atoms: C_14  and  N_15
REMARK    7  A    between atoms: C_16  and  C_18
REMARK                            x       y       z     vdW  Elec       q    Type
REMARK                         _______ _______ _______ _____ _____    ______ ____
ROOT
ATOM      1  C   UNL     1      50.158   6.636  16.177  0.00  0.00    +0.000 A 
ATOM      2  C   UNL     1      50.679   7.429  15.147  0.00  0.00    +0.000 A 
ATOM      3  C   UNL     1      49.921   7.693  14.002  0.00  0.00    +0.000 A 
ATOM      4  C   UNL     1      48.628   7.165  13.850  0.00  0.00    +0.000 A 
ATOM      5  C   UNL     1      48.114   6.365  14.880  0.00  0.00    +0.000 A 
ATOM      6  C   UNL     1      48.865   6.110  16.028  0.00  0.00    +0.000 A 
ENDROOT
BRANCH   1   7
ATOM      7  C   UNL     1      50.961   6.280  17.407  0.00  0.00    +0.000 C 
BRANCH   7   8
ATOM      8  N   UNL     1      50.523   5.055  18.045  0.00  0.00    +0.000 N 
ATOM      9  H   UNL     1      50.158   5.171  18.985  0.00  0.00    +0.000 HD
BRANCH   8  16
ATOM     10  C   UNL     1      48.975   2.580  16.955  0.00  0.00    +0.000 C 
ATOM     11  C   UNL     1      50.415   2.628  17.390  0.00  0.00    +0.000 A 
ATOM     12  C   UNL     1      51.118   1.402  17.327  0.00  0.00    +0.000 A 
ATOM     13  C   UNL     1      52.457   1.308  17.688  0.00  0.00    +0.000 A 
ATOM     14  C   UNL     1      53.128   2.441  18.114  0.00  0.00    +0.000 A 
ATOM     15  C   UNL     1      52.446   3.660  18.180  0.00  0.00    +0.000 A 
ATOM     16  C   UNL     1      51.085   3.796  17.816  0.00  0.00    +0.000 A 
ENDBRANCH   8  16
ENDBRANCH   7   8
ENDBRANCH   1   7
BRANCH   4  17
ATOM     17  C   UNL     1      47.801   7.415  12.611  0.00  0.00    +0.000 C 
BRANCH  17  18
ATOM     18  N   UNL     1      47.014   6.266  12.263  0.00  0.00    +0.000 N 
ATOM     19  C   UNL     1      45.633   6.283  12.294  0.00  0.00    +0.000 C 
ATOM     20  O   UNL     1      44.985   7.268  12.609  0.00  0.00    +0.000 OA
ATOM     21  H   UNL     1      47.457   5.366  12.381  0.00  0.00    +0.000 HD
BRANCH  19  22
ATOM     22  C   UNL     1      44.997   5.034  11.848  0.00  0.00    +0.000 A 
ATOM     23  C   UNL     1      44.245   4.286  12.742  0.00  0.00    +0.000 A 
ATOM     24  S   UNL     1      43.553   2.889  12.047  0.00  0.00    +0.000 S 
ATOM     25  C   UNL     1      44.260   3.220  10.535  0.00  0.00    +0.000 A 
ATOM     26  N   UNL     1      44.087   2.382   9.478  0.00  0.00    +0.000 NA
ATOM     27  C   UNL     1      44.698   2.747   8.400  0.00  0.00    +0.000 A 
ATOM     28  N   UNL     1      45.458   3.880   8.276  0.00  0.00    +0.000 N 
ATOM     29  C   UNL     1      45.618   4.779   9.299  0.00  0.00    +0.000 A 
ATOM     30  O   UNL     1      46.231   5.831   9.134  0.00  0.00    +0.000 OA
ATOM     31  C   UNL     1      44.986   4.399  10.550  0.00  0.00    +0.000 A 
ATOM     32  H   UNL     1      45.886   4.125   7.396  0.00  0.00    +0.000 HD
ENDBRANCH  19  22
ENDBRANCH  17  18
ENDBRANCH   4  17
TORSDOF 6
ENDMDL
MODEL 8
REMARK VINA RESULT:    -7.385      4.156      9.881
REMARK INTER + INTRA:         -10.659
REMARK INTER:                  -9.164
REMARK INTRA:                  -1.495
REMARK UNBOUND:                -0.683
REMARK  Name = 
REMARK  7 active torsions:
REMARK  status: ('A' for Active; 'I' for Inactive)
REMARK    1  A    between atoms: C_1  and  C_2
REMARK    2  A    between atoms: C_7  and  N_8
REMARK    3  A    between atoms: N_8  and  C_9
REMARK    4  A    between atoms: C_9  and  C_10
REMARK    5  A    between atoms: C_13  and  C_14
REMARK    6  A    between atoms: C_14  and  N_15
REMARK    7  A    between atoms: C_16  and  C_18
REMARK                            x       y       z     vdW  Elec       q    Type
REMARK                         _______ _______ _______ _____ _____    ______ ____
ROOT
ATOM      1  C   UNL     1      50.256   5.693  19.112  0.00  0.00    +0.000 A 
ATOM      2  C   UNL     1      49.463   4.656  19.620  0.00  0.00    +0.000 A 
ATOM      3  C   UNL     1      48.596   3.950  18.780  0.00  0.00    +0.000 A 
ATOM      4  C   UNL     1      48.490   4.266  17.416  0.00  0.00    +0.000 A 
ATOM      5  C   UNL     1      49.280   5.309  16.913  0.00  0.00    +0.000 A 
ATOM      6  C   UNL     1      50.154   6.007  17.748  0.00  0.00    +0.000 A 
ENDROOT
BRANCH   1   7
ATOM      7  C   UNL     1      51.166   6.517  19.992  0.00  0.00    +0.000 C 
BRANCH   7   8
ATOM      8  N   UNL     1      50.462   7.511  20.777  0.00  0.00    +0.000 N 
ATOM      9  H   UNL     1      50.341   7.274  21.756  0.00  0.00    +0.000 HD
BRANCH   8  16
ATOM     10  C   UNL     1      47.416   7.208  21.362  0.00  0.00    +0.000 C 
ATOM     11  C   UNL     1      48.068   8.219  20.458  0.00  0.00    +0.000 A 
ATOM     12  C   UNL     1      47.189   9.094  19.779  0.00  0.00    +0.000 A 
ATOM     13  C   UNL     1      47.659  10.084  18.922  0.00  0.00    +0.000 A 
ATOM     14  C   UNL     1      49.023  10.225  18.731  0.00  0.00    +0.000 A 
ATOM     15  C   UNL     1      49.903   9.367  19.396  0.00  0.00    +0.000 A 
ATOM     16  C   UNL     1      49.463   8.353  20.280  0.00  0.00    +0.000 A 
ENDBRANCH   8  16
ENDBRANCH   7   8
ENDBRANCH   1   7
BRANCH   4  17
ATOM     17  C   UNL     1      47.541   3.534  16.495  0.00  0.00    +0.000 C 
BRANCH  17  18
ATOM     18  N   UNL     1      46.882   4.436  15.595  0.00  0.00    +0.000 N 
ATOM     19  C   UNL     1      46.832   4.211  14.232  0.00  0.00    +0.000 C 
ATOM     20  O   UNL     1      47.333   3.235  13.699  0.00  0.00    +0.000 OA
ATOM     21  H   UNL     1      46.808   5.398  15.895  0.00  0.00    +0.000 HD
BRANCH  19  22
ATOM     22  C   UNL     1      46.063   5.212  13.476  0.00  0.00    +0.000 A 
ATOM     23  C   UNL     1      46.546   6.507  13.359  0.00  0.00    +0.000 A 
ATOM     24  S   UNL     1      45.546   7.523  12.419  0.00  0.00    +0.000 S 
ATOM     25  C   UNL     1      44.419   6.274  12.162  0.00  0.00    +0.000 A 
ATOM     26  N   UNL     1      43.283   6.486  11.444  0.00  0.00    +0.000 NA
ATOM     27  C   UNL     1      42.511   5.456  11.347  0.00  0.00    +0.000 A 
ATOM     28  N   UNL     1      42.773   4.227  11.892  0.00  0.00    +0.000 N 
ATOM     29  C   UNL     1      43.927   3.953  12.580  0.00  0.00    +0.000 A 
ATOM     30  O   UNL     1      44.178   2.819  12.980  0.00  0.00    +0.000 OA
ATOM     31  C   UNL     1      44.816   5.088  12.755  0.00  0.00    +0.000 A 
ATOM     32  H   UNL     1      42.141   3.452  11.755  0.00  0.00    +0.000 HD
ENDBRANCH  19  22
ENDBRANCH  17  18
ENDBRANCH   4  17
TORSDOF 6
ENDMDL
MODEL 9
REMARK VINA RESULT:    -7.283      4.110      8.460
REMARK INTER + INTRA:         -10.521
REMARK INTER:                  -8.934
REMARK INTRA:                  -1.587
REMARK UNBOUND:                -0.683
REMARK  Name = 
REMARK  7 active torsions:
REMARK  status: ('A' for Active; 'I' for Inactive)
REMARK    1  A    between atoms: C_1  and  C_2
REMARK    2  A    between atoms: C_7  and  N_8
REMARK    3  A    between atoms: N_8  and  C_9
REMARK    4  A    between atoms: C_9  and  C_10
REMARK    5  A    between atoms: C_13  and  C_14
REMARK    6  A    between atoms: C_14  and  N_15
REMARK    7  A    between atoms: C_16  and  C_18
REMARK                            x       y       z     vdW  Elec       q    Type
REMARK                         _______ _______ _______ _____ _____    ______ ____
ROOT
ATOM      1  C   UNL     1      50.361   6.592  18.162  0.00  0.00    +0.000 A 
ATOM      2  C   UNL     1      50.964   6.465  16.904  0.00  0.00    +0.000 A 
ATOM      3  C   UNL     1      50.368   7.029  15.772  0.00  0.00    +0.000 A 
ATOM      4  C   UNL     1      49.153   7.728  15.863  0.00  0.00    +0.000 A 
ATOM      5  C   UNL     1      48.550   7.847  17.123  0.00  0.00    +0.000 A 
ATOM      6  C   UNL     1      49.148   7.293  18.254  0.00  0.00    +0.000 A 
ENDROOT
BRANCH   1   7
ATOM      7  C   UNL     1      50.939   5.952  19.402  0.00  0.00    +0.000 C 
BRANCH   7   8
ATOM      8  N   UNL     1      50.397   4.637  19.677  0.00  0.00    +0.000 N 
ATOM      9  H   UNL     1      50.823   4.155  20.461  0.00  0.00    +0.000 HD
BRANCH   8  16
ATOM     10  C   UNL     1      52.101   2.758  17.867  0.00  0.00    +0.000 C 
ATOM     11  C   UNL     1      50.610   2.955  17.817  0.00  0.00    +0.000 A 
ATOM     12  C   UNL     1      49.927   2.233  16.810  0.00  0.00    +0.000 A 
ATOM     13  C   UNL     1      48.547   2.314  16.660  0.00  0.00    +0.000 A 
ATOM     14  C   UNL     1      47.816   3.116  17.520  0.00  0.00    +0.000 A 
ATOM     15  C   UNL     1      48.478   3.836  18.519  0.00  0.00    +0.000 A 
ATOM     16  C   UNL     1      49.879   3.774  18.707  0.00  0.00    +0.000 A 
ENDBRANCH   8  16
ENDBRANCH   7   8
ENDBRANCH   1   7
BRANCH   4  17
ATOM     17  C   UNL     1      48.479   8.325  14.649  0.00  0.00    +0.000 C 
BRANCH  17  18
ATOM     18  N   UNL     1      47.445   7.466  14.147  0.00  0.00    +0.000 N 
ATOM     19  C   UNL     1      47.707   6.443  13.255  0.00  0.00    +0.000 C 
ATOM     20  O   UNL     1      48.826   6.193  12.837  0.00  0.00    +0.000 OA
ATOM     21  H   UNL     1      46.510   7.848  14.133  0.00  0.00    +0.000 HD
BRANCH  19  22
ATOM     22  C   UNL     1      46.534   5.631  12.897  0.00  0.00    +0.000 A 
ATOM     23  C   UNL     1      46.540   4.266  13.144  0.00  0.00    +0.000 A 
ATOM     24  S   UNL     1      45.087   3.488  12.700  0.00  0.00    +0.000 S 
ATOM     25  C   UNL     1      44.411   4.944  12.135  0.00  0.00    +0.000 A 
ATOM     26  N   UNL     1      43.167   4.978  11.587  0.00  0.00    +0.000 NA
ATOM     27  C   UNL     1      42.792   6.145  11.182  0.00  0.00    +0.000 A 
ATOM     28  N   UNL     1      43.541   7.288  11.286  0.00  0.00    +0.000 N 
ATOM     29  C   UNL     1      44.778   7.311  11.876  0.00  0.00    +0.000 A 
ATOM     30  O   UNL     1      45.389   8.365  12.037  0.00  0.00    +0.000 OA
ATOM     31  C   UNL     1      45.269   6.016  12.314  0.00  0.00    +0.000 A 
ATOM     32  H   UNL     1      43.178   8.177  10.977  0.00  0.00    +0.000 HD
ENDBRANCH  19  22
ENDBRANCH  17  18
ENDBRANCH   4  17
TORSDOF 6
ENDMDL
