MODEL 1
REMARK VINA RESULT:    -8.075      0.000      0.000
REMARK INTER + INTRA:         -13.340
REMARK INTER:                 -12.324
REMARK INTRA:                  -1.016
REMARK UNBOUND:                -1.016
REMARK  Name = 
REMARK  9 active torsions:
REMARK  status: ('A' for Active; 'I' for Inactive)
REMARK    1  A    between atoms: C_2  and  C_3
REMARK    2  A    between atoms: C_3  and  C_4
REMARK    3  A    between atoms: C_3  and  N_11
REMARK    4  A    between atoms: C_4  and  C_5
REMARK    5  A    between atoms: N_11  and  C_12
REMARK    6  A    between atoms: C_12  and  C_13
REMARK    7  A    between atoms: C_16  and  C_17
REMARK    8  A    between atoms: C_17  and  N_18
REMARK    9  A    between atoms: C_19  and  C_21
REMARK                            x       y       z     vdW  Elec       q    Type
REMARK                         _______ _______ _______ _____ _____    ______ ____
ROOT
ATOM      1  C   UNL     1      44.660   6.115  11.159  0.00  0.00    +0.000 A 
ATOM      2  C   UNL     1      45.910   5.570  11.486  0.00  0.00    +0.000 A 
ATOM      3  C   UNL     1      46.819   6.288  12.268  0.00  0.00    +0.000 A 
ATOM      4  C   UNL     1      46.499   7.568  12.736  0.00  0.00    +0.000 A 
ATOM      5  C   UNL     1      45.279   8.140  12.358  0.00  0.00    +0.000 A 
ATOM      6  C   UNL     1      44.365   7.418  11.586  0.00  0.00    +0.000 A 
ENDROOT
BRANCH   1   7
ATOM      7  C   UNL     1      43.654   5.336  10.339  0.00  0.00    +0.000 C 
BRANCH   7   8
ATOM      8  N   UNL     1      44.295   4.630   9.223  0.00  0.00    +0.000 NA
ATOM      9  H   UNL     1      43.812   4.866   8.358  0.00  0.00    +0.000 HD
BRANCH   8  10
ATOM     10  C   UNL     1      44.300   3.154   9.399  0.00  0.00    +0.000 C 
BRANCH  10  12
ATOM     11  N   UNL     1      43.134   2.385  11.650  0.00  0.00    +0.000 NA
ATOM     12  C   UNL     1      43.669   2.738  10.680  0.00  0.00    +0.000 C 
ENDBRANCH  10  12
BRANCH  10  13
ATOM     13  C   UNL     1      45.768   2.662   9.324  0.00  0.00    +0.000 C 
BRANCH  13  14
ATOM     14  C   UNL     1      46.288   2.380   7.930  0.00  0.00    +0.000 A 
ATOM     15  C   UNL     1      46.290   3.368   6.937  0.00  0.00    +0.000 A 
ATOM     16  C   UNL     1      46.771   3.083   5.655  0.00  0.00    +0.000 A 
ATOM     17  C   UNL     1      47.256   1.810   5.355  0.00  0.00    +0.000 A 
ATOM     18  C   UNL     1      47.266   0.823   6.336  0.00  0.00    +0.000 A 
ATOM     19  C   UNL     1      46.786   1.107   7.615  0.00  0.00    +0.000 A 
ENDBRANCH  13  14
ENDBRANCH  10  13
ENDBRANCH   8  10
ENDBRANCH   7   8
ENDBRANCH   1   7
BRANCH   4  20
ATOM     20  C   UNL     1      47.474   8.348  13.577  0.00  0.00    +0.000 C 
BRANCH  20  21
ATOM     21  N   UNL     1      47.802   7.610  14.766  0.00  0.00    +0.000 N 
ATOM     22  C   UNL     1      49.057   7.114  14.994  0.00  0.00    +0.000 C 
ATOM     23  O   UNL     1      49.989   7.310  14.219  0.00  0.00    +0.000 OA
ATOM     24  H   UNL     1      47.018   7.236  15.291  0.00  0.00    +0.000 HD
BRANCH  22  25
ATOM     25  C   UNL     1      49.239   6.392  16.259  0.00  0.00    +0.000 A 
ATOM     26  C   UNL     1      50.104   6.893  17.221  0.00  0.00    +0.000 A 
ATOM     27  S   UNL     1      50.115   5.987  18.666  0.00  0.00    +0.000 S 
ATOM     28  C   UNL     1      49.005   4.860  18.035  0.00  0.00    +0.000 A 
ATOM     29  N   UNL     1      48.583   3.803  18.779  0.00  0.00    +0.000 NA
ATOM     30  C   UNL     1      47.761   3.018  18.165  0.00  0.00    +0.000 A 
ATOM     31  N   UNL     1      47.325   3.191  16.878  0.00  0.00    +0.000 N 
ATOM     32  C   UNL     1      47.713   4.252  16.097  0.00  0.00    +0.000 A 
ATOM     33  O   UNL     1      47.287   4.388  14.955  0.00  0.00    +0.000 OA
ATOM     34  C   UNL     1      48.630   5.174  16.742  0.00  0.00    +0.000 A 
ATOM     35  H   UNL     1      46.682   2.539  16.455  0.00  0.00    +0.000 HD
ENDBRANCH  22  25
ENDBRANCH  20  21
ENDBRANCH   4  20
TORSDOF 9
ENDMDL
MODEL 2
REMARK VINA RESULT:    -7.549      4.054     10.304
REMARK INTER + INTRA:         -12.537
REMARK INTER:                  -9.763
REMARK INTRA:                  -2.775
REMARK UNBOUND:                -1.016
REMARK  Name = 
REMARK  9 active torsions:
REMARK  status: ('A' for Active; 'I' for Inactive)
REMARK    1  A    between atoms: C_2  and  C_3
REMARK    2  A    between atoms: C_3  and  C_4
REMARK    3  A    between atoms: C_3  and  N_11
REMARK    4  A    between atoms: C_4  and  C_5
REMARK    5  A    between atoms: N_11  and  C_12
REMARK    6  A    between atoms: C_12  and  C_13
REMARK    7  A    between atoms: C_16  and  C_17
REMARK    8  A    between atoms: C_17  and  N_18
REMARK    9  A    between atoms: C_19  and  C_21
REMARK                            x       y       z     vdW  Elec       q    Type
REMARK                         _______ _______ _______ _____ _____    ______ ____
ROOT
ATOM      1  C   UNL     1      51.397   4.357  17.678  0.00  0.00    +0.000 A 
ATOM      2  C   UNL     1      50.885   3.054  17.768  0.00  0.00    +0.000 A 
ATOM      3  C   UNL     1      49.546   2.791  17.468  0.00  0.00    +0.000 A 
ATOM      4  C   UNL     1      48.688   3.826  17.076  0.00  0.00    +0.000 A 
ATOM      5  C   UNL     1      49.180   5.136  17.046  0.00  0.00    +0.000 A 
ATOM      6  C   UNL     1      50.522   5.398  17.334  0.00  0.00    +0.000 A 
ENDROOT
BRANCH   1   7
ATOM      7  C   UNL     1      52.852   4.650  17.969  0.00  0.00    +0.000 C 
BRANCH   7   8
ATOM      8  N   UNL     1      53.196   4.358  19.366  0.00  0.00    +0.000 NA
ATOM      9  H   UNL     1      52.670   3.544  19.676  0.00  0.00    +0.000 HD
BRANCH   8  10
ATOM     10  C   UNL     1      52.922   5.500  20.279  0.00  0.00    +0.000 C 
BRANCH  10  12
ATOM     11  N   UNL     1      55.066   6.224  21.655  0.00  0.00    +0.000 NA
ATOM     12  C   UNL     1      54.134   5.926  21.026  0.00  0.00    +0.000 C 
ENDBRANCH  10  12
BRANCH  10  13
ATOM     13  C   UNL     1      51.795   5.078  21.256  0.00  0.00    +0.000 C 
BRANCH  13  14
ATOM     14  C   UNL     1      50.415   5.608  20.923  0.00  0.00    +0.000 A 
ATOM     15  C   UNL     1      50.202   6.962  20.635  0.00  0.00    +0.000 A 
ATOM     16  C   UNL     1      48.919   7.429  20.335  0.00  0.00    +0.000 A 
ATOM     17  C   UNL     1      47.838   6.548  20.317  0.00  0.00    +0.000 A 
ATOM     18  C   UNL     1      48.039   5.199  20.593  0.00  0.00    +0.000 A 
ATOM     19  C   UNL     1      49.319   4.732  20.893  0.00  0.00    +0.000 A 
ENDBRANCH  13  14
ENDBRANCH  10  13
ENDBRANCH   8  10
ENDBRANCH   7   8
ENDBRANCH   1   7
BRANCH   4  20
ATOM     20  C   UNL     1      47.244   3.551  16.753  0.00  0.00    +0.000 C 
BRANCH  20  21
ATOM     21  N   UNL     1      46.767   4.490  15.776  0.00  0.00    +0.000 N 
ATOM     22  C   UNL     1      46.821   4.236  14.432  0.00  0.00    +0.000 C 
ATOM     23  O   UNL     1      47.235   3.171  13.983  0.00  0.00    +0.000 OA
ATOM     24  H   UNL     1      46.649   5.446  16.095  0.00  0.00    +0.000 HD
BRANCH  22  25
ATOM     25  C   UNL     1      46.285   5.288  13.560  0.00  0.00    +0.000 A 
ATOM     26  C   UNL     1      47.059   6.402  13.266  0.00  0.00    +0.000 A 
ATOM     27  S   UNL     1      46.324   7.470  12.158  0.00  0.00    +0.000 S 
ATOM     28  C   UNL     1      44.921   6.510  12.076  0.00  0.00    +0.000 A 
ATOM     29  N   UNL     1      43.873   6.869  11.286  0.00  0.00    +0.000 NA
ATOM     30  C   UNL     1      42.867   6.059  11.340  0.00  0.00    +0.000 A 
ATOM     31  N   UNL     1      42.811   4.929  12.110  0.00  0.00    +0.000 N 
ATOM     32  C   UNL     1      43.851   4.521  12.910  0.00  0.00    +0.000 A 
ATOM     33  O   UNL     1      43.776   3.491  13.571  0.00  0.00    +0.000 OA
ATOM     34  C   UNL     1      45.014   5.389  12.879  0.00  0.00    +0.000 A 
ATOM     35  H   UNL     1      41.993   4.339  12.109  0.00  0.00    +0.000 HD
ENDBRANCH  22  25
ENDBRANCH  20  21
ENDBRANCH   4  20
TORSDOF 9
ENDMDL
MODEL 3
REMARK VINA RESULT:    -7.524      2.839      3.874
REMARK INTER + INTRA:         -12.499
REMARK INTER:                 -11.315
REMARK INTRA:                  -1.184
REMARK UNBOUND:                -1.016
REMARK  Name = 
REMARK  9 active torsions:
REMARK  status: ('A' for Active; 'I' for Inactive)
REMARK    1  A    between atoms: C_2  and  C_3
REMARK    2  A    between atoms: C_3  and  C_4
REMARK    3  A    between atoms: C_3  and  N_11
REMARK    4  A    between atoms: C_4  and  C_5
REMARK    5  A    between atoms: N_11  and  C_12
REMARK    6  A    between atoms: C_12  and  C_13
REMARK    7  A    between atoms: C_16  and  C_17
REMARK    8  A    between atoms: C_17  and  N_18
REMARK    9  A    between atoms: C_19  and  C_21
REMARK                            x       y       z     vdW  Elec       q    Type
REMARK                         _______ _______ _______ _____ _____    ______ ____
ROOT
ATOM      1  C   UNL     1      47.107   5.051  13.600  0.00  0.00    +0.000 A 
ATOM      2  C   UNL     1      47.817   6.237  13.832  0.00  0.00    +0.000 A 
ATOM      3  C   UNL     1      48.327   6.527  15.101  0.00  0.00    +0.000 A 
ATOM      4  C   UNL     1      48.133   5.639  16.166  0.00  0.00    +0.000 A 
ATOM      5  C   UNL     1      47.370   4.484  15.953  0.00  0.00    +0.000 A 
ATOM      6  C   UNL     1      46.871   4.189  14.682  0.00  0.00    +0.000 A 
ENDROOT
BRANCH   1   7
ATOM      7  C   UNL     1      46.577   4.709  12.225  0.00  0.00    +0.000 C 
BRANCH   7   8
ATOM      8  N   UNL     1      45.226   4.138  12.291  0.00  0.00    +0.000 NA
ATOM      9  H   UNL     1      45.295   3.124  12.358  0.00  0.00    +0.000 HD
BRANCH   8  10
ATOM     10  C   UNL     1      44.388   4.499  11.117  0.00  0.00    +0.000 C 
BRANCH  10  12
ATOM     11  N   UNL     1      42.069   5.597  11.773  0.00  0.00    +0.000 NA
ATOM     12  C   UNL     1      43.092   5.108  11.517  0.00  0.00    +0.000 C 
ENDBRANCH  10  12
BRANCH  10  13
ATOM     13  C   UNL     1      44.156   3.218  10.275  0.00  0.00    +0.000 C 
BRANCH  13  14
ATOM     14  C   UNL     1      45.136   3.001   9.140  0.00  0.00    +0.000 A 
ATOM     15  C   UNL     1      45.585   1.719   8.798  0.00  0.00    +0.000 A 
ATOM     16  C   UNL     1      46.493   1.543   7.749  0.00  0.00    +0.000 A 
ATOM     17  C   UNL     1      46.958   2.645   7.032  0.00  0.00    +0.000 A 
ATOM     18  C   UNL     1      46.512   3.922   7.357  0.00  0.00    +0.000 A 
ATOM     19  C   UNL     1      45.606   4.099   8.404  0.00  0.00    +0.000 A 
ENDBRANCH  13  14
ENDBRANCH  10  13
ENDBRANCH   8  10
ENDBRANCH   7   8
ENDBRANCH   1   7
BRANCH   4  20
ATOM     20  C   UNL     1      48.678   5.945  17.535  0.00  0.00    +0.000 C 
BRANCH  20  21
ATOM     21  N   UNL     1      49.795   5.089  17.827  0.00  0.00    +0.000 N 
ATOM     22  C   UNL     1      51.071   5.398  17.439  0.00  0.00    +0.000 C 
ATOM     23  O   UNL     1      51.344   6.445  16.861  0.00  0.00    +0.000 OA
ATOM     24  H   UNL     1      49.572   4.133  18.080  0.00  0.00    +0.000 HD
BRANCH  22  25
ATOM     25  C   UNL     1      52.106   4.430  17.820  0.00  0.00    +0.000 A 
ATOM     26  C   UNL     1      53.313   4.877  18.337  0.00  0.00    +0.000 A 
ATOM     27  S   UNL     1      54.356   3.618  18.823  0.00  0.00    +0.000 S 
ATOM     28  C   UNL     1      53.254   2.429  18.306  0.00  0.00    +0.000 A 
ATOM     29  N   UNL     1      53.541   1.106  18.437  0.00  0.00    +0.000 NA
ATOM     30  C   UNL     1      52.623   0.317  17.981  0.00  0.00    +0.000 A 
ATOM     31  N   UNL     1      51.451   0.729  17.406  0.00  0.00    +0.000 N 
ATOM     32  C   UNL     1      51.115   2.053  17.267  0.00  0.00    +0.000 A 
ATOM     33  O   UNL     1      50.046   2.387  16.766  0.00  0.00    +0.000 OA
ATOM     34  C   UNL     1      52.106   2.985  17.774  0.00  0.00    +0.000 A 
ATOM     35  H   UNL     1      50.776   0.060  17.067  0.00  0.00    +0.000 HD
ENDBRANCH  22  25
ENDBRANCH  20  21
ENDBRANCH   4  20
TORSDOF 9
ENDMDL
MODEL 4
REMARK VINA RESULT:    -7.518      4.020      9.578
REMARK INTER + INTRA:         -12.490
REMARK INTER:                  -9.212
REMARK INTRA:                  -3.278
REMARK UNBOUND:                -1.016
REMARK  Name = 
REMARK  9 active torsions:
REMARK  status: ('A' for Active; 'I' for Inactive)
REMARK    1  A    between atoms: C_2  and  C_3
REMARK    2  A    between atoms: C_3  and  C_4
REMARK    3  A    between atoms: C_3  and  N_11
REMARK    4  A    between atoms: C_4  and  C_5
REMARK    5  A    between atoms: N_11  and  C_12
REMARK    6  A    between atoms: C_12  and  C_13
REMARK    7  A    between atoms: C_16  and  C_17
REMARK    8  A    between atoms: C_17  and  N_18
REMARK    9  A    between atoms: C_19  and  C_21
REMARK                            x       y       z     vdW  Elec       q    Type
REMARK                         _______ _______ _______ _____ _____    ______ ____
ROOT
ATOM      1  C   UNL     1      48.403   5.730  20.409  0.00  0.00    +0.000 A 
ATOM      2  C   UNL     1      49.197   4.659  19.977  0.00  0.00    +0.000 A 
ATOM      3  C   UNL     1      48.907   3.991  18.783  0.00  0.00    +0.000 A 
ATOM      4  C   UNL     1      47.814   4.379  17.999  0.00  0.00    +0.000 A 
ATOM      5  C   UNL     1      46.983   5.407  18.459  0.00  0.00    +0.000 A 
ATOM      6  C   UNL     1      47.279   6.082  19.646  0.00  0.00    +0.000 A 
ENDROOT
BRANCH   1   7
ATOM      7  C   UNL     1      48.723   6.482  21.682  0.00  0.00    +0.000 C 
BRANCH   7   8
ATOM      8  N   UNL     1      48.988   7.902  21.422  0.00  0.00    +0.000 NA
ATOM      9  H   UNL     1      48.238   8.282  20.848  0.00  0.00    +0.000 HD
BRANCH   8  10
ATOM     10  C   UNL     1      50.292   8.133  20.746  0.00  0.00    +0.000 C 
BRANCH  10  12
ATOM     11  N   UNL     1      52.082   9.333  22.285  0.00  0.00    +0.000 NA
ATOM     12  C   UNL     1      51.276   8.804  21.636  0.00  0.00    +0.000 C 
ENDBRANCH  10  12
BRANCH  10  13
ATOM     13  C   UNL     1      50.035   8.980  19.474  0.00  0.00    +0.000 C 
BRANCH  13  14
ATOM     14  C   UNL     1      49.936   8.197  18.180  0.00  0.00    +0.000 A 
ATOM     15  C   UNL     1      48.924   8.453  17.247  0.00  0.00    +0.000 A 
ATOM     16  C   UNL     1      48.850   7.714  16.061  0.00  0.00    +0.000 A 
ATOM     17  C   UNL     1      49.787   6.715  15.798  0.00  0.00    +0.000 A 
ATOM     18  C   UNL     1      50.801   6.457  16.715  0.00  0.00    +0.000 A 
ATOM     19  C   UNL     1      50.876   7.194  17.898  0.00  0.00    +0.000 A 
ENDBRANCH  13  14
ENDBRANCH  10  13
ENDBRANCH   8  10
ENDBRANCH   7   8
ENDBRANCH   1   7
BRANCH   4  20
ATOM     20  C   UNL     1      47.495   3.664  16.713  0.00  0.00    +0.000 C 
BRANCH  20  21
ATOM     21  N   UNL     1      46.974   4.591  15.747  0.00  0.00    +0.000 N 
ATOM     22  C   UNL     1      46.869   4.279  14.419  0.00  0.00    +0.000 C 
ATOM     23  O   UNL     1      47.170   3.173  13.980  0.00  0.00    +0.000 OA
ATOM     24  H   UNL     1      46.946   5.565  16.031  0.00  0.00    +0.000 HD
BRANCH  22  25
ATOM     25  C   UNL     1      46.307   5.327  13.558  0.00  0.00    +0.000 A 
ATOM     26  C   UNL     1      47.055   6.460  13.272  0.00  0.00    +0.000 A 
ATOM     27  S   UNL     1      46.293   7.522  12.176  0.00  0.00    +0.000 S 
ATOM     28  C   UNL     1      44.911   6.531  12.089  0.00  0.00    +0.000 A 
ATOM     29  N   UNL     1      43.853   6.874  11.306  0.00  0.00    +0.000 NA
ATOM     30  C   UNL     1      42.866   6.041  11.356  0.00  0.00    +0.000 A 
ATOM     31  N   UNL     1      42.838   4.903  12.116  0.00  0.00    +0.000 N 
ATOM     32  C   UNL     1      43.889   4.511  12.909  0.00  0.00    +0.000 A 
ATOM     33  O   UNL     1      43.839   3.474  13.561  0.00  0.00    +0.000 OA
ATOM     34  C   UNL     1      45.032   5.405  12.882  0.00  0.00    +0.000 A 
ATOM     35  H   UNL     1      42.033   4.295  12.112  0.00  0.00    +0.000 HD
ENDBRANCH  22  25
ENDBRANCH  20  21
ENDBRANCH   4  20
TORSDOF 9
ENDMDL
MODEL 5
REMARK VINA RESULT:    -7.215      3.644      9.554
REMARK INTER + INTRA:         -12.027
REMARK INTER:                  -8.841
REMARK INTRA:                  -3.186
REMARK UNBOUND:                -1.016
REMARK  Name = 
REMARK  9 active torsions:
REMARK  status: ('A' for Active; 'I' for Inactive)
REMARK    1  A    between atoms: C_2  and  C_3
REMARK    2  A    between atoms: C_3  and  C_4
REMARK    3  A    between atoms: C_3  and  N_11
REMARK    4  A    between atoms: C_4  and  C_5
REMARK    5  A    between atoms: N_11  and  C_12
REMARK    6  A    between atoms: C_12  and  C_13
REMARK    7  A    between atoms: C_16  and  C_17
REMARK    8  A    between atoms: C_17  and  N_18
REMARK    9  A    between atoms: C_19  and  C_21
REMARK                            x       y       z     vdW  Elec       q    Type
REMARK                         _______ _______ _______ _____ _____    ______ ____
ROOT
ATOM      1  C   UNL     1      50.646   5.155  17.234  0.00  0.00    +0.000 A 
ATOM      2  C   UNL     1      49.260   5.110  17.032  0.00  0.00    +0.000 A 
ATOM      3  C   UNL     1      48.623   6.069  16.239  0.00  0.00    +0.000 A 
ATOM      4  C   UNL     1      49.359   7.096  15.635  0.00  0.00    +0.000 A 
ATOM      5  C   UNL     1      50.734   7.179  15.886  0.00  0.00    +0.000 A 
ATOM      6  C   UNL     1      51.372   6.214  16.669  0.00  0.00    +0.000 A 
ENDROOT
BRANCH   1   7
ATOM      7  C   UNL     1      51.353   4.105  18.064  0.00  0.00    +0.000 C 
BRANCH   7   8
ATOM      8  N   UNL     1      50.769   3.991  19.406  0.00  0.00    +0.000 NA
ATOM      9  H   UNL     1      49.756   3.928  19.325  0.00  0.00    +0.000 HD
BRANCH   8  10
ATOM     10  C   UNL     1      51.124   5.134  20.289  0.00  0.00    +0.000 C 
BRANCH  10  12
ATOM     11  N   UNL     1      52.713   4.422  22.285  0.00  0.00    +0.000 NA
ATOM     12  C   UNL     1      52.041   4.731  21.388  0.00  0.00    +0.000 C 
ENDBRANCH  10  12
BRANCH  10  13
ATOM     13  C   UNL     1      49.812   5.730  20.860  0.00  0.00    +0.000 C 
BRANCH  13  14
ATOM     14  C   UNL     1      49.249   6.911  20.095  0.00  0.00    +0.000 A 
ATOM     15  C   UNL     1      47.877   7.026  19.835  0.00  0.00    +0.000 A 
ATOM     16  C   UNL     1      47.381   8.123  19.123  0.00  0.00    +0.000 A 
ATOM     17  C   UNL     1      48.249   9.114  18.667  0.00  0.00    +0.000 A 
ATOM     18  C   UNL     1      49.613   9.015  18.927  0.00  0.00    +0.000 A 
ATOM     19  C   UNL     1      50.109   7.920  19.637  0.00  0.00    +0.000 A 
ENDBRANCH  13  14
ENDBRANCH  10  13
ENDBRANCH   8  10
ENDBRANCH   7   8
ENDBRANCH   1   7
BRANCH   4  20
ATOM     20  C   UNL     1      48.680   8.133  14.781  0.00  0.00    +0.000 C 
BRANCH  20  21
ATOM     21  N   UNL     1      47.482   7.590  14.202  0.00  0.00    +0.000 N 
ATOM     22  C   UNL     1      47.463   7.031  12.953  0.00  0.00    +0.000 C 
ATOM     23  O   UNL     1      48.478   6.917  12.272  0.00  0.00    +0.000 OA
ATOM     24  H   UNL     1      46.608   7.880  14.628  0.00  0.00    +0.000 HD
BRANCH  22  25
ATOM     25  C   UNL     1      46.166   6.510  12.505  0.00  0.00    +0.000 A 
ATOM     26  C   UNL     1      45.229   7.371  11.953  0.00  0.00    +0.000 A 
ATOM     27  S   UNL     1      43.825   6.583  11.391  0.00  0.00    +0.000 S 
ATOM     28  C   UNL     1      44.396   5.068  11.918  0.00  0.00    +0.000 A 
ATOM     29  N   UNL     1      43.655   3.942  11.739  0.00  0.00    +0.000 NA
ATOM     30  C   UNL     1      44.202   2.869  12.209  0.00  0.00    +0.000 A 
ATOM     31  N   UNL     1      45.415   2.819  12.841  0.00  0.00    +0.000 N 
ATOM     32  C   UNL     1      46.202   3.929  13.030  0.00  0.00    +0.000 A 
ATOM     33  O   UNL     1      47.294   3.846  13.581  0.00  0.00    +0.000 OA
ATOM     34  C   UNL     1      45.641   5.163  12.510  0.00  0.00    +0.000 A 
ATOM     35  H   UNL     1      45.786   1.947  13.188  0.00  0.00    +0.000 HD
ENDBRANCH  22  25
ENDBRANCH  20  21
ENDBRANCH   4  20
TORSDOF 9
ENDMDL
MODEL 6
REMARK VINA RESULT:    -7.104      3.121      8.516
REMARK INTER + INTRA:         -11.859
REMARK INTER:                  -9.981
REMARK INTRA:                  -1.877
REMARK UNBOUND:                -1.016
REMARK  Name = 
REMARK  9 active torsions:
REMARK  status: ('A' for Active; 'I' for Inactive)
REMARK    1  A    between atoms: C_2  and  C_3
REMARK    2  A    between atoms: C_3  and  C_4
REMARK    3  A    between atoms: C_3  and  N_11
REMARK    4  A    between atoms: C_4  and  C_5
REMARK    5  A    between atoms: N_11  and  C_12
REMARK    6  A    between atoms: C_12  and  C_13
REMARK    7  A    between atoms: C_16  and  C_17
REMARK    8  A    between atoms: C_17  and  N_18
REMARK    9  A    between atoms: C_19  and  C_21
REMARK                            x       y       z     vdW  Elec       q    Type
REMARK                         _______ _______ _______ _____ _____    ______ ____
ROOT
ATOM      1  C   UNL     1      49.458   8.258  15.739  0.00  0.00    +0.000 A 
ATOM      2  C   UNL     1      49.993   7.384  14.783  0.00  0.00    +0.000 A 
ATOM      3  C   UNL     1      49.421   7.279  13.512  0.00  0.00    +0.000 A 
ATOM      4  C   UNL     1      48.298   8.043  13.171  0.00  0.00    +0.000 A 
ATOM      5  C   UNL     1      47.724   8.870  14.144  0.00  0.00    +0.000 A 
ATOM      6  C   UNL     1      48.303   8.984  15.410  0.00  0.00    +0.000 A 
ENDROOT
BRANCH   1   7
ATOM      7  C   UNL     1      50.086   8.405  17.107  0.00  0.00    +0.000 C 
BRANCH   7   8
ATOM      8  N   UNL     1      49.071   8.468  18.166  0.00  0.00    +0.000 NA
ATOM      9  H   UNL     1      49.477   8.901  18.993  0.00  0.00    +0.000 HD
BRANCH   8  10
ATOM     10  C   UNL     1      48.528   7.130  18.525  0.00  0.00    +0.000 C 
BRANCH  10  12
ATOM     11  N   UNL     1      47.502   7.036  20.965  0.00  0.00    +0.000 NA
ATOM     12  C   UNL     1      47.943   7.109  19.892  0.00  0.00    +0.000 C 
ENDBRANCH  10  12
BRANCH  10  13
ATOM     13  C   UNL     1      49.673   6.094  18.402  0.00  0.00    +0.000 C 
BRANCH  13  14
ATOM     14  C   UNL     1      49.300   4.791  17.724  0.00  0.00    +0.000 A 
ATOM     15  C   UNL     1      50.101   3.648  17.846  0.00  0.00    +0.000 A 
ATOM     16  C   UNL     1      49.739   2.458  17.208  0.00  0.00    +0.000 A 
ATOM     17  C   UNL     1      48.573   2.398  16.445  0.00  0.00    +0.000 A 
ATOM     18  C   UNL     1      47.765   3.524  16.324  0.00  0.00    +0.000 A 
ATOM     19  C   UNL     1      48.126   4.713  16.960  0.00  0.00    +0.000 A 
ENDBRANCH  13  14
ENDBRANCH  10  13
ENDBRANCH   8  10
ENDBRANCH   7   8
ENDBRANCH   1   7
BRANCH   4  20
ATOM     20  C   UNL     1      47.676   7.934  11.805  0.00  0.00    +0.000 C 
BRANCH  20  21
ATOM     21  N   UNL     1      46.962   6.693  11.685  0.00  0.00    +0.000 N 
ATOM     22  C   UNL     1      45.594   6.635  11.688  0.00  0.00    +0.000 C 
ATOM     23  O   UNL     1      44.896   7.643  11.747  0.00  0.00    +0.000 OA
ATOM     24  H   UNL     1      47.494   5.850  11.874  0.00  0.00    +0.000 HD
BRANCH  22  25
ATOM     25  C   UNL     1      45.011   5.296  11.546  0.00  0.00    +0.000 A 
ATOM     26  C   UNL     1      44.347   4.714  12.616  0.00  0.00    +0.000 A 
ATOM     27  S   UNL     1      43.642   3.206  12.245  0.00  0.00    +0.000 S 
ATOM     28  C   UNL     1      44.249   3.251  10.654  0.00  0.00    +0.000 A 
ATOM     29  N   UNL     1      44.002   2.235   9.784  0.00  0.00    +0.000 NA
ATOM     30  C   UNL     1      44.543   2.393   8.620  0.00  0.00    +0.000 A 
ATOM     31  N   UNL     1      45.308   3.467   8.250  0.00  0.00    +0.000 N 
ATOM     32  C   UNL     1      45.569   4.520   9.092  0.00  0.00    +0.000 A 
ATOM     33  O   UNL     1      46.240   5.477   8.721  0.00  0.00    +0.000 OA
ATOM     34  C   UNL     1      44.974   4.401  10.411  0.00  0.00    +0.000 A 
ATOM     35  H   UNL     1      45.704   3.528   7.324  0.00  0.00    +0.000 HD
ENDBRANCH  22  25
ENDBRANCH  20  21
ENDBRANCH   4  20
TORSDOF 9
ENDMDL
MODEL 7
REMARK VINA RESULT:    -7.032      4.089      6.984
REMARK INTER + INTRA:         -11.748
REMARK INTER:                 -10.768
REMARK INTRA:                  -0.980
REMARK UNBOUND:                -1.016
REMARK  Name = 
REMARK  9 active torsions:
REMARK  status: ('A' for Active; 'I' for Inactive)
REMARK    1  A    between atoms: C_2  and  C_3
REMARK    2  A    between atoms: C_3  and  C_4
REMARK    3  A    between atoms: C_3  and  N_11
REMARK    4  A    between atoms: C_4  and  C_5
REMARK    5  A    between atoms: N_11  and  C_12
REMARK    6  A    between atoms: C_12  and  C_13
REMARK    7  A    between atoms: C_16  and  C_17
REMARK    8  A    between atoms: C_17  and  N_18
REMARK    9  A    between atoms: C_19  and  C_21
REMARK                            x       y       z     vdW  Elec       q    Type
REMARK                         _______ _______ _______ _____ _____    ______ ____
ROOT
ATOM      1  C   UNL     1      45.032   7.616  11.985  0.00  0.00    +0.000 A 
ATOM      2  C   UNL     1      44.190   6.502  12.114  0.00  0.00    +0.000 A 
ATOM      3  C   UNL     1      44.618   5.359  12.796  0.00  0.00    +0.000 A 
ATOM      4  C   UNL     1      45.898   5.304  13.361  0.00  0.00    +0.000 A 
ATOM      5  C   UNL     1      46.763   6.390  13.180  0.00  0.00    +0.000 A 
ATOM      6  C   UNL     1      46.331   7.537  12.508  0.00  0.00    +0.000 A 
ENDROOT
BRANCH   1   7
ATOM      7  C   UNL     1      44.571   8.870  11.277  0.00  0.00    +0.000 C 
BRANCH   7   8
ATOM      8  N   UNL     1      43.186   8.749  10.806  0.00  0.00    +0.000 NA
ATOM      9  H   UNL     1      43.143   8.044  10.073  0.00  0.00    +0.000 HD
BRANCH   8  10
ATOM     10  C   UNL     1      42.637  10.032  10.290  0.00  0.00    +0.000 C 
BRANCH  10  12
ATOM     11  N   UNL     1      44.257  11.255   8.590  0.00  0.00    +0.000 NA
ATOM     12  C   UNL     1      43.555  10.689   9.323  0.00  0.00    +0.000 C 
ENDBRANCH  10  12
BRANCH  10  13
ATOM     13  C   UNL     1      42.357  10.960  11.500  0.00  0.00    +0.000 C 
BRANCH  13  14
ATOM     14  C   UNL     1      40.905  11.060  11.920  0.00  0.00    +0.000 A 
ATOM     15  C   UNL     1      39.922  10.238  11.352  0.00  0.00    +0.000 A 
ATOM     16  C   UNL     1      38.587  10.351  11.752  0.00  0.00    +0.000 A 
ATOM     17  C   UNL     1      38.222  11.284  12.723  0.00  0.00    +0.000 A 
ATOM     18  C   UNL     1      39.191  12.099  13.300  0.00  0.00    +0.000 A 
ATOM     19  C   UNL     1      40.524  11.987  12.901  0.00  0.00    +0.000 A 
ENDBRANCH  13  14
ENDBRANCH  10  13
ENDBRANCH   8  10
ENDBRANCH   7   8
ENDBRANCH   1   7
BRANCH   4  20
ATOM     20  C   UNL     1      46.366   4.077  14.095  0.00  0.00    +0.000 C 
BRANCH  20  21
ATOM     21  N   UNL     1      47.453   4.410  14.973  0.00  0.00    +0.000 N 
ATOM     22  C   UNL     1      47.466   4.041  16.291  0.00  0.00    +0.000 C 
ATOM     23  O   UNL     1      46.572   3.364  16.791  0.00  0.00    +0.000 OA
ATOM     24  H   UNL     1      48.070   5.152  14.661  0.00  0.00    +0.000 HD
BRANCH  22  25
ATOM     25  C   UNL     1      48.651   4.446  17.057  0.00  0.00    +0.000 A 
ATOM     26  C   UNL     1      48.716   5.716  17.610  0.00  0.00    +0.000 A 
ATOM     27  S   UNL     1      50.113   5.980  18.552  0.00  0.00    +0.000 S 
ATOM     28  C   UNL     1      50.709   4.423  18.208  0.00  0.00    +0.000 A 
ATOM     29  N   UNL     1      51.896   4.001  18.718  0.00  0.00    +0.000 NA
ATOM     30  C   UNL     1      52.234   2.807  18.354  0.00  0.00    +0.000 A 
ATOM     31  N   UNL     1      51.498   2.001  17.527  0.00  0.00    +0.000 N 
ATOM     32  C   UNL     1      50.287   2.382  17.002  0.00  0.00    +0.000 A 
ATOM     33  O   UNL     1      49.642   1.627  16.282  0.00  0.00    +0.000 OA
ATOM     34  C   UNL     1      49.852   3.712  17.389  0.00  0.00    +0.000 A 
ATOM     35  H   UNL     1      51.820   1.078  17.279  0.00  0.00    +0.000 HD
ENDBRANCH  22  25
ENDBRANCH  20  21
ENDBRANCH   4  20
TORSDOF 9
ENDMDL
MODEL 8
REMARK VINA RESULT:    -6.843      4.010      5.105
REMARK INTER + INTRA:         -11.460
REMARK INTER:                 -10.597
REMARK INTRA:                  -0.864
REMARK UNBOUND:                -1.016
REMARK  Name = 
REMARK  9 active torsions:
REMARK  status: ('A' for Active; 'I' for Inactive)
REMARK    1  A    between atoms: C_2  and  C_3
REMARK    2  A    between atoms: C_3  and  C_4
REMARK    3  A    between atoms: C_3  and  N_11
REMARK    4  A    between atoms: C_4  and  C_5
REMARK    5  A    between atoms: N_11  and  C_12
REMARK    6  A    between atoms: C_12  and  C_13
REMARK    7  A    between atoms: C_16  and  C_17
REMARK    8  A    between atoms: C_17  and  N_18
REMARK    9  A    between atoms: C_19  and  C_21
REMARK                            x       y       z     vdW  Elec       q    Type
REMARK                         _______ _______ _______ _____ _____    ______ ____
ROOT
ATOM      1  C   UNL     1      44.072   7.035  11.709  0.00  0.00    +0.000 A 
ATOM      2  C   UNL     1      45.236   7.132  12.485  0.00  0.00    +0.000 A 
ATOM      3  C   UNL     1      45.925   8.343  12.590  0.00  0.00    +0.000 A 
ATOM      4  C   UNL     1      45.466   9.483  11.918  0.00  0.00    +0.000 A 
ATOM      5  C   UNL     1      44.341   9.374  11.093  0.00  0.00    +0.000 A 
ATOM      6  C   UNL     1      43.645   8.166  10.997  0.00  0.00    +0.000 A 
ENDROOT
BRANCH   1   7
ATOM      7  C   UNL     1      43.299   5.738  11.611  0.00  0.00    +0.000 C 
BRANCH   7   8
ATOM      8  N   UNL     1      43.259   5.233  10.233  0.00  0.00    +0.000 NA
ATOM      9  H   UNL     1      42.307   4.951  10.008  0.00  0.00    +0.000 HD
BRANCH   8  10
ATOM     10  C   UNL     1      44.180   4.087  10.011  0.00  0.00    +0.000 C 
BRANCH  10  12
ATOM     11  N   UNL     1      45.331   3.342  12.277  0.00  0.00    +0.000 NA
ATOM     12  C   UNL     1      44.843   3.646  11.266  0.00  0.00    +0.000 C 
ENDBRANCH  10  12
BRANCH  10  13
ATOM     13  C   UNL     1      45.231   4.509   8.953  0.00  0.00    +0.000 C 
BRANCH  13  14
ATOM     14  C   UNL     1      45.946   3.368   8.257  0.00  0.00    +0.000 A 
ATOM     15  C   UNL     1      46.892   3.605   7.251  0.00  0.00    +0.000 A 
ATOM     16  C   UNL     1      47.536   2.537   6.619  0.00  0.00    +0.000 A 
ATOM     17  C   UNL     1      47.242   1.224   6.987  0.00  0.00    +0.000 A 
ATOM     18  C   UNL     1      46.310   0.977   7.990  0.00  0.00    +0.000 A 
ATOM     19  C   UNL     1      45.667   2.043   8.622  0.00  0.00    +0.000 A 
ENDBRANCH  13  14
ENDBRANCH  10  13
ENDBRANCH   8  10
ENDBRANCH   7   8
ENDBRANCH   1   7
BRANCH   4  20
ATOM     20  C   UNL     1      46.204  10.791  12.026  0.00  0.00    +0.000 C 
BRANCH  20  21
ATOM     21  N   UNL     1      47.501  10.679  11.418  0.00  0.00    +0.000 N 
ATOM     22  C   UNL     1      48.654  10.673  12.155  0.00  0.00    +0.000 C 
ATOM     23  O   UNL     1      48.648  10.716  13.382  0.00  0.00    +0.000 OA
ATOM     24  H   UNL     1      47.549  10.882  10.425  0.00  0.00    +0.000 HD
BRANCH  22  25
ATOM     25  C   UNL     1      49.901  10.541  11.391  0.00  0.00    +0.000 A 
ATOM     26  C   UNL     1      50.493  11.667  10.836  0.00  0.00    +0.000 A 
ATOM     27  S   UNL     1      51.985  11.347  10.075  0.00  0.00    +0.000 S 
ATOM     28  C   UNL     1      51.865   9.683  10.411  0.00  0.00    +0.000 A 
ATOM     29  N   UNL     1      52.840   8.819  10.020  0.00  0.00    +0.000 NA
ATOM     30  C   UNL     1      52.605   7.584  10.321  0.00  0.00    +0.000 A 
ATOM     31  N   UNL     1      51.488   7.135  10.974  0.00  0.00    +0.000 N 
ATOM     32  C   UNL     1      50.487   7.974  11.400  0.00  0.00    +0.000 A 
ATOM     33  O   UNL     1      49.510   7.541  12.001  0.00  0.00    +0.000 OA
ATOM     34  C   UNL     1      50.705   9.377  11.098  0.00  0.00    +0.000 A 
ATOM     35  H   UNL     1      51.364   6.155  11.178  0.00  0.00    +0.000 HD
ENDBRANCH  22  25
ENDBRANCH  20  21
ENDBRANCH   4  20
TORSDOF 9
ENDMDL
MODEL 9
REMARK VINA RESULT:    -6.822      3.053      8.878
REMARK INTER + INTRA:         -11.428
REMARK INTER:                  -9.598
REMARK INTRA:                  -1.830
REMARK UNBOUND:                -1.016
REMARK  Name = 
REMARK  9 active torsions:
REMARK  status: ('A' for Active; 'I' for Inactive)
REMARK    1  A    between atoms: C_2  and  C_3
REMARK    2  A    between atoms: C_3  and  C_4
REMARK    3  A    between atoms: C_3  and  N_11
REMARK    4  A    between atoms: C_4  and  C_5
REMARK    5  A    between atoms: N_11  and  C_12
REMARK    6  A    between atoms: C_12  and  C_13
REMARK    7  A    between atoms: C_16  and  C_17
REMARK    8  A    between atoms: C_17  and  N_18
REMARK    9  A    between atoms: C_19  and  C_21
REMARK                            x       y       z     vdW  Elec       q    Type
REMARK                         _______ _______ _______ _____ _____    ______ ____
ROOT
ATOM      1  C   UNL     1      50.456   7.240  15.442  0.00  0.00    +0.000 A 
ATOM      2  C   UNL     1      49.194   6.629  15.464  0.00  0.00    +0.000 A 
ATOM      3  C   UNL     1      48.304   6.791  14.398  0.00  0.00    +0.000 A 
ATOM      4  C   UNL     1      48.655   7.571  13.290  0.00  0.00    +0.000 A 
ATOM      5  C   UNL     1      49.888   8.233  13.293  0.00  0.00    +0.000 A 
ATOM      6  C   UNL     1      50.783   8.062  14.353  0.00  0.00    +0.000 A 
ENDROOT
BRANCH   1   7
ATOM      7  C   UNL     1      51.441   7.048  16.573  0.00  0.00    +0.000 C 
BRANCH   7   8
ATOM      8  N   UNL     1      50.760   6.789  17.848  0.00  0.00    +0.000 NA
ATOM      9  H   UNL     1      50.572   7.675  18.312  0.00  0.00    +0.000 HD
BRANCH   8  10
ATOM     10  C   UNL     1      51.546   5.912  18.756  0.00  0.00    +0.000 C 
BRANCH  10  12
ATOM     11  N   UNL     1      53.503   4.614  17.531  0.00  0.00    +0.000 NA
ATOM     12  C   UNL     1      52.645   5.207  18.045  0.00  0.00    +0.000 C 
ENDBRANCH  10  12
BRANCH  10  13
ATOM     13  C   UNL     1      50.574   4.896  19.409  0.00  0.00    +0.000 C 
BRANCH  13  14
ATOM     14  C   UNL     1      49.477   4.374  18.504  0.00  0.00    +0.000 A 
ATOM     15  C   UNL     1      49.711   3.331  17.599  0.00  0.00    +0.000 A 
ATOM     16  C   UNL     1      48.684   2.868  16.770  0.00  0.00    +0.000 A 
ATOM     17  C   UNL     1      47.414   3.441  16.841  0.00  0.00    +0.000 A 
ATOM     18  C   UNL     1      47.168   4.472  17.742  0.00  0.00    +0.000 A 
ATOM     19  C   UNL     1      48.192   4.934  18.569  0.00  0.00    +0.000 A 
ENDBRANCH  13  14
ENDBRANCH  10  13
ENDBRANCH   8  10
ENDBRANCH   7   8
ENDBRANCH   1   7
BRANCH   4  20
ATOM     20  C   UNL     1      47.701   7.751  12.140  0.00  0.00    +0.000 C 
BRANCH  20  21
ATOM     21  N   UNL     1      46.980   6.531  11.899  0.00  0.00    +0.000 N 
ATOM     22  C   UNL     1      45.614   6.470  11.942  0.00  0.00    +0.000 C 
ATOM     23  O   UNL     1      44.920   7.463  12.143  0.00  0.00    +0.000 OA
ATOM     24  H   UNL     1      47.517   5.673  11.970  0.00  0.00    +0.000 HD
BRANCH  22  25
ATOM     25  C   UNL     1      45.024   5.155  11.664  0.00  0.00    +0.000 A 
ATOM     26  C   UNL     1      44.349   4.475  12.667  0.00  0.00    +0.000 A 
ATOM     27  S   UNL     1      43.638   3.016  12.142  0.00  0.00    +0.000 S 
ATOM     28  C   UNL     1      44.256   3.214  10.568  0.00  0.00    +0.000 A 
ATOM     29  N   UNL     1      44.009   2.292   9.600  0.00  0.00    +0.000 NA
ATOM     30  C   UNL     1      44.560   2.561   8.461  0.00  0.00    +0.000 A 
ATOM     31  N   UNL     1      45.333   3.661   8.204  0.00  0.00    +0.000 N 
ATOM     32  C   UNL     1      45.594   4.624   9.148  0.00  0.00    +0.000 A 
ATOM     33  O   UNL     1      46.274   5.608   8.878  0.00  0.00    +0.000 OA
ATOM     34  C   UNL     1      44.990   4.379  10.445  0.00  0.00    +0.000 A 
ATOM     35  H   UNL     1      45.736   3.811   7.292  0.00  0.00    +0.000 HD
ENDBRANCH  22  25
ENDBRANCH  20  21
ENDBRANCH   4  20
TORSDOF 9
ENDMDL
