MODEL 1
REMARK VINA RESULT:    -8.235      0.000      0.000
REMARK INTER + INTRA:         -13.554
REMARK INTER:                 -12.086
REMARK INTRA:                  -1.468
REMARK UNBOUND:                -1.468
REMARK  Name = 
REMARK  9 active torsions:
REMARK  status: ('A' for Active; 'I' for Inactive)
REMARK    1  A    between atoms: C_1  and  C_2
REMARK    2  A    between atoms: C_2  and  C_3
REMARK    3  A    between atoms: C_2  and  C_14
REMARK    4  A    between atoms: C_3  and  O_4
REMARK    5  A    between atoms: O_4  and  C_5
REMARK    6  A    between atoms: C_8  and  C_9
REMARK    7  A    between atoms: C_18  and  C_19
REMARK    8  A    between atoms: C_24  and  O_25
REMARK    9  A    between atoms: O_25  and  C_26
REMARK                            x       y       z     vdW  Elec       q    Type
REMARK                         _______ _______ _______ _____ _____    ______ ____
ROOT
ATOM      1  C   UNL     1      45.022   5.432  12.846  0.00  0.00    +0.000 A 
ATOM      2  C   UNL     1      45.807   4.590  13.641  0.00  0.00    +0.000 A 
ATOM      3  C   UNL     1      47.069   5.001  14.063  0.00  0.00    +0.000 A 
ATOM      4  C   UNL     1      47.558   6.261  13.698  0.00  0.00    +0.000 A 
ATOM      5  C   UNL     1      46.822   7.125  12.865  0.00  0.00    +0.000 A 
ATOM      6  C   UNL     1      45.559   6.670  12.448  0.00  0.00    +0.000 A 
ENDROOT
BRANCH   5   7
ATOM      7  C   UNL     1      47.386   8.411  12.356  0.00  0.00    +0.000 A 
ATOM      8  C   UNL     1      48.763   8.466  12.043  0.00  0.00    +0.000 A 
ATOM      9  C   UNL     1      49.351   9.596  11.473  0.00  0.00    +0.000 A 
ATOM     10  C   UNL     1      48.571  10.700  11.171  0.00  0.00    +0.000 A 
ATOM     11  C   UNL     1      47.211  10.690  11.475  0.00  0.00    +0.000 A 
ATOM     12  C   UNL     1      46.618   9.579  12.099  0.00  0.00    +0.000 A 
BRANCH  12  13
ATOM     13  O   UNL     1      45.289   9.565  12.453  0.00  0.00    +0.000 OA
BRANCH  13  14
ATOM     14  C   UNL     1      44.373  10.082  11.500  0.00  0.00    +0.000 C 
ATOM     15  F   UNL     1      43.855   9.057  10.778  0.00  0.00    +0.000 F 
ATOM     16  F   UNL     1      43.334  10.629  12.184  0.00  0.00    +0.000 F 
ENDBRANCH  13  14
ENDBRANCH  12  13
ENDBRANCH   5   7
BRANCH   1  18
ATOM     17  C   UNL     1      42.988   5.956  11.393  0.00  0.00    +0.000 C 
ATOM     18  C   UNL     1      43.651   4.973  12.370  0.00  0.00    +0.000 C 
BRANCH  18  19
ATOM     19  C   UNL     1      43.756   3.555  11.781  0.00  0.00    +0.000 C 
BRANCH  19  20
ATOM     20  O   UNL     1      43.415   3.579  10.391  0.00  0.00    +0.000 OA
BRANCH  20  21
ATOM     21  C   UNL     1      44.416   3.243   9.520  0.00  0.00    +0.000 A 
ATOM     22  C   UNL     1      44.809   1.940   9.212  0.00  0.00    +0.000 A 
ATOM     23  C   UNL     1      45.821   1.718   8.271  0.00  0.00    +0.000 A 
ATOM     24  C   UNL     1      46.442   2.794   7.627  0.00  0.00    +0.000 A 
ATOM     25  C   UNL     1      46.055   4.100   7.943  0.00  0.00    +0.000 A 
ATOM     26  C   UNL     1      45.037   4.317   8.880  0.00  0.00    +0.000 A 
BRANCH  24  27
ATOM     27  C   UNL     1      47.506   2.490   6.632  0.00  0.00    +0.000 C 
ATOM     28  N   UNL     1      47.373   3.027   5.383  0.00  0.00    +0.000 N 
ATOM     29  O   UNL     1      48.445   1.751   6.897  0.00  0.00    +0.000 OA
ATOM     30  H   UNL     1      46.509   3.431   5.053  0.00  0.00    +0.000 HD
ATOM     31  H   UNL     1      48.039   2.708   4.691  0.00  0.00    +0.000 HD
ENDBRANCH  24  27
ENDBRANCH  20  21
ENDBRANCH  19  20
ENDBRANCH  18  19
ENDBRANCH   1  18
TORSDOF 8
ENDMDL
MODEL 2
REMARK VINA RESULT:    -8.099      3.388      4.496
REMARK INTER + INTRA:         -13.355
REMARK INTER:                 -12.092
REMARK INTRA:                  -1.263
REMARK UNBOUND:                -1.468
REMARK  Name = 
REMARK  9 active torsions:
REMARK  status: ('A' for Active; 'I' for Inactive)
REMARK    1  A    between atoms: C_1  and  C_2
REMARK    2  A    between atoms: C_2  and  C_3
REMARK    3  A    between atoms: C_2  and  C_14
REMARK    4  A    between atoms: C_3  and  O_4
REMARK    5  A    between atoms: O_4  and  C_5
REMARK    6  A    between atoms: C_8  and  C_9
REMARK    7  A    between atoms: C_18  and  C_19
REMARK    8  A    between atoms: C_24  and  O_25
REMARK    9  A    between atoms: O_25  and  C_26
REMARK                            x       y       z     vdW  Elec       q    Type
REMARK                         _______ _______ _______ _____ _____    ______ ____
ROOT
ATOM      1  C   UNL     1      45.671   5.425  12.271  0.00  0.00    +0.000 A 
ATOM      2  C   UNL     1      46.200   6.086  11.157  0.00  0.00    +0.000 A 
ATOM      3  C   UNL     1      47.384   6.811  11.270  0.00  0.00    +0.000 A 
ATOM      4  C   UNL     1      48.054   6.879  12.497  0.00  0.00    +0.000 A 
ATOM      5  C   UNL     1      47.538   6.266  13.654  0.00  0.00    +0.000 A 
ATOM      6  C   UNL     1      46.334   5.556  13.505  0.00  0.00    +0.000 A 
ENDROOT
BRANCH   5   7
ATOM      7  C   UNL     1      48.168   6.445  14.997  0.00  0.00    +0.000 A 
ATOM      8  C   UNL     1      48.637   7.728  15.357  0.00  0.00    +0.000 A 
ATOM      9  C   UNL     1      49.151   8.003  16.625  0.00  0.00    +0.000 A 
ATOM     10  C   UNL     1      49.184   7.006  17.586  0.00  0.00    +0.000 A 
ATOM     11  C   UNL     1      48.740   5.725  17.268  0.00  0.00    +0.000 A 
ATOM     12  C   UNL     1      48.272   5.420  15.977  0.00  0.00    +0.000 A 
BRANCH  12  13
ATOM     13  O   UNL     1      47.876   4.151  15.626  0.00  0.00    +0.000 OA
BRANCH  13  14
ATOM     14  C   UNL     1      48.135   3.121  16.568  0.00  0.00    +0.000 C 
ATOM     15  F   UNL     1      46.980   2.793  17.198  0.00  0.00    +0.000 F 
ATOM     16  F   UNL     1      48.518   2.018  15.875  0.00  0.00    +0.000 F 
ENDBRANCH  13  14
ENDBRANCH  12  13
ENDBRANCH   5   7
BRANCH   1  18
ATOM     17  C   UNL     1      43.301   5.093  13.165  0.00  0.00    +0.000 C 
ATOM     18  C   UNL     1      44.367   4.649  12.151  0.00  0.00    +0.000 C 
BRANCH  18  19
ATOM     19  C   UNL     1      43.852   4.725  10.702  0.00  0.00    +0.000 C 
BRANCH  19  20
ATOM     20  O   UNL     1      43.722   3.405  10.163  0.00  0.00    +0.000 OA
BRANCH  20  21
ATOM     21  C   UNL     1      44.670   3.031   9.250  0.00  0.00    +0.000 A 
ATOM     22  C   UNL     1      45.183   1.741   9.107  0.00  0.00    +0.000 A 
ATOM     23  C   UNL     1      46.123   1.468   8.107  0.00  0.00    +0.000 A 
ATOM     24  C   UNL     1      46.552   2.478   7.239  0.00  0.00    +0.000 A 
ATOM     25  C   UNL     1      46.045   3.772   7.388  0.00  0.00    +0.000 A 
ATOM     26  C   UNL     1      45.100   4.040   8.386  0.00  0.00    +0.000 A 
BRANCH  24  27
ATOM     27  C   UNL     1      47.547   2.120   6.192  0.00  0.00    +0.000 C 
ATOM     28  N   UNL     1      48.810   2.622   6.325  0.00  0.00    +0.000 N 
ATOM     29  O   UNL     1      47.245   1.439   5.221  0.00  0.00    +0.000 OA
ATOM     30  H   UNL     1      49.035   3.372   6.962  0.00  0.00    +0.000 HD
ATOM     31  H   UNL     1      49.432   2.468   5.541  0.00  0.00    +0.000 HD
ENDBRANCH  24  27
ENDBRANCH  20  21
ENDBRANCH  19  20
ENDBRANCH  18  19
ENDBRANCH   1  18
TORSDOF 8
ENDMDL
MODEL 3
REMARK VINA RESULT:    -7.993      2.535      3.025
REMARK INTER + INTRA:         -13.200
REMARK INTER:                 -11.838
REMARK INTRA:                  -1.362
REMARK UNBOUND:                -1.468
REMARK  Name = 
REMARK  9 active torsions:
REMARK  status: ('A' for Active; 'I' for Inactive)
REMARK    1  A    between atoms: C_1  and  C_2
REMARK    2  A    between atoms: C_2  and  C_3
REMARK    3  A    between atoms: C_2  and  C_14
REMARK    4  A    between atoms: C_3  and  O_4
REMARK    5  A    between atoms: O_4  and  C_5
REMARK    6  A    between atoms: C_8  and  C_9
REMARK    7  A    between atoms: C_18  and  C_19
REMARK    8  A    between atoms: C_24  and  O_25
REMARK    9  A    between atoms: O_25  and  C_26
REMARK                            x       y       z     vdW  Elec       q    Type
REMARK                         _______ _______ _______ _____ _____    ______ ____
ROOT
ATOM      1  C   UNL     1      45.648   5.209  12.802  0.00  0.00    +0.000 A 
ATOM      2  C   UNL     1      46.398   4.653  13.844  0.00  0.00    +0.000 A 
ATOM      3  C   UNL     1      47.468   5.358  14.390  0.00  0.00    +0.000 A 
ATOM      4  C   UNL     1      47.797   6.628  13.904  0.00  0.00    +0.000 A 
ATOM      5  C   UNL     1      47.098   7.209  12.829  0.00  0.00    +0.000 A 
ATOM      6  C   UNL     1      46.034   6.463  12.294  0.00  0.00    +0.000 A 
ENDROOT
BRANCH   5   7
ATOM      7  C   UNL     1      47.523   8.501  12.210  0.00  0.00    +0.000 A 
ATOM      8  C   UNL     1      46.598   9.569  12.176  0.00  0.00    +0.000 A 
ATOM      9  C   UNL     1      46.943  10.836  11.704  0.00  0.00    +0.000 A 
ATOM     10  C   UNL     1      48.237  11.083  11.275  0.00  0.00    +0.000 A 
ATOM     11  C   UNL     1      49.175  10.053  11.282  0.00  0.00    +0.000 A 
ATOM     12  C   UNL     1      48.826   8.759  11.703  0.00  0.00    +0.000 A 
BRANCH  12  13
ATOM     13  O   UNL     1      49.722   7.715  11.672  0.00  0.00    +0.000 OA
BRANCH  13  14
ATOM     14  C   UNL     1      51.018   8.006  11.171  0.00  0.00    +0.000 C 
ATOM     15  F   UNL     1      51.888   8.091  12.209  0.00  0.00    +0.000 F 
ATOM     16  F   UNL     1      51.418   6.943  10.425  0.00  0.00    +0.000 F 
ENDBRANCH  13  14
ENDBRANCH  12  13
ENDBRANCH   5   7
BRANCH   1  18
ATOM     17  C   UNL     1      43.286   4.297  13.139  0.00  0.00    +0.000 C 
ATOM     18  C   UNL     1      44.490   4.430  12.194  0.00  0.00    +0.000 C 
BRANCH  18  19
ATOM     19  C   UNL     1      44.099   5.054  10.843  0.00  0.00    +0.000 C 
BRANCH  19  20
ATOM     20  O   UNL     1      43.652   4.032   9.946  0.00  0.00    +0.000 OA
BRANCH  20  21
ATOM     21  C   UNL     1      44.619   3.431   9.188  0.00  0.00    +0.000 A 
ATOM     22  C   UNL     1      44.908   2.065   9.190  0.00  0.00    +0.000 A 
ATOM     23  C   UNL     1      45.895   1.557   8.339  0.00  0.00    +0.000 A 
ATOM     24  C   UNL     1      46.595   2.406   7.474  0.00  0.00    +0.000 A 
ATOM     25  C   UNL     1      46.311   3.775   7.478  0.00  0.00    +0.000 A 
ATOM     26  C   UNL     1      45.319   4.278   8.327  0.00  0.00    +0.000 A 
BRANCH  24  27
ATOM     27  C   UNL     1      47.627   1.801   6.588  0.00  0.00    +0.000 C 
ATOM     28  N   UNL     1      48.746   2.539   6.330  0.00  0.00    +0.000 N 
ATOM     29  O   UNL     1      47.468   0.704   6.070  0.00  0.00    +0.000 OA
ATOM     30  H   UNL     1      48.807   3.526   6.531  0.00  0.00    +0.000 HD
ATOM     31  H   UNL     1      49.373   2.161   5.630  0.00  0.00    +0.000 HD
ENDBRANCH  24  27
ENDBRANCH  20  21
ENDBRANCH  19  20
ENDBRANCH  18  19
ENDBRANCH   1  18
TORSDOF 8
ENDMDL
MODEL 4
REMARK VINA RESULT:    -7.807      3.719      7.436
REMARK INTER + INTRA:         -12.926
REMARK INTER:                 -10.774
REMARK INTRA:                  -2.152
REMARK UNBOUND:                -1.468
REMARK  Name = 
REMARK  9 active torsions:
REMARK  status: ('A' for Active; 'I' for Inactive)
REMARK    1  A    between atoms: C_1  and  C_2
REMARK    2  A    between atoms: C_2  and  C_3
REMARK    3  A    between atoms: C_2  and  C_14
REMARK    4  A    between atoms: C_3  and  O_4
REMARK    5  A    between atoms: O_4  and  C_5
REMARK    6  A    between atoms: C_8  and  C_9
REMARK    7  A    between atoms: C_18  and  C_19
REMARK    8  A    between atoms: C_24  and  O_25
REMARK    9  A    between atoms: O_25  and  C_26
REMARK                            x       y       z     vdW  Elec       q    Type
REMARK                         _______ _______ _______ _____ _____    ______ ____
ROOT
ATOM      1  C   UNL     1      47.416   7.771  11.785  0.00  0.00    +0.000 A 
ATOM      2  C   UNL     1      46.412   8.663  12.179  0.00  0.00    +0.000 A 
ATOM      3  C   UNL     1      45.071   8.330  12.004  0.00  0.00    +0.000 A 
ATOM      4  C   UNL     1      44.719   7.101  11.436  0.00  0.00    +0.000 A 
ATOM      5  C   UNL     1      45.693   6.190  10.986  0.00  0.00    +0.000 A 
ATOM      6  C   UNL     1      47.036   6.566  11.167  0.00  0.00    +0.000 A 
ENDROOT
BRANCH   5   7
ATOM      7  C   UNL     1      45.335   4.938  10.256  0.00  0.00    +0.000 A 
ATOM      8  C   UNL     1      45.548   4.886   8.859  0.00  0.00    +0.000 A 
ATOM      9  C   UNL     1      45.331   3.725   8.117  0.00  0.00    +0.000 A 
ATOM     10  C   UNL     1      44.919   2.566   8.754  0.00  0.00    +0.000 A 
ATOM     11  C   UNL     1      44.688   2.578  10.127  0.00  0.00    +0.000 A 
ATOM     12  C   UNL     1      44.849   3.755  10.878  0.00  0.00    +0.000 A 
BRANCH  12  13
ATOM     13  O   UNL     1      44.579   3.803  12.226  0.00  0.00    +0.000 OA
BRANCH  13  14
ATOM     14  C   UNL     1      43.215   3.944  12.596  0.00  0.00    +0.000 C 
ATOM     15  F   UNL     1      43.106   4.921  13.531  0.00  0.00    +0.000 F 
ATOM     16  F   UNL     1      42.537   4.383  11.504  0.00  0.00    +0.000 F 
ENDBRANCH  13  14
ENDBRANCH  12  13
ENDBRANCH   5   7
BRANCH   1  18
ATOM     17  C   UNL     1      49.097   9.640  12.239  0.00  0.00    +0.000 C 
ATOM     18  C   UNL     1      48.881   8.145  11.960  0.00  0.00    +0.000 C 
BRANCH  18  19
ATOM     19  C   UNL     1      49.515   7.257  13.047  0.00  0.00    +0.000 C 
BRANCH  19  20
ATOM     20  O   UNL     1      49.016   7.634  14.334  0.00  0.00    +0.000 OA
BRANCH  20  21
ATOM     21  C   UNL     1      48.734   6.607  15.194  0.00  0.00    +0.000 A 
ATOM     22  C   UNL     1      49.315   6.429  16.451  0.00  0.00    +0.000 A 
ATOM     23  C   UNL     1      48.916   5.361  17.262  0.00  0.00    +0.000 A 
ATOM     24  C   UNL     1      47.930   4.468  16.828  0.00  0.00    +0.000 A 
ATOM     25  C   UNL     1      47.354   4.641  15.566  0.00  0.00    +0.000 A 
ATOM     26  C   UNL     1      47.752   5.715  14.760  0.00  0.00    +0.000 A 
BRANCH  24  27
ATOM     27  C   UNL     1      47.545   3.358  17.742  0.00  0.00    +0.000 C 
ATOM     28  N   UNL     1      48.306   3.170  18.860  0.00  0.00    +0.000 N 
ATOM     29  O   UNL     1      46.611   2.609  17.488  0.00  0.00    +0.000 OA
ATOM     30  H   UNL     1      49.212   3.597  18.981  0.00  0.00    +0.000 HD
ATOM     31  H   UNL     1      48.102   2.337  19.399  0.00  0.00    +0.000 HD
ENDBRANCH  24  27
ENDBRANCH  20  21
ENDBRANCH  19  20
ENDBRANCH  18  19
ENDBRANCH   1  18
TORSDOF 8
ENDMDL
MODEL 5
REMARK VINA RESULT:    -7.746      2.574      3.727
REMARK INTER + INTRA:         -12.837
REMARK INTER:                 -11.315
REMARK INTRA:                  -1.522
REMARK UNBOUND:                -1.468
REMARK  Name = 
REMARK  9 active torsions:
REMARK  status: ('A' for Active; 'I' for Inactive)
REMARK    1  A    between atoms: C_1  and  C_2
REMARK    2  A    between atoms: C_2  and  C_3
REMARK    3  A    between atoms: C_2  and  C_14
REMARK    4  A    between atoms: C_3  and  O_4
REMARK    5  A    between atoms: O_4  and  C_5
REMARK    6  A    between atoms: C_8  and  C_9
REMARK    7  A    between atoms: C_18  and  C_19
REMARK    8  A    between atoms: C_24  and  O_25
REMARK    9  A    between atoms: O_25  and  C_26
REMARK                            x       y       z     vdW  Elec       q    Type
REMARK                         _______ _______ _______ _____ _____    ______ ____
ROOT
ATOM      1  C   UNL     1      45.829   6.195  12.290  0.00  0.00    +0.000 A 
ATOM      2  C   UNL     1      45.070   7.368  12.221  0.00  0.00    +0.000 A 
ATOM      3  C   UNL     1      45.545   8.544  12.796  0.00  0.00    +0.000 A 
ATOM      4  C   UNL     1      46.785   8.561  13.443  0.00  0.00    +0.000 A 
ATOM      5  C   UNL     1      47.564   7.396  13.575  0.00  0.00    +0.000 A 
ATOM      6  C   UNL     1      47.047   6.225  12.994  0.00  0.00    +0.000 A 
ENDROOT
BRANCH   5   7
ATOM      7  C   UNL     1      48.822   7.367  14.380  0.00  0.00    +0.000 A 
ATOM      8  C   UNL     1      48.810   6.703  15.627  0.00  0.00    +0.000 A 
ATOM      9  C   UNL     1      49.963   6.546  16.397  0.00  0.00    +0.000 A 
ATOM     10  C   UNL     1      51.175   7.025  15.928  0.00  0.00    +0.000 A 
ATOM     11  C   UNL     1      51.228   7.696  14.708  0.00  0.00    +0.000 A 
ATOM     12  C   UNL     1      50.064   7.909  13.949  0.00  0.00    +0.000 A 
BRANCH  12  13
ATOM     13  O   UNL     1      50.084   8.611  12.766  0.00  0.00    +0.000 OA
BRANCH  13  14
ATOM     14  C   UNL     1      50.442   7.883  11.601  0.00  0.00    +0.000 C 
ATOM     15  F   UNL     1      49.321   7.602  10.890  0.00  0.00    +0.000 F 
ATOM     16  F   UNL     1      51.194   8.701  10.821  0.00  0.00    +0.000 F 
ENDBRANCH  13  14
ENDBRANCH  12  13
ENDBRANCH   5   7
BRANCH   1  18
ATOM     17  C   UNL     1      45.088   3.786  12.707  0.00  0.00    +0.000 C 
ATOM     18  C   UNL     1      45.300   4.906  11.677  0.00  0.00    +0.000 C 
BRANCH  18  19
ATOM     19  C   UNL     1      44.021   5.202  10.874  0.00  0.00    +0.000 C 
BRANCH  19  20
ATOM     20  O   UNL     1      43.674   4.065  10.076  0.00  0.00    +0.000 OA
BRANCH  20  21
ATOM     21  C   UNL     1      44.644   3.607   9.226  0.00  0.00    +0.000 A 
ATOM     22  C   UNL     1      45.419   4.408   8.385  0.00  0.00    +0.000 A 
ATOM     23  C   UNL     1      46.413   3.829   7.589  0.00  0.00    +0.000 A 
ATOM     24  C   UNL     1      46.646   2.450   7.631  0.00  0.00    +0.000 A 
ATOM     25  C   UNL     1      45.863   1.647   8.466  0.00  0.00    +0.000 A 
ATOM     26  C   UNL     1      44.874   2.231   9.266  0.00  0.00    +0.000 A 
BRANCH  24  27
ATOM     27  C   UNL     1      47.723   1.899   6.765  0.00  0.00    +0.000 C 
ATOM     28  N   UNL     1      48.576   2.788   6.175  0.00  0.00    +0.000 N 
ATOM     29  O   UNL     1      47.824   0.698   6.547  0.00  0.00    +0.000 OA
ATOM     30  H   UNL     1      48.384   3.778   6.129  0.00  0.00    +0.000 HD
ATOM     31  H   UNL     1      49.219   2.401   5.496  0.00  0.00    +0.000 HD
ENDBRANCH  24  27
ENDBRANCH  20  21
ENDBRANCH  19  20
ENDBRANCH  18  19
ENDBRANCH   1  18
TORSDOF 8
ENDMDL
MODEL 6
REMARK VINA RESULT:    -7.614      2.543      3.500
REMARK INTER + INTRA:         -12.642
REMARK INTER:                 -10.950
REMARK INTRA:                  -1.693
REMARK UNBOUND:                -1.468
REMARK  Name = 
REMARK  9 active torsions:
REMARK  status: ('A' for Active; 'I' for Inactive)
REMARK    1  A    between atoms: C_1  and  C_2
REMARK    2  A    between atoms: C_2  and  C_3
REMARK    3  A    between atoms: C_2  and  C_14
REMARK    4  A    between atoms: C_3  and  O_4
REMARK    5  A    between atoms: O_4  and  C_5
REMARK    6  A    between atoms: C_8  and  C_9
REMARK    7  A    between atoms: C_18  and  C_19
REMARK    8  A    between atoms: C_24  and  O_25
REMARK    9  A    between atoms: O_25  and  C_26
REMARK                            x       y       z     vdW  Elec       q    Type
REMARK                         _______ _______ _______ _____ _____    ______ ____
ROOT
ATOM      1  C   UNL     1      45.788   6.261  11.934  0.00  0.00    +0.000 A 
ATOM      2  C   UNL     1      44.939   7.373  11.945  0.00  0.00    +0.000 A 
ATOM      3  C   UNL     1      45.465   8.656  12.082  0.00  0.00    +0.000 A 
ATOM      4  C   UNL     1      46.847   8.841  12.205  0.00  0.00    +0.000 A 
ATOM      5  C   UNL     1      47.736   7.750  12.242  0.00  0.00    +0.000 A 
ATOM      6  C   UNL     1      47.168   6.471  12.114  0.00  0.00    +0.000 A 
ENDROOT
BRANCH   5   7
ATOM      7  C   UNL     1      49.196   7.923  12.510  0.00  0.00    +0.000 A 
ATOM      8  C   UNL     1      50.073   8.049  11.409  0.00  0.00    +0.000 A 
ATOM      9  C   UNL     1      51.435   8.309  11.570  0.00  0.00    +0.000 A 
ATOM     10  C   UNL     1      51.958   8.479  12.841  0.00  0.00    +0.000 A 
ATOM     11  C   UNL     1      51.128   8.351  13.953  0.00  0.00    +0.000 A 
ATOM     12  C   UNL     1      49.767   8.035  13.807  0.00  0.00    +0.000 A 
BRANCH  12  13
ATOM     13  O   UNL     1      48.940   7.855  14.891  0.00  0.00    +0.000 OA
BRANCH  13  14
ATOM     14  C   UNL     1      49.036   6.609  15.564  0.00  0.00    +0.000 C 
ATOM     15  F   UNL     1      49.040   6.825  16.903  0.00  0.00    +0.000 F 
ATOM     16  F   UNL     1      47.905   5.908  15.294  0.00  0.00    +0.000 F 
ENDBRANCH  13  14
ENDBRANCH  12  13
ENDBRANCH   5   7
BRANCH   1  18
ATOM     17  C   UNL     1      45.158   4.098  13.136  0.00  0.00    +0.000 C 
ATOM     18  C   UNL     1      45.210   4.860  11.803  0.00  0.00    +0.000 C 
BRANCH  18  19
ATOM     19  C   UNL     1      43.830   4.931  11.124  0.00  0.00    +0.000 C 
BRANCH  19  20
ATOM     20  O   UNL     1      43.581   3.721  10.401  0.00  0.00    +0.000 OA
BRANCH  20  21
ATOM     21  C   UNL     1      44.476   3.415   9.412  0.00  0.00    +0.000 A 
ATOM     22  C   UNL     1      45.051   4.337   8.535  0.00  0.00    +0.000 A 
ATOM     23  C   UNL     1      45.988   3.911   7.588  0.00  0.00    +0.000 A 
ATOM     24  C   UNL     1      46.364   2.566   7.513  0.00  0.00    +0.000 A 
ATOM     25  C   UNL     1      45.782   1.641   8.385  0.00  0.00    +0.000 A 
ATOM     26  C   UNL     1      44.849   2.072   9.336  0.00  0.00    +0.000 A 
BRANCH  24  27
ATOM     27  C   UNL     1      47.372   2.180   6.489  0.00  0.00    +0.000 C 
ATOM     28  N   UNL     1      47.085   2.461   5.184  0.00  0.00    +0.000 N 
ATOM     29  O   UNL     1      48.404   1.593   6.789  0.00  0.00    +0.000 OA
ATOM     30  H   UNL     1      46.159   2.716   4.872  0.00  0.00    +0.000 HD
ATOM     31  H   UNL     1      47.725   2.081   4.498  0.00  0.00    +0.000 HD
ENDBRANCH  24  27
ENDBRANCH  20  21
ENDBRANCH  19  20
ENDBRANCH  18  19
ENDBRANCH   1  18
TORSDOF 8
ENDMDL
MODEL 7
REMARK VINA RESULT:    -7.225      3.799      7.567
REMARK INTER + INTRA:         -12.071
REMARK INTER:                 -10.421
REMARK INTRA:                  -1.650
REMARK UNBOUND:                -1.468
REMARK  Name = 
REMARK  9 active torsions:
REMARK  status: ('A' for Active; 'I' for Inactive)
REMARK    1  A    between atoms: C_1  and  C_2
REMARK    2  A    between atoms: C_2  and  C_3
REMARK    3  A    between atoms: C_2  and  C_14
REMARK    4  A    between atoms: C_3  and  O_4
REMARK    5  A    between atoms: O_4  and  C_5
REMARK    6  A    between atoms: C_8  and  C_9
REMARK    7  A    between atoms: C_18  and  C_19
REMARK    8  A    between atoms: C_24  and  O_25
REMARK    9  A    between atoms: O_25  and  C_26
REMARK                            x       y       z     vdW  Elec       q    Type
REMARK                         _______ _______ _______ _____ _____    ______ ____
ROOT
ATOM      1  C   UNL     1      47.416   8.113  11.833  0.00  0.00    +0.000 A 
ATOM      2  C   UNL     1      46.592   9.244  11.812  0.00  0.00    +0.000 A 
ATOM      3  C   UNL     1      45.207   9.100  11.807  0.00  0.00    +0.000 A 
ATOM      4  C   UNL     1      44.630   7.826  11.826  0.00  0.00    +0.000 A 
ATOM      5  C   UNL     1      45.418   6.659  11.804  0.00  0.00    +0.000 A 
ATOM      6  C   UNL     1      46.812   6.843  11.796  0.00  0.00    +0.000 A 
ENDROOT
BRANCH   5   7
ATOM      7  C   UNL     1      44.819   5.296  11.686  0.00  0.00    +0.000 A 
ATOM      8  C   UNL     1      44.207   4.727  12.826  0.00  0.00    +0.000 A 
ATOM      9  C   UNL     1      43.541   3.502  12.778  0.00  0.00    +0.000 A 
ATOM     10  C   UNL     1      43.440   2.819  11.577  0.00  0.00    +0.000 A 
ATOM     11  C   UNL     1      44.038   3.341  10.433  0.00  0.00    +0.000 A 
ATOM     12  C   UNL     1      44.759   4.547  10.479  0.00  0.00    +0.000 A 
BRANCH  12  13
ATOM     13  O   UNL     1      45.400   5.056   9.373  0.00  0.00    +0.000 OA
BRANCH  13  14
ATOM     14  C   UNL     1      45.852   4.115   8.411  0.00  0.00    +0.000 C 
ATOM     15  F   UNL     1      44.879   3.925   7.484  0.00  0.00    +0.000 F 
ATOM     16  F   UNL     1      46.901   4.672   7.754  0.00  0.00    +0.000 F 
ENDBRANCH  13  14
ENDBRANCH  12  13
ENDBRANCH   5   7
BRANCH   1  18
ATOM     17  C   UNL     1      49.392   9.709  12.102  0.00  0.00    +0.000 C 
ATOM     18  C   UNL     1      48.930   8.271  11.821  0.00  0.00    +0.000 C 
BRANCH  18  19
ATOM     19  C   UNL     1      49.564   7.259  12.792  0.00  0.00    +0.000 C 
BRANCH  19  20
ATOM     20  O   UNL     1      49.372   7.695  14.142  0.00  0.00    +0.000 OA
BRANCH  20  21
ATOM     21  C   UNL     1      48.977   6.736  15.034  0.00  0.00    +0.000 A 
ATOM     22  C   UNL     1      49.458   6.604  16.338  0.00  0.00    +0.000 A 
ATOM     23  C   UNL     1      48.947   5.606  17.175  0.00  0.00    +0.000 A 
ATOM     24  C   UNL     1      47.948   4.738  16.720  0.00  0.00    +0.000 A 
ATOM     25  C   UNL     1      47.473   4.865  15.411  0.00  0.00    +0.000 A 
ATOM     26  C   UNL     1      47.982   5.868  14.579  0.00  0.00    +0.000 A 
BRANCH  24  27
ATOM     27  C   UNL     1      47.442   3.704  17.663  0.00  0.00    +0.000 C 
ATOM     28  N   UNL     1      48.090   3.568  18.857  0.00  0.00    +0.000 N 
ATOM     29  O   UNL     1      46.508   2.968  17.371  0.00  0.00    +0.000 OA
ATOM     30  H   UNL     1      48.996   3.974  19.034  0.00  0.00    +0.000 HD
ATOM     31  H   UNL     1      47.807   2.779  19.426  0.00  0.00    +0.000 HD
ENDBRANCH  24  27
ENDBRANCH  20  21
ENDBRANCH  19  20
ENDBRANCH  18  19
ENDBRANCH   1  18
TORSDOF 8
ENDMDL
MODEL 8
REMARK VINA RESULT:    -7.041      3.007      4.564
REMARK INTER + INTRA:         -11.802
REMARK INTER:                 -10.494
REMARK INTRA:                  -1.307
REMARK UNBOUND:                -1.468
REMARK  Name = 
REMARK  9 active torsions:
REMARK  status: ('A' for Active; 'I' for Inactive)
REMARK    1  A    between atoms: C_1  and  C_2
REMARK    2  A    between atoms: C_2  and  C_3
REMARK    3  A    between atoms: C_2  and  C_14
REMARK    4  A    between atoms: C_3  and  O_4
REMARK    5  A    between atoms: O_4  and  C_5
REMARK    6  A    between atoms: C_8  and  C_9
REMARK    7  A    between atoms: C_18  and  C_19
REMARK    8  A    between atoms: C_24  and  O_25
REMARK    9  A    between atoms: O_25  and  C_26
REMARK                            x       y       z     vdW  Elec       q    Type
REMARK                         _______ _______ _______ _____ _____    ______ ____
ROOT
ATOM      1  C   UNL     1      44.433   3.391  10.275  0.00  0.00    +0.000 A 
ATOM      2  C   UNL     1      43.632   2.682  11.177  0.00  0.00    +0.000 A 
ATOM      3  C   UNL     1      43.461   3.149  12.479  0.00  0.00    +0.000 A 
ATOM      4  C   UNL     1      44.085   4.331  12.891  0.00  0.00    +0.000 A 
ATOM      5  C   UNL     1      44.934   5.055  12.032  0.00  0.00    +0.000 A 
ATOM      6  C   UNL     1      45.094   4.546  10.731  0.00  0.00    +0.000 A 
ENDROOT
BRANCH   5   7
ATOM      7  C   UNL     1      45.714   6.241  12.498  0.00  0.00    +0.000 A 
ATOM      8  C   UNL     1      45.162   7.528  12.309  0.00  0.00    +0.000 A 
ATOM      9  C   UNL     1      45.779   8.680  12.799  0.00  0.00    +0.000 A 
ATOM     10  C   UNL     1      46.956   8.577  13.521  0.00  0.00    +0.000 A 
ATOM     11  C   UNL     1      47.538   7.328  13.720  0.00  0.00    +0.000 A 
ATOM     12  C   UNL     1      46.957   6.165  13.184  0.00  0.00    +0.000 A 
BRANCH  12  13
ATOM     13  O   UNL     1      47.540   4.927  13.325  0.00  0.00    +0.000 OA
BRANCH  13  14
ATOM     14  C   UNL     1      47.445   4.323  14.606  0.00  0.00    +0.000 C 
ATOM     15  F   UNL     1      46.266   4.674  15.178  0.00  0.00    +0.000 F 
ATOM     16  F   UNL     1      47.394   2.978  14.424  0.00  0.00    +0.000 F 
ENDBRANCH  13  14
ENDBRANCH  12  13
ENDBRANCH   5   7
BRANCH   1  18
ATOM     17  C   UNL     1      44.672   3.983   7.802  0.00  0.00    +0.000 C 
ATOM     18  C   UNL     1      44.634   2.869   8.859  0.00  0.00    +0.000 C 
BRANCH  18  19
ATOM     19  C   UNL     1      45.891   1.982   8.809  0.00  0.00    +0.000 C 
BRANCH  19  20
ATOM     20  O   UNL     1      46.805   2.489   7.831  0.00  0.00    +0.000 OA
BRANCH  20  21
ATOM     21  C   UNL     1      46.884   1.787   6.659  0.00  0.00    +0.000 A 
ATOM     22  C   UNL     1      47.054   0.405   6.559  0.00  0.00    +0.000 A 
ATOM     23  C   UNL     1      47.078  -0.208   5.302  0.00  0.00    +0.000 A 
ATOM     24  C   UNL     1      46.925   0.551   4.137  0.00  0.00    +0.000 A 
ATOM     25  C   UNL     1      46.764   1.936   4.236  0.00  0.00    +0.000 A 
ATOM     26  C   UNL     1      46.734   2.545   5.496  0.00  0.00    +0.000 A 
BRANCH  24  27
ATOM     27  C   UNL     1      46.952  -0.164   2.832  0.00  0.00    +0.000 C 
ATOM     28  N   UNL     1      45.753  -0.458   2.249  0.00  0.00    +0.000 N 
ATOM     29  O   UNL     1      48.003  -0.518   2.312  0.00  0.00    +0.000 OA
ATOM     30  H   UNL     1      44.877  -0.407   2.748  0.00  0.00    +0.000 HD
ATOM     31  H   UNL     1      45.793  -1.050   1.429  0.00  0.00    +0.000 HD
ENDBRANCH  24  27
ENDBRANCH  20  21
ENDBRANCH  19  20
ENDBRANCH  18  19
ENDBRANCH   1  18
TORSDOF 8
ENDMDL
MODEL 9
REMARK VINA RESULT:    -7.020      4.865      7.311
REMARK INTER + INTRA:         -11.771
REMARK INTER:                  -9.689
REMARK INTRA:                  -2.082
REMARK UNBOUND:                -1.468
REMARK  Name = 
REMARK  9 active torsions:
REMARK  status: ('A' for Active; 'I' for Inactive)
REMARK    1  A    between atoms: C_1  and  C_2
REMARK    2  A    between atoms: C_2  and  C_3
REMARK    3  A    between atoms: C_2  and  C_14
REMARK    4  A    between atoms: C_3  and  O_4
REMARK    5  A    between atoms: O_4  and  C_5
REMARK    6  A    between atoms: C_8  and  C_9
REMARK    7  A    between atoms: C_18  and  C_19
REMARK    8  A    between atoms: C_24  and  O_25
REMARK    9  A    between atoms: O_25  and  C_26
REMARK                            x       y       z     vdW  Elec       q    Type
REMARK                         _______ _______ _______ _____ _____    ______ ____
ROOT
ATOM      1  C   UNL     1      49.095   7.686  16.112  0.00  0.00    +0.000 A 
ATOM      2  C   UNL     1      48.451   8.167  17.258  0.00  0.00    +0.000 A 
ATOM      3  C   UNL     1      48.526   7.456  18.454  0.00  0.00    +0.000 A 
ATOM      4  C   UNL     1      49.248   6.259  18.518  0.00  0.00    +0.000 A 
ATOM      5  C   UNL     1      49.875   5.715  17.382  0.00  0.00    +0.000 A 
ATOM      6  C   UNL     1      49.767   6.452  16.190  0.00  0.00    +0.000 A 
ENDROOT
BRANCH   5   7
ATOM      7  C   UNL     1      50.531   4.373  17.401  0.00  0.00    +0.000 A 
ATOM      8  C   UNL     1      51.836   4.268  17.934  0.00  0.00    +0.000 A 
ATOM      9  C   UNL     1      52.484   3.040  18.078  0.00  0.00    +0.000 A 
ATOM     10  C   UNL     1      51.833   1.872  17.720  0.00  0.00    +0.000 A 
ATOM     11  C   UNL     1      50.549   1.933  17.181  0.00  0.00    +0.000 A 
ATOM     12  C   UNL     1      49.908   3.167  16.979  0.00  0.00    +0.000 A 
BRANCH  12  13
ATOM     13  O   UNL     1      48.661   3.255  16.404  0.00  0.00    +0.000 OA
BRANCH  13  14
ATOM     14  C   UNL     1      47.549   3.103  17.272  0.00  0.00    +0.000 C 
ATOM     15  F   UNL     1      47.989   3.047  18.554  0.00  0.00    +0.000 F 
ATOM     16  F   UNL     1      46.796   4.230  17.176  0.00  0.00    +0.000 F 
ENDBRANCH  13  14
ENDBRANCH  12  13
ENDBRANCH   5   7
BRANCH   1  18
ATOM     17  C   UNL     1      50.275   8.374  13.954  0.00  0.00    +0.000 C 
ATOM     18  C   UNL     1      48.996   8.454  14.802  0.00  0.00    +0.000 C 
BRANCH  18  19
ATOM     19  C   UNL     1      47.754   7.987  14.021  0.00  0.00    +0.000 C 
BRANCH  19  20
ATOM     20  O   UNL     1      48.126   6.980  13.073  0.00  0.00    +0.000 OA
BRANCH  20  21
ATOM     21  C   UNL     1      47.126   6.140  12.664  0.00  0.00    +0.000 A 
ATOM     22  C   UNL     1      46.353   6.311  11.515  0.00  0.00    +0.000 A 
ATOM     23  C   UNL     1      45.384   5.361  11.175  0.00  0.00    +0.000 A 
ATOM     24  C   UNL     1      45.185   4.231  11.975  0.00  0.00    +0.000 A 
ATOM     25  C   UNL     1      45.953   4.064  13.132  0.00  0.00    +0.000 A 
ATOM     26  C   UNL     1      46.926   5.014  13.464  0.00  0.00    +0.000 A 
BRANCH  24  27
ATOM     27  C   UNL     1      44.144   3.254  11.554  0.00  0.00    +0.000 C 
ATOM     28  N   UNL     1      43.722   2.344  12.480  0.00  0.00    +0.000 N 
ATOM     29  O   UNL     1      43.706   3.231  10.411  0.00  0.00    +0.000 OA
ATOM     30  H   UNL     1      44.220   2.171  13.341  0.00  0.00    +0.000 HD
ATOM     31  H   UNL     1      43.108   1.615  12.137  0.00  0.00    +0.000 HD
ENDBRANCH  24  27
ENDBRANCH  20  21
ENDBRANCH  19  20
ENDBRANCH  18  19
ENDBRANCH   1  18
TORSDOF 8
ENDMDL
