MODEL 1
REMARK VINA RESULT:    -7.576      0.000      0.000
REMARK INTER + INTRA:         -11.697
REMARK INTER:                 -11.118
REMARK INTRA:                  -0.579
REMARK UNBOUND:                -0.579
REMARK  Name = 
REMARK  10 active torsions:
REMARK  status: ('A' for Active; 'I' for Inactive)
REMARK    1  A    between atoms: C_1  and  C_2
REMARK    2  A    between atoms: C_2  and  C_3
REMARK    3  A    between atoms: C_2  and  C_4
REMARK    4  A    between atoms: C_5  and  C_6
REMARK    5  A    between atoms: C_6  and  O_7
REMARK    6  A    between atoms: O_7  and  C_8
REMARK    7  A    between atoms: C_12  and  C_13
REMARK    8  A    between atoms: C_13  and  O_14
REMARK    9  A    between atoms: O_14  and  C_15
REMARK   10  A    between atoms: C_18  and  C_19
REMARK                            x       y       z     vdW  Elec       q    Type
REMARK                         _______ _______ _______ _____ _____    ______ ____
ROOT
ATOM      1  C   UNL     1      45.827   3.714   7.911  0.00  0.00    +0.000 A 
ATOM      2  C   UNL     1      45.243   2.494   8.255  0.00  0.00    +0.000 A 
ATOM      3  C   UNL     1      44.516   2.378   9.442  0.00  0.00    +0.000 A 
ATOM      4  C   UNL     1      44.403   3.468  10.306  0.00  0.00    +0.000 A 
ATOM      5  C   UNL     1      45.044   4.671  10.003  0.00  0.00    +0.000 A 
ATOM      6  C   UNL     1      45.745   4.786   8.797  0.00  0.00    +0.000 A 
ENDROOT
BRANCH   1   7
ATOM      7  O   UNL     1      46.461   3.779   6.697  0.00  0.00    +0.000 OA
BRANCH   7   8
ATOM      8  C   UNL     1      47.507   2.814   6.537  0.00  0.00    +0.000 C 
BRANCH   8  10
ATOM      9  C   UNL     1      46.909   1.035   4.877  0.00  0.00    +0.000 C 
ATOM     10  C   UNL     1      47.421   2.240   5.160  0.00  0.00    +0.000 C 
BRANCH   9  12
ATOM     11  C   UNL     1      46.872  -1.068   3.540  0.00  0.00    +0.000 C 
ATOM     12  C   UNL     1      46.861   0.459   3.484  0.00  0.00    +0.000 C 
ATOM     13  C   UNL     1      45.618   0.957   2.750  0.00  0.00    +0.000 C 
ENDBRANCH   9  12
ENDBRANCH   8  10
ENDBRANCH   7   8
ENDBRANCH   1   7
BRANCH   5  14
ATOM     14  C   UNL     1      45.006   5.848  10.942  0.00  0.00    +0.000 C 
BRANCH  14  15
ATOM     15  O   UNL     1      46.323   6.120  11.414  0.00  0.00    +0.000 OA
BRANCH  15  16
ATOM     16  C   UNL     1      46.622   5.623  12.645  0.00  0.00    +0.000 A 
ATOM     17  C   UNL     1      46.001   4.579  13.306  0.00  0.00    +0.000 A 
ATOM     18  N   UNL     1      46.355   4.137  14.530  0.00  0.00    +0.000 NA
ATOM     19  C   UNL     1      47.389   4.794  15.109  0.00  0.00    +0.000 A 
ATOM     20  N   UNL     1      48.068   5.822  14.568  0.00  0.00    +0.000 NA
ATOM     21  C   UNL     1      47.661   6.210  13.340  0.00  0.00    +0.000 A 
BRANCH  19  22
ATOM     22  C   UNL     1      47.806   4.303  16.473  0.00  0.00    +0.000 C 
ATOM     23  N   UNL     1      47.058   4.761  17.532  0.00  0.00    +0.000 N 
ATOM     24  O   UNL     1      48.750   3.540  16.666  0.00  0.00    +0.000 OA
ATOM     25  H   UNL     1      46.280   5.392  17.371  0.00  0.00    +0.000 HD
ATOM     26  H   UNL     1      47.296   4.466  18.467  0.00  0.00    +0.000 HD
ENDBRANCH  19  22
ENDBRANCH  15  16
ENDBRANCH  14  15
ENDBRANCH   5  14
TORSDOF 8
ENDMDL
MODEL 2
REMARK VINA RESULT:    -7.522      1.894      2.385
REMARK INTER + INTRA:         -11.619
REMARK INTER:                 -10.947
REMARK INTRA:                  -0.672
REMARK UNBOUND:                -0.579
REMARK  Name = 
REMARK  10 active torsions:
REMARK  status: ('A' for Active; 'I' for Inactive)
REMARK    1  A    between atoms: C_1  and  C_2
REMARK    2  A    between atoms: C_2  and  C_3
REMARK    3  A    between atoms: C_2  and  C_4
REMARK    4  A    between atoms: C_5  and  C_6
REMARK    5  A    between atoms: C_6  and  O_7
REMARK    6  A    between atoms: O_7  and  C_8
REMARK    7  A    between atoms: C_12  and  C_13
REMARK    8  A    between atoms: C_13  and  O_14
REMARK    9  A    between atoms: O_14  and  C_15
REMARK   10  A    between atoms: C_18  and  C_19
REMARK                            x       y       z     vdW  Elec       q    Type
REMARK                         _______ _______ _______ _____ _____    ______ ____
ROOT
ATOM      1  C   UNL     1      45.851   2.131   8.381  0.00  0.00    +0.000 A 
ATOM      2  C   UNL     1      46.051   3.346   7.726  0.00  0.00    +0.000 A 
ATOM      3  C   UNL     1      45.499   4.520   8.247  0.00  0.00    +0.000 A 
ATOM      4  C   UNL     1      44.714   4.475   9.400  0.00  0.00    +0.000 A 
ATOM      5  C   UNL     1      44.451   3.252  10.021  0.00  0.00    +0.000 A 
ATOM      6  C   UNL     1      45.033   2.087   9.509  0.00  0.00    +0.000 A 
ENDROOT
BRANCH   1   7
ATOM      7  O   UNL     1      46.483   1.032   7.858  0.00  0.00    +0.000 OA
BRANCH   7   8
ATOM      8  C   UNL     1      47.548   1.350   6.957  0.00  0.00    +0.000 C 
BRANCH   8  10
ATOM      9  C   UNL     1      47.010   1.154   4.517  0.00  0.00    +0.000 C 
ATOM     10  C   UNL     1      47.343   0.590   5.686  0.00  0.00    +0.000 C 
BRANCH   9  12
ATOM     11  C   UNL     1      46.747  -1.131   3.556  0.00  0.00    +0.000 C 
ATOM     12  C   UNL     1      46.776   0.367   3.253  0.00  0.00    +0.000 C 
ATOM     13  C   UNL     1      45.469   0.804   2.594  0.00  0.00    +0.000 C 
ENDBRANCH   9  12
ENDBRANCH   8  10
ENDBRANCH   7   8
ENDBRANCH   1   7
BRANCH   5  14
ATOM     14  C   UNL     1      43.552   3.151  11.225  0.00  0.00    +0.000 C 
BRANCH  14  15
ATOM     15  O   UNL     1      44.333   2.844  12.377  0.00  0.00    +0.000 OA
BRANCH  15  16
ATOM     16  C   UNL     1      45.166   3.832  12.804  0.00  0.00    +0.000 A 
ATOM     17  C   UNL     1      44.884   5.181  12.921  0.00  0.00    +0.000 A 
ATOM     18  N   UNL     1      45.763   6.106  13.356  0.00  0.00    +0.000 NA
ATOM     19  C   UNL     1      46.990   5.634  13.684  0.00  0.00    +0.000 A 
ATOM     20  N   UNL     1      47.383   4.348  13.610  0.00  0.00    +0.000 NA
ATOM     21  C   UNL     1      46.450   3.477  13.169  0.00  0.00    +0.000 A 
BRANCH  19  22
ATOM     22  C   UNL     1      47.981   6.654  14.186  0.00  0.00    +0.000 C 
ATOM     23  N   UNL     1      47.526   7.951  14.255  0.00  0.00    +0.000 N 
ATOM     24  O   UNL     1      49.132   6.383  14.520  0.00  0.00    +0.000 OA
ATOM     25  H   UNL     1      46.576   8.173  13.978  0.00  0.00    +0.000 HD
ATOM     26  H   UNL     1      48.150   8.673  14.582  0.00  0.00    +0.000 HD
ENDBRANCH  19  22
ENDBRANCH  15  16
ENDBRANCH  14  15
ENDBRANCH   5  14
TORSDOF 8
ENDMDL
MODEL 3
REMARK VINA RESULT:    -7.515      3.532      8.988
REMARK INTER + INTRA:         -11.608
REMARK INTER:                 -10.927
REMARK INTRA:                  -0.681
REMARK UNBOUND:                -0.579
REMARK  Name = 
REMARK  10 active torsions:
REMARK  status: ('A' for Active; 'I' for Inactive)
REMARK    1  A    between atoms: C_1  and  C_2
REMARK    2  A    between atoms: C_2  and  C_3
REMARK    3  A    between atoms: C_2  and  C_4
REMARK    4  A    between atoms: C_5  and  C_6
REMARK    5  A    between atoms: C_6  and  O_7
REMARK    6  A    between atoms: O_7  and  C_8
REMARK    7  A    between atoms: C_12  and  C_13
REMARK    8  A    between atoms: C_13  and  O_14
REMARK    9  A    between atoms: O_14  and  C_15
REMARK   10  A    between atoms: C_18  and  C_19
REMARK                            x       y       z     vdW  Elec       q    Type
REMARK                         _______ _______ _______ _____ _____    ______ ____
ROOT
ATOM      1  C   UNL     1      46.636   3.936  13.695  0.00  0.00    +0.000 A 
ATOM      2  C   UNL     1      46.859   5.313  13.678  0.00  0.00    +0.000 A 
ATOM      3  C   UNL     1      46.016   6.148  12.938  0.00  0.00    +0.000 A 
ATOM      4  C   UNL     1      44.975   5.605  12.185  0.00  0.00    +0.000 A 
ATOM      5  C   UNL     1      44.790   4.221  12.141  0.00  0.00    +0.000 A 
ATOM      6  C   UNL     1      45.620   3.397  12.907  0.00  0.00    +0.000 A 
ENDROOT
BRANCH   1   7
ATOM      7  O   UNL     1      47.454   3.185  14.499  0.00  0.00    +0.000 OA
BRANCH   7   8
ATOM      8  C   UNL     1      47.356   3.509  15.890  0.00  0.00    +0.000 C 
BRANCH   8  10
ATOM      9  C   UNL     1      49.442   3.585  17.276  0.00  0.00    +0.000 C 
ATOM     10  C   UNL     1      48.512   2.890  16.608  0.00  0.00    +0.000 C 
BRANCH   9  12
ATOM     11  C   UNL     1      51.018   1.655  17.255  0.00  0.00    +0.000 C 
ATOM     12  C   UNL     1      50.620   2.946  17.967  0.00  0.00    +0.000 C 
ATOM     13  C   UNL     1      51.797   3.918  18.011  0.00  0.00    +0.000 C 
ENDBRANCH   9  12
ENDBRANCH   8  10
ENDBRANCH   7   8
ENDBRANCH   1   7
BRANCH   5  14
ATOM     14  C   UNL     1      43.723   3.592  11.285  0.00  0.00    +0.000 C 
BRANCH  14  15
ATOM     15  O   UNL     1      43.765   4.162   9.979  0.00  0.00    +0.000 OA
BRANCH  15  16
ATOM     16  C   UNL     1      44.711   3.650   9.144  0.00  0.00    +0.000 A 
ATOM     17  C   UNL     1      45.502   4.339   8.243  0.00  0.00    +0.000 A 
ATOM     18  N   UNL     1      46.424   3.762   7.446  0.00  0.00    +0.000 NA
ATOM     19  C   UNL     1      46.542   2.418   7.570  0.00  0.00    +0.000 A 
ATOM     20  N   UNL     1      45.829   1.641   8.406  0.00  0.00    +0.000 NA
ATOM     21  C   UNL     1      44.926   2.287   9.176  0.00  0.00    +0.000 A 
BRANCH  19  22
ATOM     22  C   UNL     1      47.578   1.760   6.695  0.00  0.00    +0.000 C 
ATOM     23  N   UNL     1      48.694   2.513   6.413  0.00  0.00    +0.000 N 
ATOM     24  O   UNL     1      47.468   0.623   6.241  0.00  0.00    +0.000 OA
ATOM     25  H   UNL     1      48.783   3.452   6.786  0.00  0.00    +0.000 HD
ATOM     26  H   UNL     1      49.418   2.121   5.828  0.00  0.00    +0.000 HD
ENDBRANCH  19  22
ENDBRANCH  15  16
ENDBRANCH  14  15
ENDBRANCH   5  14
TORSDOF 8
ENDMDL
MODEL 4
REMARK VINA RESULT:    -7.439      1.822      2.997
REMARK INTER + INTRA:         -11.496
REMARK INTER:                 -10.872
REMARK INTRA:                  -0.624
REMARK UNBOUND:                -0.579
REMARK  Name = 
REMARK  10 active torsions:
REMARK  status: ('A' for Active; 'I' for Inactive)
REMARK    1  A    between atoms: C_1  and  C_2
REMARK    2  A    between atoms: C_2  and  C_3
REMARK    3  A    between atoms: C_2  and  C_4
REMARK    4  A    between atoms: C_5  and  C_6
REMARK    5  A    between atoms: C_6  and  O_7
REMARK    6  A    between atoms: O_7  and  C_8
REMARK    7  A    between atoms: C_12  and  C_13
REMARK    8  A    between atoms: C_13  and  O_14
REMARK    9  A    between atoms: O_14  and  C_15
REMARK   10  A    between atoms: C_18  and  C_19
REMARK                            x       y       z     vdW  Elec       q    Type
REMARK                         _______ _______ _______ _____ _____    ______ ____
ROOT
ATOM      1  C   UNL     1      44.142   4.521  10.483  0.00  0.00    +0.000 A 
ATOM      2  C   UNL     1      43.037   4.222  11.281  0.00  0.00    +0.000 A 
ATOM      3  C   UNL     1      42.846   4.896  12.490  0.00  0.00    +0.000 A 
ATOM      4  C   UNL     1      43.778   5.840  12.923  0.00  0.00    +0.000 A 
ATOM      5  C   UNL     1      44.923   6.092  12.163  0.00  0.00    +0.000 A 
ATOM      6  C   UNL     1      45.090   5.434  10.940  0.00  0.00    +0.000 A 
ENDROOT
BRANCH   1   7
ATOM      7  O   UNL     1      44.228   3.877   9.275  0.00  0.00    +0.000 OA
BRANCH   7   8
ATOM      8  C   UNL     1      44.406   2.461   9.384  0.00  0.00    +0.000 C 
BRANCH   8  10
ATOM      9  C   UNL     1      46.219   2.896   7.709  0.00  0.00    +0.000 C 
ATOM     10  C   UNL     1      45.524   2.049   8.481  0.00  0.00    +0.000 C 
BRANCH   9  12
ATOM     11  C   UNL     1      47.548   0.950   6.896  0.00  0.00    +0.000 C 
ATOM     12  C   UNL     1      47.323   2.457   6.780  0.00  0.00    +0.000 C 
ATOM     13  C   UNL     1      46.982   2.838   5.340  0.00  0.00    +0.000 C 
ENDBRANCH   9  12
ENDBRANCH   8  10
ENDBRANCH   7   8
ENDBRANCH   1   7
BRANCH   5  14
ATOM     14  C   UNL     1      45.988   7.050  12.630  0.00  0.00    +0.000 C 
BRANCH  14  15
ATOM     15  O   UNL     1      47.247   6.383  12.655  0.00  0.00    +0.000 OA
BRANCH  15  16
ATOM     16  C   UNL     1      47.497   5.638  13.766  0.00  0.00    +0.000 A 
ATOM     17  C   UNL     1      48.098   6.051  14.941  0.00  0.00    +0.000 A 
ATOM     18  N   UNL     1      48.311   5.253  16.007  0.00  0.00    +0.000 NA
ATOM     19  C   UNL     1      47.895   3.971  15.866  0.00  0.00    +0.000 A 
ATOM     20  N   UNL     1      47.302   3.453  14.774  0.00  0.00    +0.000 NA
ATOM     21  C   UNL     1      47.118   4.310  13.747  0.00  0.00    +0.000 A 
BRANCH  19  22
ATOM     22  C   UNL     1      48.114   3.069  17.054  0.00  0.00    +0.000 C 
ATOM     23  N   UNL     1      46.981   2.669  17.724  0.00  0.00    +0.000 N 
ATOM     24  O   UNL     1      49.221   2.692  17.432  0.00  0.00    +0.000 OA
ATOM     25  H   UNL     1      46.068   2.982  17.412  0.00  0.00    +0.000 HD
ATOM     26  H   UNL     1      47.072   2.067  18.529  0.00  0.00    +0.000 HD
ENDBRANCH  19  22
ENDBRANCH  15  16
ENDBRANCH  14  15
ENDBRANCH   5  14
TORSDOF 8
ENDMDL
MODEL 5
REMARK VINA RESULT:    -7.299      3.540      9.251
REMARK INTER + INTRA:         -11.291
REMARK INTER:                 -10.529
REMARK INTRA:                  -0.762
REMARK UNBOUND:                -0.579
REMARK  Name = 
REMARK  10 active torsions:
REMARK  status: ('A' for Active; 'I' for Inactive)
REMARK    1  A    between atoms: C_1  and  C_2
REMARK    2  A    between atoms: C_2  and  C_3
REMARK    3  A    between atoms: C_2  and  C_4
REMARK    4  A    between atoms: C_5  and  C_6
REMARK    5  A    between atoms: C_6  and  O_7
REMARK    6  A    between atoms: O_7  and  C_8
REMARK    7  A    between atoms: C_12  and  C_13
REMARK    8  A    between atoms: C_13  and  O_14
REMARK    9  A    between atoms: O_14  and  C_15
REMARK   10  A    between atoms: C_18  and  C_19
REMARK                            x       y       z     vdW  Elec       q    Type
REMARK                         _______ _______ _______ _____ _____    ______ ____
ROOT
ATOM      1  C   UNL     1      46.591   4.931  13.423  0.00  0.00    +0.000 A 
ATOM      2  C   UNL     1      46.398   6.285  13.151  0.00  0.00    +0.000 A 
ATOM      3  C   UNL     1      45.277   6.700  12.427  0.00  0.00    +0.000 A 
ATOM      4  C   UNL     1      44.368   5.760  11.942  0.00  0.00    +0.000 A 
ATOM      5  C   UNL     1      44.592   4.397  12.149  0.00  0.00    +0.000 A 
ATOM      6  C   UNL     1      45.702   3.994  12.899  0.00  0.00    +0.000 A 
ENDROOT
BRANCH   1   7
ATOM      7  O   UNL     1      47.671   4.601  14.200  0.00  0.00    +0.000 OA
BRANCH   7   8
ATOM      8  C   UNL     1      47.334   3.855  15.375  0.00  0.00    +0.000 C 
BRANCH   8  10
ATOM      9  C   UNL     1      47.264   4.526  17.789  0.00  0.00    +0.000 C 
ATOM     10  C   UNL     1      47.823   4.603  16.573  0.00  0.00    +0.000 C 
BRANCH   9  12
ATOM     11  C   UNL     1      48.846   4.542  19.715  0.00  0.00    +0.000 C 
ATOM     12  C   UNL     1      47.752   5.313  18.979  0.00  0.00    +0.000 C 
ATOM     13  C   UNL     1      48.269   6.679  18.531  0.00  0.00    +0.000 C 
ENDBRANCH   9  12
ENDBRANCH   8  10
ENDBRANCH   7   8
ENDBRANCH   1   7
BRANCH   5  14
ATOM     14  C   UNL     1      43.673   3.348  11.580  0.00  0.00    +0.000 C 
BRANCH  14  15
ATOM     15  O   UNL     1      43.431   3.626  10.203  0.00  0.00    +0.000 OA
BRANCH  15  16
ATOM     16  C   UNL     1      44.428   3.271   9.347  0.00  0.00    +0.000 A 
ATOM     17  C   UNL     1      45.017   2.028   9.208  0.00  0.00    +0.000 A 
ATOM     18  N   UNL     1      46.004   1.749   8.331  0.00  0.00    +0.000 NA
ATOM     19  C   UNL     1      46.411   2.788   7.563  0.00  0.00    +0.000 A 
ATOM     20  N   UNL     1      45.917   4.040   7.609  0.00  0.00    +0.000 NA
ATOM     21  C   UNL     1      44.930   4.246   8.508  0.00  0.00    +0.000 A 
BRANCH  19  22
ATOM     22  C   UNL     1      47.504   2.489   6.569  0.00  0.00    +0.000 C 
ATOM     23  N   UNL     1      47.427   3.159   5.370  0.00  0.00    +0.000 N 
ATOM     24  O   UNL     1      48.424   1.701   6.779  0.00  0.00    +0.000 OA
ATOM     25  H   UNL     1      46.667   3.807   5.197  0.00  0.00    +0.000 HD
ATOM     26  H   UNL     1      48.133   2.993   4.668  0.00  0.00    +0.000 HD
ENDBRANCH  19  22
ENDBRANCH  15  16
ENDBRANCH  14  15
ENDBRANCH   5  14
TORSDOF 8
ENDMDL
MODEL 6
REMARK VINA RESULT:    -7.274      3.757      8.180
REMARK INTER + INTRA:         -11.255
REMARK INTER:                 -10.389
REMARK INTRA:                  -0.865
REMARK UNBOUND:                -0.579
REMARK  Name = 
REMARK  10 active torsions:
REMARK  status: ('A' for Active; 'I' for Inactive)
REMARK    1  A    between atoms: C_1  and  C_2
REMARK    2  A    between atoms: C_2  and  C_3
REMARK    3  A    between atoms: C_2  and  C_4
REMARK    4  A    between atoms: C_5  and  C_6
REMARK    5  A    between atoms: C_6  and  O_7
REMARK    6  A    between atoms: O_7  and  C_8
REMARK    7  A    between atoms: C_12  and  C_13
REMARK    8  A    between atoms: C_13  and  O_14
REMARK    9  A    between atoms: O_14  and  C_15
REMARK   10  A    between atoms: C_18  and  C_19
REMARK                            x       y       z     vdW  Elec       q    Type
REMARK                         _______ _______ _______ _____ _____    ______ ____
ROOT
ATOM      1  C   UNL     1      46.110   6.518  12.224  0.00  0.00    +0.000 A 
ATOM      2  C   UNL     1      46.895   5.961  13.234  0.00  0.00    +0.000 A 
ATOM      3  C   UNL     1      46.740   4.614  13.577  0.00  0.00    +0.000 A 
ATOM      4  C   UNL     1      45.776   3.834  12.938  0.00  0.00    +0.000 A 
ATOM      5  C   UNL     1      44.939   4.403  11.976  0.00  0.00    +0.000 A 
ATOM      6  C   UNL     1      45.121   5.743  11.619  0.00  0.00    +0.000 A 
ENDROOT
BRANCH   1   7
ATOM      7  O   UNL     1      46.365   7.822  11.887  0.00  0.00    +0.000 OA
BRANCH   7   8
ATOM      8  C   UNL     1      45.932   8.770  12.869  0.00  0.00    +0.000 C 
BRANCH   8  10
ATOM      9  C   UNL     1      44.198   9.453  11.194  0.00  0.00    +0.000 C 
ATOM     10  C   UNL     1      45.014   9.751  12.215  0.00  0.00    +0.000 C 
BRANCH   9  12
ATOM     11  C   UNL     1      43.715  10.660   9.067  0.00  0.00    +0.000 C 
ATOM     12  C   UNL     1      43.301  10.464  10.526  0.00  0.00    +0.000 C 
ATOM     13  C   UNL     1      41.844  10.016  10.613  0.00  0.00    +0.000 C 
ENDBRANCH   9  12
ENDBRANCH   8  10
ENDBRANCH   7   8
ENDBRANCH   1   7
BRANCH   5  14
ATOM     14  C   UNL     1      43.840   3.613  11.315  0.00  0.00    +0.000 C 
BRANCH  14  15
ATOM     15  O   UNL     1      43.761   3.971   9.938  0.00  0.00    +0.000 OA
BRANCH  15  16
ATOM     16  C   UNL     1      44.683   3.386   9.125  0.00  0.00    +0.000 A 
ATOM     17  C   UNL     1      45.083   2.063   9.118  0.00  0.00    +0.000 A 
ATOM     18  N   UNL     1      46.006   1.552   8.277  0.00  0.00    +0.000 NA
ATOM     19  C   UNL     1      46.548   2.435   7.403  0.00  0.00    +0.000 A 
ATOM     20  N   UNL     1      46.242   3.742   7.316  0.00  0.00    +0.000 NA
ATOM     21  C   UNL     1      45.309   4.184   8.187  0.00  0.00    +0.000 A 
BRANCH  19  22
ATOM     22  C   UNL     1      47.572   1.876   6.447  0.00  0.00    +0.000 C 
ATOM     23  N   UNL     1      48.718   2.620   6.290  0.00  0.00    +0.000 N 
ATOM     24  O   UNL     1      47.427   0.825   5.827  0.00  0.00    +0.000 OA
ATOM     25  H   UNL     1      48.835   3.488   6.801  0.00  0.00    +0.000 HD
ATOM     26  H   UNL     1      49.434   2.293   5.659  0.00  0.00    +0.000 HD
ENDBRANCH  19  22
ENDBRANCH  15  16
ENDBRANCH  14  15
ENDBRANCH   5  14
TORSDOF 8
ENDMDL
MODEL 7
REMARK VINA RESULT:    -6.824      3.734      8.280
REMARK INTER + INTRA:         -10.594
REMARK INTER:                  -9.753
REMARK INTRA:                  -0.840
REMARK UNBOUND:                -0.579
REMARK  Name = 
REMARK  10 active torsions:
REMARK  status: ('A' for Active; 'I' for Inactive)
REMARK    1  A    between atoms: C_1  and  C_2
REMARK    2  A    between atoms: C_2  and  C_3
REMARK    3  A    between atoms: C_2  and  C_4
REMARK    4  A    between atoms: C_5  and  C_6
REMARK    5  A    between atoms: C_6  and  O_7
REMARK    6  A    between atoms: O_7  and  C_8
REMARK    7  A    between atoms: C_12  and  C_13
REMARK    8  A    between atoms: C_13  and  O_14
REMARK    9  A    between atoms: O_14  and  C_15
REMARK   10  A    between atoms: C_18  and  C_19
REMARK                            x       y       z     vdW  Elec       q    Type
REMARK                         _______ _______ _______ _____ _____    ______ ____
ROOT
ATOM      1  C   UNL     1      47.153   6.247  13.021  0.00  0.00    +0.000 A 
ATOM      2  C   UNL     1      47.119   5.200  13.943  0.00  0.00    +0.000 A 
ATOM      3  C   UNL     1      46.197   4.161  13.785  0.00  0.00    +0.000 A 
ATOM      4  C   UNL     1      45.284   4.185  12.730  0.00  0.00    +0.000 A 
ATOM      5  C   UNL     1      45.266   5.266  11.845  0.00  0.00    +0.000 A 
ATOM      6  C   UNL     1      46.212   6.286  11.994  0.00  0.00    +0.000 A 
ENDROOT
BRANCH   1   7
ATOM      7  O   UNL     1      48.130   7.193  13.192  0.00  0.00    +0.000 OA
BRANCH   7   8
ATOM      8  C   UNL     1      48.965   7.379  12.045  0.00  0.00    +0.000 C 
BRANCH   8  10
ATOM      9  C   UNL     1      48.012   9.695  12.139  0.00  0.00    +0.000 C 
ATOM     10  C   UNL     1      48.804   8.783  11.558  0.00  0.00    +0.000 C 
BRANCH   9  12
ATOM     11  C   UNL     1      48.807  11.360  10.464  0.00  0.00    +0.000 C 
ATOM     12  C   UNL     1      47.837  11.098  11.615  0.00  0.00    +0.000 C 
ATOM     13  C   UNL     1      46.396  11.315  11.161  0.00  0.00    +0.000 C 
ENDBRANCH   9  12
ENDBRANCH   8  10
ENDBRANCH   7   8
ENDBRANCH   1   7
BRANCH   5  14
ATOM     14  C   UNL     1      44.251   5.365  10.737  0.00  0.00    +0.000 C 
BRANCH  14  15
ATOM     15  O   UNL     1      43.986   4.064  10.218  0.00  0.00    +0.000 OA
BRANCH  15  16
ATOM     16  C   UNL     1      44.871   3.611   9.288  0.00  0.00    +0.000 A 
ATOM     17  C   UNL     1      45.587   4.357   8.370  0.00  0.00    +0.000 A 
ATOM     18  N   UNL     1      46.451   3.836   7.476  0.00  0.00    +0.000 NA
ATOM     19  C   UNL     1      46.591   2.489   7.518  0.00  0.00    +0.000 A 
ATOM     20  N   UNL     1      45.949   1.659   8.361  0.00  0.00    +0.000 NA
ATOM     21  C   UNL     1      45.101   2.250   9.230  0.00  0.00    +0.000 A 
BRANCH  19  22
ATOM     22  C   UNL     1      47.565   1.892   6.534  0.00  0.00    +0.000 C 
ATOM     23  N   UNL     1      48.697   2.632   6.283  0.00  0.00    +0.000 N 
ATOM     24  O   UNL     1      47.392   0.815   5.969  0.00  0.00    +0.000 OA
ATOM     25  H   UNL     1      48.837   3.522   6.749  0.00  0.00    +0.000 HD
ATOM     26  H   UNL     1      49.380   2.280   5.630  0.00  0.00    +0.000 HD
ENDBRANCH  19  22
ENDBRANCH  15  16
ENDBRANCH  14  15
ENDBRANCH   5  14
TORSDOF 8
ENDMDL
MODEL 8
REMARK VINA RESULT:    -6.806      3.697      8.170
REMARK INTER + INTRA:         -10.568
REMARK INTER:                  -9.764
REMARK INTRA:                  -0.804
REMARK UNBOUND:                -0.579
REMARK  Name = 
REMARK  10 active torsions:
REMARK  status: ('A' for Active; 'I' for Inactive)
REMARK    1  A    between atoms: C_1  and  C_2
REMARK    2  A    between atoms: C_2  and  C_3
REMARK    3  A    between atoms: C_2  and  C_4
REMARK    4  A    between atoms: C_5  and  C_6
REMARK    5  A    between atoms: C_6  and  O_7
REMARK    6  A    between atoms: O_7  and  C_8
REMARK    7  A    between atoms: C_12  and  C_13
REMARK    8  A    between atoms: C_13  and  O_14
REMARK    9  A    between atoms: O_14  and  C_15
REMARK   10  A    between atoms: C_18  and  C_19
REMARK                            x       y       z     vdW  Elec       q    Type
REMARK                         _______ _______ _______ _____ _____    ______ ____
ROOT
ATOM      1  C   UNL     1      46.703   5.690  12.921  0.00  0.00    +0.000 A 
ATOM      2  C   UNL     1      46.056   6.924  12.848  0.00  0.00    +0.000 A 
ATOM      3  C   UNL     1      44.709   6.986  12.482  0.00  0.00    +0.000 A 
ATOM      4  C   UNL     1      44.017   5.821  12.151  0.00  0.00    +0.000 A 
ATOM      5  C   UNL     1      44.677   4.589  12.153  0.00  0.00    +0.000 A 
ATOM      6  C   UNL     1      46.018   4.535  12.550  0.00  0.00    +0.000 A 
ENDROOT
BRANCH   1   7
ATOM      7  O   UNL     1      48.002   5.695  13.359  0.00  0.00    +0.000 OA
BRANCH   7   8
ATOM      8  C   UNL     1      48.522   7.003  13.619  0.00  0.00    +0.000 C 
BRANCH   8  10
ATOM      9  C   UNL     1      50.451   8.336  12.734  0.00  0.00    +0.000 C 
ATOM     10  C   UNL     1      49.638   7.273  12.662  0.00  0.00    +0.000 C 
BRANCH   9  12
ATOM     11  C   UNL     1      52.913   8.582  12.435  0.00  0.00    +0.000 C 
ATOM     12  C   UNL     1      51.552   8.609  11.741  0.00  0.00    +0.000 C 
ATOM     13  C   UNL     1      51.508   7.583  10.610  0.00  0.00    +0.000 C 
ENDBRANCH   9  12
ENDBRANCH   8  10
ENDBRANCH   7   8
ENDBRANCH   1   7
BRANCH   5  14
ATOM     14  C   UNL     1      43.986   3.319  11.734  0.00  0.00    +0.000 C 
BRANCH  14  15
ATOM     15  O   UNL     1      43.535   3.446  10.388  0.00  0.00    +0.000 OA
BRANCH  15  16
ATOM     16  C   UNL     1      44.489   3.285   9.430  0.00  0.00    +0.000 A 
ATOM     17  C   UNL     1      45.022   4.252   8.598  0.00  0.00    +0.000 A 
ATOM     18  N   UNL     1      45.971   4.017   7.669  0.00  0.00    +0.000 NA
ATOM     19  C   UNL     1      46.395   2.733   7.583  0.00  0.00    +0.000 A 
ATOM     20  N   UNL     1      45.952   1.707   8.333  0.00  0.00    +0.000 NA
ATOM     21  C   UNL     1      45.003   2.017   9.243  0.00  0.00    +0.000 A 
BRANCH  19  22
ATOM     22  C   UNL     1      47.466   2.457   6.558  0.00  0.00    +0.000 C 
ATOM     23  N   UNL     1      47.319   3.094   5.348  0.00  0.00    +0.000 N 
ATOM     24  O   UNL     1      48.425   1.714   6.754  0.00  0.00    +0.000 OA
ATOM     25  H   UNL     1      46.527   3.705   5.186  0.00  0.00    +0.000 HD
ATOM     26  H   UNL     1      48.007   2.941   4.625  0.00  0.00    +0.000 HD
ENDBRANCH  19  22
ENDBRANCH  15  16
ENDBRANCH  14  15
ENDBRANCH   5  14
TORSDOF 8
ENDMDL
MODEL 9
REMARK VINA RESULT:    -6.578      2.955      4.904
REMARK INTER + INTRA:         -10.233
REMARK INTER:                  -9.372
REMARK INTRA:                  -0.861
REMARK UNBOUND:                -0.579
REMARK  Name = 
REMARK  10 active torsions:
REMARK  status: ('A' for Active; 'I' for Inactive)
REMARK    1  A    between atoms: C_1  and  C_2
REMARK    2  A    between atoms: C_2  and  C_3
REMARK    3  A    between atoms: C_2  and  C_4
REMARK    4  A    between atoms: C_5  and  C_6
REMARK    5  A    between atoms: C_6  and  O_7
REMARK    6  A    between atoms: O_7  and  C_8
REMARK    7  A    between atoms: C_12  and  C_13
REMARK    8  A    between atoms: C_13  and  O_14
REMARK    9  A    between atoms: O_14  and  C_15
REMARK   10  A    between atoms: C_18  and  C_19
REMARK                            x       y       z     vdW  Elec       q    Type
REMARK                         _______ _______ _______ _____ _____    ______ ____
ROOT
ATOM      1  C   UNL     1      44.287   5.175  12.319  0.00  0.00    +0.000 A 
ATOM      2  C   UNL     1      44.202   6.415  11.686  0.00  0.00    +0.000 A 
ATOM      3  C   UNL     1      45.241   7.340  11.818  0.00  0.00    +0.000 A 
ATOM      4  C   UNL     1      46.349   7.042  12.613  0.00  0.00    +0.000 A 
ATOM      5  C   UNL     1      46.408   5.831  13.307  0.00  0.00    +0.000 A 
ATOM      6  C   UNL     1      45.376   4.901  13.145  0.00  0.00    +0.000 A 
ENDROOT
BRANCH   1   7
ATOM      7  O   UNL     1      43.268   4.288  12.086  0.00  0.00    +0.000 OA
BRANCH   7   8
ATOM      8  C   UNL     1      43.709   2.947  11.845  0.00  0.00    +0.000 C 
BRANCH   8  10
ATOM      9  C   UNL     1      45.197   2.796   9.834  0.00  0.00    +0.000 C 
ATOM     10  C   UNL     1      43.974   2.787  10.383  0.00  0.00    +0.000 C 
BRANCH   9  12
ATOM     11  C   UNL     1      46.104   3.931   7.809  0.00  0.00    +0.000 C 
ATOM     12  C   UNL     1      45.443   2.665   8.352  0.00  0.00    +0.000 C 
ATOM     13  C   UNL     1      46.314   1.443   8.069  0.00  0.00    +0.000 C 
ENDBRANCH   9  12
ENDBRANCH   8  10
ENDBRANCH   7   8
ENDBRANCH   1   7
BRANCH   5  14
ATOM     14  C   UNL     1      47.550   5.502  14.231  0.00  0.00    +0.000 C 
BRANCH  14  15
ATOM     15  O   UNL     1      47.266   4.290  14.925  0.00  0.00    +0.000 OA
BRANCH  15  16
ATOM     16  C   UNL     1      47.695   4.237  16.216  0.00  0.00    +0.000 A 
ATOM     17  C   UNL     1      47.711   3.138  17.054  0.00  0.00    +0.000 A 
ATOM     18  N   UNL     1      48.155   3.160  18.328  0.00  0.00    +0.000 NA
ATOM     19  C   UNL     1      48.601   4.361  18.767  0.00  0.00    +0.000 A 
ATOM     20  N   UNL     1      48.632   5.499  18.049  0.00  0.00    +0.000 NA
ATOM     21  C   UNL     1      48.175   5.402  16.782  0.00  0.00    +0.000 A 
BRANCH  19  22
ATOM     22  C   UNL     1      49.114   4.399  20.185  0.00  0.00    +0.000 C 
ATOM     23  N   UNL     1      50.463   4.625  20.331  0.00  0.00    +0.000 N 
ATOM     24  O   UNL     1      48.402   4.242  21.175  0.00  0.00    +0.000 OA
ATOM     25  H   UNL     1      51.049   4.752  19.514  0.00  0.00    +0.000 HD
ATOM     26  H   UNL     1      50.858   4.657  21.259  0.00  0.00    +0.000 HD
ENDBRANCH  19  22
ENDBRANCH  15  16
ENDBRANCH  14  15
ENDBRANCH   5  14
TORSDOF 8
ENDMDL
