MODEL 1
REMARK VINA RESULT:    -8.010      0.000      0.000
REMARK INTER + INTRA:         -12.547
REMARK INTER:                 -11.287
REMARK INTRA:                  -1.260
REMARK UNBOUND:                -1.260
REMARK  Name = 
REMARK  8 active torsions:
REMARK  status: ('A' for Active; 'I' for Inactive)
REMARK    1  A    between atoms: C_1  and  N_2
REMARK    2  A    between atoms: C_4  and  C_5
REMARK    3  A    between atoms: N_7  and  C_8
REMARK    4  A    between atoms: C_8  and  C_9
REMARK    5  A    between atoms: C_12  and  N_13
REMARK    6  A    between atoms: N_13  and  C_14
REMARK    7  A    between atoms: C_14  and  C_15
REMARK    8  A    between atoms: C_15  and  C_16
REMARK                            x       y       z     vdW  Elec       q    Type
REMARK                         _______ _______ _______ _____ _____    ______ ____
ROOT
ATOM      1  C   UNL     1      46.178   7.099  12.381  0.00  0.00    +0.000 A 
ATOM      2  C   UNL     1      44.980   6.627  12.925  0.00  0.00    +0.000 A 
ATOM      3  C   UNL     1      44.140   5.794  12.181  0.00  0.00    +0.000 A 
ATOM      4  C   UNL     1      44.463   5.430  10.870  0.00  0.00    +0.000 A 
ATOM      5  C   UNL     1      45.708   5.818  10.369  0.00  0.00    +0.000 A 
ATOM      6  C   UNL     1      46.553   6.656  11.107  0.00  0.00    +0.000 A 
ENDROOT
BRANCH   4   7
ATOM      7  N   UNL     1      43.651   4.601  10.063  0.00  0.00    +0.000 N 
ATOM      8  H   UNL     1      42.839   5.140   9.761  0.00  0.00    +0.000 HD
BRANCH   7   9
ATOM      9  C   UNL     1      44.345   4.007   8.921  0.00  0.00    +0.000 C 
BRANCH   9  10
ATOM     10  C   UNL     1      44.850   2.602   9.242  0.00  0.00    +0.000 C 
BRANCH  10  11
ATOM     11  C   UNL     1      46.090   2.256   8.391  0.00  0.00    +0.000 C 
ATOM     12  C   UNL     1      46.134   3.058   7.077  0.00  0.00    +0.000 C 
ATOM     13  C   UNL     1      47.331   2.669   6.217  0.00  0.00    +0.000 C 
ATOM     14  C   UNL     1      47.375   1.163   6.012  0.00  0.00    +0.000 C 
ATOM     15  C   UNL     1      47.289   0.423   7.345  0.00  0.00    +0.000 C 
ATOM     16  N   UNL     1      46.096   0.814   8.099  0.00  0.00    +0.000 NA
ATOM     17  H   UNL     1      46.065   0.287   8.972  0.00  0.00    +0.000 HD
ENDBRANCH  10  11
ENDBRANCH   9  10
ENDBRANCH   7   9
ENDBRANCH   4   7
BRANCH   1  18
ATOM     18  C   UNL     1      47.027   8.067  13.158  0.00  0.00    +0.000 C 
BRANCH  18  21
ATOM     19  C   UNL     1      48.625   6.926  14.647  0.00  0.00    +0.000 C 
ATOM     20  O   UNL     1      49.465   6.818  13.762  0.00  0.00    +0.000 OA
ATOM     21  N   UNL     1      47.412   7.551  14.448  0.00  0.00    +0.000 N 
ATOM     22  H   UNL     1      46.746   7.604  15.202  0.00  0.00    +0.000 HD
BRANCH  19  26
ATOM     23  C   UNL     1      50.225   6.506  19.355  0.00  0.00    +0.000 C 
ATOM     24  N   UNL     1      49.558   6.223  18.105  0.00  0.00    +0.000 N 
ATOM     25  C   UNL     1      49.554   7.028  17.001  0.00  0.00    +0.000 A 
ATOM     26  C   UNL     1      48.825   6.400  15.995  0.00  0.00    +0.000 A 
ATOM     27  C   UNL     1      48.360   5.150  16.548  0.00  0.00    +0.000 A 
ATOM     28  C   UNL     1      47.591   4.047  16.181  0.00  0.00    +0.000 A 
ATOM     29 CL   UNL     1      46.824   3.958  14.673  0.00  0.00    +0.000 Cl
ATOM     30  N   UNL     1      47.351   3.025  17.022  0.00  0.00    +0.000 NA
ATOM     31  C   UNL     1      47.893   3.105  18.244  0.00  0.00    +0.000 A 
ATOM     32  N   UNL     1      48.643   4.098  18.743  0.00  0.00    +0.000 NA
ATOM     33  C   UNL     1      48.839   5.088  17.855  0.00  0.00    +0.000 A 
ENDBRANCH  19  26
ENDBRANCH  18  21
ENDBRANCH   1  18
TORSDOF 7
ENDMDL
MODEL 2
REMARK VINA RESULT:    -7.469      1.929      2.568
REMARK INTER + INTRA:         -11.786
REMARK INTER:                 -10.768
REMARK INTRA:                  -1.017
REMARK UNBOUND:                -1.260
REMARK  Name = 
REMARK  8 active torsions:
REMARK  status: ('A' for Active; 'I' for Inactive)
REMARK    1  A    between atoms: C_1  and  N_2
REMARK    2  A    between atoms: C_4  and  C_5
REMARK    3  A    between atoms: N_7  and  C_8
REMARK    4  A    between atoms: C_8  and  C_9
REMARK    5  A    between atoms: C_12  and  N_13
REMARK    6  A    between atoms: N_13  and  C_14
REMARK    7  A    between atoms: C_14  and  C_15
REMARK    8  A    between atoms: C_15  and  C_16
REMARK                            x       y       z     vdW  Elec       q    Type
REMARK                         _______ _______ _______ _____ _____    ______ ____
ROOT
ATOM      1  C   UNL     1      46.803   6.344  12.723  0.00  0.00    +0.000 A 
ATOM      2  C   UNL     1      46.042   5.409  13.431  0.00  0.00    +0.000 A 
ATOM      3  C   UNL     1      45.019   4.698  12.799  0.00  0.00    +0.000 A 
ATOM      4  C   UNL     1      44.715   4.918  11.451  0.00  0.00    +0.000 A 
ATOM      5  C   UNL     1      45.544   5.775  10.723  0.00  0.00    +0.000 A 
ATOM      6  C   UNL     1      46.568   6.493  11.351  0.00  0.00    +0.000 A 
ENDROOT
BRANCH   4   7
ATOM      7  N   UNL     1      43.686   4.240  10.758  0.00  0.00    +0.000 N 
ATOM      8  H   UNL     1      42.874   4.856  10.704  0.00  0.00    +0.000 HD
BRANCH   7   9
ATOM      9  C   UNL     1      44.071   3.757   9.433  0.00  0.00    +0.000 C 
BRANCH   9  10
ATOM     10  C   UNL     1      44.813   2.425   9.516  0.00  0.00    +0.000 C 
BRANCH  10  11
ATOM     11  C   UNL     1      46.001   2.394   8.532  0.00  0.00    +0.000 C 
ATOM     12  C   UNL     1      45.749   3.274   7.292  0.00  0.00    +0.000 C 
ATOM     13  C   UNL     1      46.902   3.193   6.298  0.00  0.00    +0.000 C 
ATOM     14  C   UNL     1      47.217   1.743   5.962  0.00  0.00    +0.000 C 
ATOM     15  C   UNL     1      47.417   0.915   7.229  0.00  0.00    +0.000 C 
ATOM     16  N   UNL     1      46.257   1.006   8.118  0.00  0.00    +0.000 NA
ATOM     17  H   UNL     1      46.422   0.428   8.942  0.00  0.00    +0.000 HD
ENDBRANCH  10  11
ENDBRANCH   9  10
ENDBRANCH   7   9
ENDBRANCH   4   7
BRANCH   1  18
ATOM     18  C   UNL     1      47.839   7.167  13.438  0.00  0.00    +0.000 C 
BRANCH  18  21
ATOM     19  C   UNL     1      48.991   6.772  15.580  0.00  0.00    +0.000 C 
ATOM     20  O   UNL     1      50.100   6.834  15.064  0.00  0.00    +0.000 OA
ATOM     21  N   UNL     1      47.827   6.952  14.864  0.00  0.00    +0.000 N 
ATOM     22  H   UNL     1      46.936   6.879  15.328  0.00  0.00    +0.000 HD
BRANCH  19  26
ATOM     23  C   UNL     1      48.730   4.308  19.912  0.00  0.00    +0.000 C 
ATOM     24  N   UNL     1      48.677   5.373  18.937  0.00  0.00    +0.000 N 
ATOM     25  C   UNL     1      49.000   5.263  17.614  0.00  0.00    +0.000 A 
ATOM     26  C   UNL     1      48.795   6.496  17.001  0.00  0.00    +0.000 A 
ATOM     27  C   UNL     1      48.334   7.393  18.034  0.00  0.00    +0.000 A 
ATOM     28  C   UNL     1      47.964   8.727  18.195  0.00  0.00    +0.000 A 
ATOM     29 CL   UNL     1      48.054   9.836  16.919  0.00  0.00    +0.000 Cl
ATOM     30  N   UNL     1      47.584   9.230  19.384  0.00  0.00    +0.000 NA
ATOM     31  C   UNL     1      47.569   8.386  20.423  0.00  0.00    +0.000 A 
ATOM     32  N   UNL     1      47.903   7.088  20.427  0.00  0.00    +0.000 NA
ATOM     33  C   UNL     1      48.277   6.651  19.213  0.00  0.00    +0.000 A 
ENDBRANCH  19  26
ENDBRANCH  18  21
ENDBRANCH   1  18
TORSDOF 7
ENDMDL
MODEL 3
REMARK VINA RESULT:    -7.369      1.732      2.110
REMARK INTER + INTRA:         -11.645
REMARK INTER:                 -10.698
REMARK INTRA:                  -0.947
REMARK UNBOUND:                -1.260
REMARK  Name = 
REMARK  8 active torsions:
REMARK  status: ('A' for Active; 'I' for Inactive)
REMARK    1  A    between atoms: C_1  and  N_2
REMARK    2  A    between atoms: C_4  and  C_5
REMARK    3  A    between atoms: N_7  and  C_8
REMARK    4  A    between atoms: C_8  and  C_9
REMARK    5  A    between atoms: C_12  and  N_13
REMARK    6  A    between atoms: N_13  and  C_14
REMARK    7  A    between atoms: C_14  and  C_15
REMARK    8  A    between atoms: C_15  and  C_16
REMARK                            x       y       z     vdW  Elec       q    Type
REMARK                         _______ _______ _______ _____ _____    ______ ____
ROOT
ATOM      1  C   UNL     1      46.991   6.245  13.042  0.00  0.00    +0.000 A 
ATOM      2  C   UNL     1      46.303   6.811  11.967  0.00  0.00    +0.000 A 
ATOM      3  C   UNL     1      45.247   6.128  11.358  0.00  0.00    +0.000 A 
ATOM      4  C   UNL     1      44.867   4.854  11.793  0.00  0.00    +0.000 A 
ATOM      5  C   UNL     1      45.488   4.338  12.933  0.00  0.00    +0.000 A 
ATOM      6  C   UNL     1      46.550   5.015  13.544  0.00  0.00    +0.000 A 
ENDROOT
BRANCH   4   7
ATOM      7  N   UNL     1      43.817   4.107  11.213  0.00  0.00    +0.000 N 
ATOM      8  H   UNL     1      42.947   4.627  11.332  0.00  0.00    +0.000 HD
BRANCH   7   9
ATOM      9  C   UNL     1      44.032   3.754   9.810  0.00  0.00    +0.000 C 
BRANCH   9  10
ATOM     10  C   UNL     1      44.689   2.382   9.673  0.00  0.00    +0.000 C 
BRANCH  10  11
ATOM     11  C   UNL     1      45.871   2.434   8.683  0.00  0.00    +0.000 C 
ATOM     12  C   UNL     1      45.600   3.391   7.506  0.00  0.00    +0.000 C 
ATOM     13  C   UNL     1      46.748   3.394   6.504  0.00  0.00    +0.000 C 
ATOM     14  C   UNL     1      47.083   1.975   6.070  0.00  0.00    +0.000 C 
ATOM     15  C   UNL     1      47.303   1.068   7.278  0.00  0.00    +0.000 C 
ATOM     16  N   UNL     1      46.146   1.081   8.176  0.00  0.00    +0.000 NA
ATOM     17  H   UNL     1      46.324   0.452   8.959  0.00  0.00    +0.000 HD
ENDBRANCH  10  11
ENDBRANCH   9  10
ENDBRANCH   7   9
ENDBRANCH   4   7
BRANCH   1  18
ATOM     18  C   UNL     1      48.183   6.951  13.629  0.00  0.00    +0.000 C 
BRANCH  18  21
ATOM     19  C   UNL     1      49.028   6.845  15.941  0.00  0.00    +0.000 C 
ATOM     20  O   UNL     1      50.099   6.365  15.591  0.00  0.00    +0.000 OA
ATOM     21  N   UNL     1      48.041   7.192  15.044  0.00  0.00    +0.000 N 
ATOM     22  H   UNL     1      47.170   7.572  15.378  0.00  0.00    +0.000 HD
BRANCH  19  26
ATOM     23  C   UNL     1      47.795   9.242  20.141  0.00  0.00    +0.000 C 
ATOM     24  N   UNL     1      48.145   8.185  19.220  0.00  0.00    +0.000 N 
ATOM     25  C   UNL     1      48.350   8.331  17.876  0.00  0.00    +0.000 A 
ATOM     26  C   UNL     1      48.693   7.093  17.341  0.00  0.00    +0.000 A 
ATOM     27  C   UNL     1      48.674   6.155  18.438  0.00  0.00    +0.000 A 
ATOM     28  C   UNL     1      48.872   4.796  18.678  0.00  0.00    +0.000 A 
ATOM     29 CL   UNL     1      49.199   3.709  17.421  0.00  0.00    +0.000 Cl
ATOM     30  N   UNL     1      48.745   4.256  19.903  0.00  0.00    +0.000 NA
ATOM     31  C   UNL     1      48.420   5.086  20.902  0.00  0.00    +0.000 A 
ATOM     32  N   UNL     1      48.192   6.404  20.828  0.00  0.00    +0.000 NA
ATOM     33  C   UNL     1      48.330   6.879  19.578  0.00  0.00    +0.000 A 
ENDBRANCH  19  26
ENDBRANCH  18  21
ENDBRANCH   1  18
TORSDOF 7
ENDMDL
MODEL 4
REMARK VINA RESULT:    -7.156      1.675      1.716
REMARK INTER + INTRA:         -11.344
REMARK INTER:                 -10.250
REMARK INTRA:                  -1.093
REMARK UNBOUND:                -1.260
REMARK  Name = 
REMARK  8 active torsions:
REMARK  status: ('A' for Active; 'I' for Inactive)
REMARK    1  A    between atoms: C_1  and  N_2
REMARK    2  A    between atoms: C_4  and  C_5
REMARK    3  A    between atoms: N_7  and  C_8
REMARK    4  A    between atoms: C_8  and  C_9
REMARK    5  A    between atoms: C_12  and  N_13
REMARK    6  A    between atoms: N_13  and  C_14
REMARK    7  A    between atoms: C_14  and  C_15
REMARK    8  A    between atoms: C_15  and  C_16
REMARK                            x       y       z     vdW  Elec       q    Type
REMARK                         _______ _______ _______ _____ _____    ______ ____
ROOT
ATOM      1  C   UNL     1      46.664   6.472  12.831  0.00  0.00    +0.000 A 
ATOM      2  C   UNL     1      46.024   5.491  13.592  0.00  0.00    +0.000 A 
ATOM      3  C   UNL     1      45.077   4.644  13.010  0.00  0.00    +0.000 A 
ATOM      4  C   UNL     1      44.730   4.770  11.660  0.00  0.00    +0.000 A 
ATOM      5  C   UNL     1      45.448   5.681  10.881  0.00  0.00    +0.000 A 
ATOM      6  C   UNL     1      46.394   6.536  11.459  0.00  0.00    +0.000 A 
ENDROOT
BRANCH   4   7
ATOM      7  N   UNL     1      43.773   3.954  11.016  0.00  0.00    +0.000 N 
ATOM      8  H   UNL     1      42.860   4.400  11.100  0.00  0.00    +0.000 HD
BRANCH   7   9
ATOM      9  C   UNL     1      44.086   3.648   9.621  0.00  0.00    +0.000 C 
BRANCH   9  10
ATOM     10  C   UNL     1      44.717   2.264   9.478  0.00  0.00    +0.000 C 
BRANCH  10  11
ATOM     11  C   UNL     1      45.929   2.307   8.525  0.00  0.00    +0.000 C 
ATOM     12  C   UNL     1      45.667   3.197   7.295  0.00  0.00    +0.000 C 
ATOM     13  C   UNL     1      46.847   3.189   6.330  0.00  0.00    +0.000 C 
ATOM     14  C   UNL     1      47.240   1.762   5.977  0.00  0.00    +0.000 C 
ATOM     15  C   UNL     1      47.447   0.922   7.235  0.00  0.00    +0.000 C 
ATOM     16  N   UNL     1      46.261   0.941   8.094  0.00  0.00    +0.000 NA
ATOM     17  H   UNL     1      46.433   0.356   8.912  0.00  0.00    +0.000 HD
ENDBRANCH  10  11
ENDBRANCH   9  10
ENDBRANCH   7   9
ENDBRANCH   4   7
BRANCH   1  18
ATOM     18  C   UNL     1      47.614   7.435  13.490  0.00  0.00    +0.000 C 
BRANCH  18  21
ATOM     19  C   UNL     1      49.014   7.316  15.514  0.00  0.00    +0.000 C 
ATOM     20  O   UNL     1      48.565   8.365  15.960  0.00  0.00    +0.000 OA
ATOM     21  N   UNL     1      48.584   6.770  14.324  0.00  0.00    +0.000 N 
ATOM     22  H   UNL     1      48.992   5.912  13.990  0.00  0.00    +0.000 HD
BRANCH  19  26
ATOM     23  C   UNL     1      53.469   5.970  17.318  0.00  0.00    +0.000 C 
ATOM     24  N   UNL     1      52.060   5.955  16.996  0.00  0.00    +0.000 N 
ATOM     25  C   UNL     1      51.379   6.942  16.340  0.00  0.00    +0.000 A 
ATOM     26  C   UNL     1      50.051   6.547  16.198  0.00  0.00    +0.000 A 
ATOM     27  C   UNL     1      49.942   5.250  16.822  0.00  0.00    +0.000 A 
ATOM     28  C   UNL     1      48.980   4.278  17.090  0.00  0.00    +0.000 A 
ATOM     29 CL   UNL     1      47.350   4.504  16.690  0.00  0.00    +0.000 Cl
ATOM     30  N   UNL     1      49.271   3.139  17.745  0.00  0.00    +0.000 NA
ATOM     31  C   UNL     1      50.541   2.968  18.130  0.00  0.00    +0.000 A 
ATOM     32  N   UNL     1      51.570   3.809  17.953  0.00  0.00    +0.000 NA
ATOM     33  C   UNL     1      51.211   4.928  17.299  0.00  0.00    +0.000 A 
ENDBRANCH  19  26
ENDBRANCH  18  21
ENDBRANCH   1  18
TORSDOF 7
ENDMDL
MODEL 5
REMARK VINA RESULT:    -7.117      2.254      3.387
REMARK INTER + INTRA:         -11.290
REMARK INTER:                 -10.372
REMARK INTRA:                  -0.918
REMARK UNBOUND:                -1.260
REMARK  Name = 
REMARK  8 active torsions:
REMARK  status: ('A' for Active; 'I' for Inactive)
REMARK    1  A    between atoms: C_1  and  N_2
REMARK    2  A    between atoms: C_4  and  C_5
REMARK    3  A    between atoms: N_7  and  C_8
REMARK    4  A    between atoms: C_8  and  C_9
REMARK    5  A    between atoms: C_12  and  N_13
REMARK    6  A    between atoms: N_13  and  C_14
REMARK    7  A    between atoms: C_14  and  C_15
REMARK    8  A    between atoms: C_15  and  C_16
REMARK                            x       y       z     vdW  Elec       q    Type
REMARK                         _______ _______ _______ _____ _____    ______ ____
ROOT
ATOM      1  C   UNL     1      46.546   4.469  13.721  0.00  0.00    +0.000 A 
ATOM      2  C   UNL     1      46.924   5.738  13.275  0.00  0.00    +0.000 A 
ATOM      3  C   UNL     1      46.485   6.217  12.038  0.00  0.00    +0.000 A 
ATOM      4  C   UNL     1      45.678   5.433  11.206  0.00  0.00    +0.000 A 
ATOM      5  C   UNL     1      45.218   4.211  11.702  0.00  0.00    +0.000 A 
ATOM      6  C   UNL     1      45.657   3.723  12.938  0.00  0.00    +0.000 A 
ENDROOT
BRANCH   4   7
ATOM      7  N   UNL     1      45.211   5.855   9.941  0.00  0.00    +0.000 N 
ATOM      8  H   UNL     1      45.386   6.856   9.850  0.00  0.00    +0.000 HD
BRANCH   7   9
ATOM      9  C   UNL     1      45.778   5.116   8.813  0.00  0.00    +0.000 C 
BRANCH   9  10
ATOM     10  C   UNL     1      44.841   4.006   8.343  0.00  0.00    +0.000 C 
BRANCH  10  11
ATOM     11  C   UNL     1      45.573   3.031   7.398  0.00  0.00    +0.000 C 
ATOM     12  C   UNL     1      46.259   1.885   8.165  0.00  0.00    +0.000 C 
ATOM     13  C   UNL     1      47.027   0.959   7.230  0.00  0.00    +0.000 C 
ATOM     14  C   UNL     1      47.978   1.757   6.350  0.00  0.00    +0.000 C 
ATOM     15  C   UNL     1      47.249   2.899   5.647  0.00  0.00    +0.000 C 
ATOM     16  N   UNL     1      46.568   3.772   6.607  0.00  0.00    +0.000 NA
ATOM     17  H   UNL     1      46.109   4.530   6.102  0.00  0.00    +0.000 HD
ENDBRANCH  10  11
ENDBRANCH   9  10
ENDBRANCH   7   9
ENDBRANCH   4   7
BRANCH   1  18
ATOM     18  C   UNL     1      47.099   3.930  15.012  0.00  0.00    +0.000 C 
BRANCH  18  21
ATOM     19  C   UNL     1      48.348   4.937  16.882  0.00  0.00    +0.000 C 
ATOM     20  O   UNL     1      49.221   4.078  16.840  0.00  0.00    +0.000 OA
ATOM     21  N   UNL     1      47.285   4.960  16.005  0.00  0.00    +0.000 N 
ATOM     22  H   UNL     1      46.584   5.678  16.086  0.00  0.00    +0.000 HD
BRANCH  19  26
ATOM     23  C   UNL     1      47.776   7.381  21.195  0.00  0.00    +0.000 C 
ATOM     24  N   UNL     1      48.079   7.099  19.811  0.00  0.00    +0.000 N 
ATOM     25  C   UNL     1      48.003   5.874  19.209  0.00  0.00    +0.000 A 
ATOM     26  C   UNL     1      48.347   6.015  17.868  0.00  0.00    +0.000 A 
ATOM     27  C   UNL     1      48.659   7.411  17.671  0.00  0.00    +0.000 A 
ATOM     28  C   UNL     1      49.085   8.272  16.662  0.00  0.00    +0.000 A 
ATOM     29 CL   UNL     1      49.466   7.707  15.111  0.00  0.00    +0.000 Cl
ATOM     30  N   UNL     1      49.291   9.584  16.875  0.00  0.00    +0.000 NA
ATOM     31  C   UNL     1      49.061  10.042  18.111  0.00  0.00    +0.000 A 
ATOM     32  N   UNL     1      48.658   9.341  19.181  0.00  0.00    +0.000 NA
ATOM     33  C   UNL     1      48.477   8.039  18.902  0.00  0.00    +0.000 A 
ENDBRANCH  19  26
ENDBRANCH  18  21
ENDBRANCH   1  18
TORSDOF 7
ENDMDL
MODEL 6
REMARK VINA RESULT:    -6.887      1.721      2.415
REMARK INTER + INTRA:         -10.965
REMARK INTER:                  -9.800
REMARK INTRA:                  -1.164
REMARK UNBOUND:                -1.260
REMARK  Name = 
REMARK  8 active torsions:
REMARK  status: ('A' for Active; 'I' for Inactive)
REMARK    1  A    between atoms: C_1  and  N_2
REMARK    2  A    between atoms: C_4  and  C_5
REMARK    3  A    between atoms: N_7  and  C_8
REMARK    4  A    between atoms: C_8  and  C_9
REMARK    5  A    between atoms: C_12  and  N_13
REMARK    6  A    between atoms: N_13  and  C_14
REMARK    7  A    between atoms: C_14  and  C_15
REMARK    8  A    between atoms: C_15  and  C_16
REMARK                            x       y       z     vdW  Elec       q    Type
REMARK                         _______ _______ _______ _____ _____    ______ ____
ROOT
ATOM      1  C   UNL     1      45.529   7.030  12.370  0.00  0.00    +0.000 A 
ATOM      2  C   UNL     1      45.185   6.096  13.351  0.00  0.00    +0.000 A 
ATOM      3  C   UNL     1      45.039   4.745  13.028  0.00  0.00    +0.000 A 
ATOM      4  C   UNL     1      45.210   4.295  11.714  0.00  0.00    +0.000 A 
ATOM      5  C   UNL     1      45.656   5.214  10.760  0.00  0.00    +0.000 A 
ATOM      6  C   UNL     1      45.800   6.570  11.076  0.00  0.00    +0.000 A 
ENDROOT
BRANCH   4   7
ATOM      7  N   UNL     1      45.066   2.946  11.321  0.00  0.00    +0.000 N 
ATOM      8  H   UNL     1      44.856   2.389  12.150  0.00  0.00    +0.000 HD
BRANCH   7   9
ATOM      9  C   UNL     1      44.070   2.728  10.273  0.00  0.00    +0.000 C 
BRANCH   9  10
ATOM     10  C   UNL     1      44.539   1.682   9.263  0.00  0.00    +0.000 C 
BRANCH  10  11
ATOM     11  C   UNL     1      45.813   2.156   8.532  0.00  0.00    +0.000 C 
ATOM     12  C   UNL     1      45.519   3.291   7.533  0.00  0.00    +0.000 C 
ATOM     13  C   UNL     1      46.772   3.714   6.774  0.00  0.00    +0.000 C 
ATOM     14  C   UNL     1      47.448   2.506   6.143  0.00  0.00    +0.000 C 
ATOM     15  C   UNL     1      47.677   1.403   7.173  0.00  0.00    +0.000 C 
ATOM     16  N   UNL     1      46.427   1.017   7.832  0.00  0.00    +0.000 NA
ATOM     17  H   UNL     1      46.619   0.269   8.498  0.00  0.00    +0.000 HD
ENDBRANCH  10  11
ENDBRANCH   9  10
ENDBRANCH   7   9
ENDBRANCH   4   7
BRANCH   1  18
ATOM     18  C   UNL     1      45.593   8.493  12.714  0.00  0.00    +0.000 C 
BRANCH  18  21
ATOM     19  C   UNL     1      47.801   8.539  13.809  0.00  0.00    +0.000 C 
ATOM     20  O   UNL     1      48.378   8.164  12.796  0.00  0.00    +0.000 OA
ATOM     21  N   UNL     1      46.440   8.756  13.851  0.00  0.00    +0.000 N 
ATOM     22  H   UNL     1      46.006   9.052  14.711  0.00  0.00    +0.000 HD
BRANCH  19  26
ATOM     23  C   UNL     1      50.126  10.937  17.516  0.00  0.00    +0.000 C 
ATOM     24  N   UNL     1      49.545   9.880  16.722  0.00  0.00    +0.000 N 
ATOM     25  C   UNL     1      48.885  10.041  15.536  0.00  0.00    +0.000 A 
ATOM     26  C   UNL     1      48.497   8.788  15.069  0.00  0.00    +0.000 A 
ATOM     27  C   UNL     1      48.946   7.829  16.050  0.00  0.00    +0.000 A 
ATOM     28  C   UNL     1      48.912   6.457  16.287  0.00  0.00    +0.000 A 
ATOM     29 CL   UNL     1      48.094   5.394  15.251  0.00  0.00    +0.000 Cl
ATOM     30  N   UNL     1      49.459   5.901  17.384  0.00  0.00    +0.000 NA
ATOM     31  C   UNL     1      50.052   6.730  18.251  0.00  0.00    +0.000 A 
ATOM     32  N   UNL     1      50.159   8.064  18.166  0.00  0.00    +0.000 NA
ATOM     33  C   UNL     1      49.588   8.554  17.052  0.00  0.00    +0.000 A 
ENDBRANCH  19  26
ENDBRANCH  18  21
ENDBRANCH   1  18
TORSDOF 7
ENDMDL
MODEL 7
REMARK VINA RESULT:    -6.871      1.969      2.576
REMARK INTER + INTRA:         -10.942
REMARK INTER:                  -9.936
REMARK INTRA:                  -1.006
REMARK UNBOUND:                -1.260
REMARK  Name = 
REMARK  8 active torsions:
REMARK  status: ('A' for Active; 'I' for Inactive)
REMARK    1  A    between atoms: C_1  and  N_2
REMARK    2  A    between atoms: C_4  and  C_5
REMARK    3  A    between atoms: N_7  and  C_8
REMARK    4  A    between atoms: C_8  and  C_9
REMARK    5  A    between atoms: C_12  and  N_13
REMARK    6  A    between atoms: N_13  and  C_14
REMARK    7  A    between atoms: C_14  and  C_15
REMARK    8  A    between atoms: C_15  and  C_16
REMARK                            x       y       z     vdW  Elec       q    Type
REMARK                         _______ _______ _______ _____ _____    ______ ____
ROOT
ATOM      1  C   UNL     1      46.880   6.265  12.982  0.00  0.00    +0.000 A 
ATOM      2  C   UNL     1      46.198   5.245  13.651  0.00  0.00    +0.000 A 
ATOM      3  C   UNL     1      45.130   4.583  13.040  0.00  0.00    +0.000 A 
ATOM      4  C   UNL     1      44.702   4.938  11.756  0.00  0.00    +0.000 A 
ATOM      5  C   UNL     1      45.452   5.883  11.053  0.00  0.00    +0.000 A 
ATOM      6  C   UNL     1      46.520   6.553  11.660  0.00  0.00    +0.000 A 
ENDROOT
BRANCH   4   7
ATOM      7  N   UNL     1      43.622   4.316  11.088  0.00  0.00    +0.000 N 
ATOM      8  H   UNL     1      42.832   4.961  11.082  0.00  0.00    +0.000 HD
BRANCH   7   9
ATOM      9  C   UNL     1      43.937   3.853   9.738  0.00  0.00    +0.000 C 
BRANCH   9  10
ATOM     10  C   UNL     1      44.602   2.478   9.758  0.00  0.00    +0.000 C 
BRANCH  10  11
ATOM     11  C   UNL     1      45.814   2.440   8.804  0.00  0.00    +0.000 C 
ATOM     12  C   UNL     1      45.673   3.446   7.646  0.00  0.00    +0.000 C 
ATOM     13  C   UNL     1      46.848   3.362   6.678  0.00  0.00    +0.000 C 
ATOM     14  C   UNL     1      47.058   1.928   6.217  0.00  0.00    +0.000 C 
ATOM     15  C   UNL     1      47.152   0.975   7.406  0.00  0.00    +0.000 C 
ATOM     16  N   UNL     1      45.974   1.079   8.270  0.00  0.00    +0.000 NA
ATOM     17  H   UNL     1      46.066   0.417   9.041  0.00  0.00    +0.000 HD
ENDBRANCH  10  11
ENDBRANCH   9  10
ENDBRANCH   7   9
ENDBRANCH   4   7
BRANCH   1  18
ATOM     18  C   UNL     1      47.968   7.029  13.685  0.00  0.00    +0.000 C 
BRANCH  18  21
ATOM     19  C   UNL     1      48.924   7.147  15.954  0.00  0.00    +0.000 C 
ATOM     20  O   UNL     1      49.085   8.359  15.888  0.00  0.00    +0.000 OA
ATOM     21  N   UNL     1      48.356   6.416  14.932  0.00  0.00    +0.000 N 
ATOM     22  H   UNL     1      48.256   5.418  15.025  0.00  0.00    +0.000 HD
BRANCH  19  26
ATOM     23  C   UNL     1      48.641   4.459  20.149  0.00  0.00    +0.000 C 
ATOM     24  N   UNL     1      49.178   5.158  19.004  0.00  0.00    +0.000 N 
ATOM     25  C   UNL     1      48.447   5.780  18.031  0.00  0.00    +0.000 A 
ATOM     26  C   UNL     1      49.323   6.358  17.117  0.00  0.00    +0.000 A 
ATOM     27  C   UNL     1      50.655   6.046  17.575  0.00  0.00    +0.000 A 
ATOM     28  C   UNL     1      51.982   6.245  17.198  0.00  0.00    +0.000 A 
ATOM     29 CL   UNL     1      52.389   7.034  15.755  0.00  0.00    +0.000 Cl
ATOM     30  N   UNL     1      53.014   5.762  17.913  0.00  0.00    +0.000 NA
ATOM     31  C   UNL     1      52.715   5.076  19.023  0.00  0.00    +0.000 A 
ATOM     32  N   UNL     1      51.497   4.797  19.509  0.00  0.00    +0.000 NA
ATOM     33  C   UNL     1      50.512   5.303  18.745  0.00  0.00    +0.000 A 
ENDBRANCH  19  26
ENDBRANCH  18  21
ENDBRANCH   1  18
TORSDOF 7
ENDMDL
MODEL 8
REMARK VINA RESULT:    -6.715      2.786      4.491
REMARK INTER + INTRA:         -10.722
REMARK INTER:                  -9.697
REMARK INTRA:                  -1.025
REMARK UNBOUND:                -1.260
REMARK  Name = 
REMARK  8 active torsions:
REMARK  status: ('A' for Active; 'I' for Inactive)
REMARK    1  A    between atoms: C_1  and  N_2
REMARK    2  A    between atoms: C_4  and  C_5
REMARK    3  A    between atoms: N_7  and  C_8
REMARK    4  A    between atoms: C_8  and  C_9
REMARK    5  A    between atoms: C_12  and  N_13
REMARK    6  A    between atoms: N_13  and  C_14
REMARK    7  A    between atoms: C_14  and  C_15
REMARK    8  A    between atoms: C_15  and  C_16
REMARK                            x       y       z     vdW  Elec       q    Type
REMARK                         _______ _______ _______ _____ _____    ______ ____
ROOT
ATOM      1  C   UNL     1      46.656   5.235  13.321  0.00  0.00    +0.000 A 
ATOM      2  C   UNL     1      45.942   4.034  13.304  0.00  0.00    +0.000 A 
ATOM      3  C   UNL     1      45.104   3.719  12.231  0.00  0.00    +0.000 A 
ATOM      4  C   UNL     1      44.940   4.605  11.161  0.00  0.00    +0.000 A 
ATOM      5  C   UNL     1      45.734   5.754  11.133  0.00  0.00    +0.000 A 
ATOM      6  C   UNL     1      46.573   6.078  12.207  0.00  0.00    +0.000 A 
ENDROOT
BRANCH   4   7
ATOM      7  N   UNL     1      44.099   4.352  10.054  0.00  0.00    +0.000 N 
ATOM      8  H   UNL     1      43.880   5.241   9.605  0.00  0.00    +0.000 HD
BRANCH   7   9
ATOM      9  C   UNL     1      44.644   3.395   9.092  0.00  0.00    +0.000 C 
BRANCH   9  10
ATOM     10  C   UNL     1      45.478   4.092   8.018  0.00  0.00    +0.000 C 
BRANCH  10  11
ATOM     11  C   UNL     1      46.542   3.136   7.440  0.00  0.00    +0.000 C 
ATOM     12  C   UNL     1      46.621   3.219   5.904  0.00  0.00    +0.000 C 
ATOM     13  C   UNL     1      47.634   2.231   5.337  0.00  0.00    +0.000 C 
ATOM     14  C   UNL     1      47.362   0.828   5.858  0.00  0.00    +0.000 C 
ATOM     15  C   UNL     1      47.255   0.817   7.380  0.00  0.00    +0.000 C 
ATOM     16  N   UNL     1      46.237   1.758   7.853  0.00  0.00    +0.000 NA
ATOM     17  H   UNL     1      46.184   1.709   8.871  0.00  0.00    +0.000 HD
ENDBRANCH  10  11
ENDBRANCH   9  10
ENDBRANCH   7   9
ENDBRANCH   4   7
BRANCH   1  18
ATOM     18  C   UNL     1      47.483   5.601  14.523  0.00  0.00    +0.000 C 
BRANCH  18  21
ATOM     19  C   UNL     1      49.007   7.524  14.757  0.00  0.00    +0.000 C 
ATOM     20  O   UNL     1      50.002   6.810  14.771  0.00  0.00    +0.000 OA
ATOM     21  N   UNL     1      47.733   7.019  14.610  0.00  0.00    +0.000 N 
ATOM     22  H   UNL     1      46.942   7.644  14.618  0.00  0.00    +0.000 HD
BRANCH  19  26
ATOM     23  C   UNL     1      49.106  12.055  16.846  0.00  0.00    +0.000 C 
ATOM     24  N   UNL     1      49.111  11.004  15.855  0.00  0.00    +0.000 N 
ATOM     25  C   UNL     1      49.084   9.662  16.113  0.00  0.00    +0.000 A 
ATOM     26  C   UNL     1      49.074   8.976  14.901  0.00  0.00    +0.000 A 
ATOM     27  C   UNL     1      49.111   9.979  13.864  0.00  0.00    +0.000 A 
ATOM     28  C   UNL     1      49.148  10.069  12.474  0.00  0.00    +0.000 A 
ATOM     29 CL   UNL     1      49.232   8.690  11.494  0.00  0.00    +0.000 Cl
ATOM     30  N   UNL     1      49.194  11.250  11.830  0.00  0.00    +0.000 NA
ATOM     31  C   UNL     1      49.197  12.354  12.586  0.00  0.00    +0.000 A 
ATOM     32  N   UNL     1      49.172  12.429  13.924  0.00  0.00    +0.000 NA
ATOM     33  C   UNL     1      49.133  11.217  14.505  0.00  0.00    +0.000 A 
ENDBRANCH  19  26
ENDBRANCH  18  21
ENDBRANCH   1  18
TORSDOF 7
ENDMDL
MODEL 9
REMARK VINA RESULT:    -6.531      3.627      4.210
REMARK INTER + INTRA:         -10.464
REMARK INTER:                  -9.310
REMARK INTRA:                  -1.153
REMARK UNBOUND:                -1.260
REMARK  Name = 
REMARK  8 active torsions:
REMARK  status: ('A' for Active; 'I' for Inactive)
REMARK    1  A    between atoms: C_1  and  N_2
REMARK    2  A    between atoms: C_4  and  C_5
REMARK    3  A    between atoms: N_7  and  C_8
REMARK    4  A    between atoms: C_8  and  C_9
REMARK    5  A    between atoms: C_12  and  N_13
REMARK    6  A    between atoms: N_13  and  C_14
REMARK    7  A    between atoms: C_14  and  C_15
REMARK    8  A    between atoms: C_15  and  C_16
REMARK                            x       y       z     vdW  Elec       q    Type
REMARK                         _______ _______ _______ _____ _____    ______ ____
ROOT
ATOM      1  C   UNL     1      45.477   7.091  12.333  0.00  0.00    +0.000 A 
ATOM      2  C   UNL     1      45.317   6.121  13.326  0.00  0.00    +0.000 A 
ATOM      3  C   UNL     1      45.208   4.769  12.989  0.00  0.00    +0.000 A 
ATOM      4  C   UNL     1      45.232   4.355  11.653  0.00  0.00    +0.000 A 
ATOM      5  C   UNL     1      45.496   5.315  10.674  0.00  0.00    +0.000 A 
ATOM      6  C   UNL     1      45.602   6.671  11.003  0.00  0.00    +0.000 A 
ENDROOT
BRANCH   4   7
ATOM      7  N   UNL     1      45.114   3.006  11.247  0.00  0.00    +0.000 N 
ATOM      8  H   UNL     1      45.007   2.427  12.080  0.00  0.00    +0.000 HD
BRANCH   7   9
ATOM      9  C   UNL     1      44.039   2.758  10.289  0.00  0.00    +0.000 C 
BRANCH   9  10
ATOM     10  C   UNL     1      44.468   1.765   9.210  0.00  0.00    +0.000 C 
BRANCH  10  11
ATOM     11  C   UNL     1      45.763   2.234   8.515  0.00  0.00    +0.000 C 
ATOM     12  C   UNL     1      45.501   3.370   7.507  0.00  0.00    +0.000 C 
ATOM     13  C   UNL     1      46.776   3.789   6.784  0.00  0.00    +0.000 C 
ATOM     14  C   UNL     1      47.465   2.578   6.172  0.00  0.00    +0.000 C 
ATOM     15  C   UNL     1      47.662   1.474   7.208  0.00  0.00    +0.000 C 
ATOM     16  N   UNL     1      46.393   1.094   7.833  0.00  0.00    +0.000 NA
ATOM     17  H   UNL     1      46.563   0.344   8.504  0.00  0.00    +0.000 HD
ENDBRANCH  10  11
ENDBRANCH   9  10
ENDBRANCH   7   9
ENDBRANCH   4   7
BRANCH   1  18
ATOM     18  C   UNL     1      45.502   8.549  12.703  0.00  0.00    +0.000 C 
BRANCH  18  21
ATOM     19  C   UNL     1      47.685   9.690  12.774  0.00  0.00    +0.000 C 
ATOM     20  O   UNL     1      47.554  10.140  11.642  0.00  0.00    +0.000 OA
ATOM     21  N   UNL     1      46.716   8.924  13.385  0.00  0.00    +0.000 N 
ATOM     22  H   UNL     1      46.873   8.564  14.313  0.00  0.00    +0.000 HD
BRANCH  19  26
ATOM     23  C   UNL     1      50.701  11.438  16.345  0.00  0.00    +0.000 C 
ATOM     24  N   UNL     1      50.223  10.717  15.188  0.00  0.00    +0.000 N 
ATOM     25  C   UNL     1      48.937  10.704  14.728  0.00  0.00    +0.000 A 
ATOM     26  C   UNL     1      48.881   9.918  13.581  0.00  0.00    +0.000 A 
ATOM     27  C   UNL     1      50.220   9.424  13.360  0.00  0.00    +0.000 A 
ATOM     28  C   UNL     1      50.916   8.602  12.476  0.00  0.00    +0.000 A 
ATOM     29 CL   UNL     1      50.133   7.780  11.220  0.00  0.00    +0.000 Cl
ATOM     30  N   UNL     1      52.232   8.353  12.609  0.00  0.00    +0.000 NA
ATOM     31  C   UNL     1      52.859   8.940  13.636  0.00  0.00    +0.000 A 
ATOM     32  N   UNL     1      52.328   9.745  14.567  0.00  0.00    +0.000 NA
ATOM     33  C   UNL     1      51.012   9.947  14.380  0.00  0.00    +0.000 A 
ENDBRANCH  19  26
ENDBRANCH  18  21
ENDBRANCH   1  18
TORSDOF 7
ENDMDL
