MODEL 1
REMARK VINA RESULT:    -8.137      0.000      0.000
REMARK INTER + INTRA:         -11.943
REMARK INTER:                 -10.991
REMARK INTRA:                  -0.952
REMARK UNBOUND:                -0.952
REMARK  Name = 
REMARK  6 active torsions:
REMARK  status: ('A' for Active; 'I' for Inactive)
REMARK    1  A    between atoms: C_2  and  C_4
REMARK    2  A    between atoms: C_7  and  C_8
REMARK    3  A    between atoms: C_8  and  C_9
REMARK    4  A    between atoms: C_9  and  O_10
REMARK    5  A    between atoms: O_10  and  C_11
REMARK    6  A    between atoms: C_15  and  C_16
REMARK                            x       y       z     vdW  Elec       q    Type
REMARK                         _______ _______ _______ _____ _____    ______ ____
ROOT
ATOM      1  C   UNL     1      43.692   3.427  11.630  0.00  0.00    +0.000 C 
ENDROOT
BRANCH   1   2
ATOM      2  C   UNL     1      43.722   4.174  10.298  0.00  0.00    +0.000 C 
BRANCH   2   6
ATOM      3  C   UNL     1      46.542   2.411   7.541  0.00  0.00    +0.000 A 
ATOM      4  C   UNL     1      46.281   3.785   7.498  0.00  0.00    +0.000 A 
ATOM      5  C   UNL     1      45.371   4.354   8.394  0.00  0.00    +0.000 A 
ATOM      6  C   UNL     1      44.715   3.558   9.342  0.00  0.00    +0.000 A 
ATOM      7  C   UNL     1      44.955   2.177   9.360  0.00  0.00    +0.000 A 
ATOM      8  C   UNL     1      45.861   1.606   8.461  0.00  0.00    +0.000 A 
BRANCH   3  10
ATOM      9  N   UNL     1      48.682   2.449   6.383  0.00  0.00    +0.000 N 
ATOM     10  C   UNL     1      47.519   1.771   6.625  0.00  0.00    +0.000 C 
ATOM     11  O   UNL     1      47.320   0.666   6.137  0.00  0.00    +0.000 OA
ATOM     12  H   UNL     1      49.388   1.947   5.862  0.00  0.00    +0.000 HD
ATOM     13  H   UNL     1      48.988   3.212   6.972  0.00  0.00    +0.000 HD
ENDBRANCH   3  10
ENDBRANCH   2   6
ENDBRANCH   1   2
BRANCH   1  14
ATOM     14  O   UNL     1      43.700   4.376  12.702  0.00  0.00    +0.000 OA
BRANCH  14  15
ATOM     15  C   UNL     1      44.905   4.991  12.936  0.00  0.00    +0.000 A 
ATOM     16  C   UNL     1      46.058   4.347  13.382  0.00  0.00    +0.000 A 
ATOM     17  C   UNL     1      47.227   5.072  13.586  0.00  0.00    +0.000 A 
ATOM     18  C   UNL     1      47.255   6.443  13.326  0.00  0.00    +0.000 A 
ATOM     19  C   UNL     1      46.129   7.118  12.822  0.00  0.00    +0.000 A 
ATOM     20  C   UNL     1      44.952   6.362  12.646  0.00  0.00    +0.000 A 
BRANCH  19  21
ATOM     21  C   UNL     1      46.206   8.551  12.441  0.00  0.00    +0.000 A 
ATOM     22  C   UNL     1      47.451   9.182  12.267  0.00  0.00    +0.000 A 
ATOM     23  C   UNL     1      47.551  10.519  11.869  0.00  0.00    +0.000 A 
ATOM     24  C   UNL     1      46.399  11.257  11.622  0.00  0.00    +0.000 A 
ATOM     25  C   UNL     1      45.153  10.661  11.792  0.00  0.00    +0.000 A 
ATOM     26  C   UNL     1      45.057   9.326  12.205  0.00  0.00    +0.000 A 
ENDBRANCH  19  21
ENDBRANCH  14  15
ENDBRANCH   1  14
TORSDOF 6
ENDMDL
MODEL 2
REMARK VINA RESULT:    -8.107      1.916      4.113
REMARK INTER + INTRA:         -11.903
REMARK INTER:                 -10.788
REMARK INTRA:                  -1.115
REMARK UNBOUND:                -0.952
REMARK  Name = 
REMARK  6 active torsions:
REMARK  status: ('A' for Active; 'I' for Inactive)
REMARK    1  A    between atoms: C_2  and  C_4
REMARK    2  A    between atoms: C_7  and  C_8
REMARK    3  A    between atoms: C_8  and  C_9
REMARK    4  A    between atoms: C_9  and  O_10
REMARK    5  A    between atoms: O_10  and  C_11
REMARK    6  A    between atoms: C_15  and  C_16
REMARK                            x       y       z     vdW  Elec       q    Type
REMARK                         _______ _______ _______ _____ _____    ______ ____
ROOT
ATOM      1  C   UNL     1      43.578   5.021  10.706  0.00  0.00    +0.000 C 
ENDROOT
BRANCH   1   2
ATOM      2  C   UNL     1      43.798   3.523  10.506  0.00  0.00    +0.000 C 
BRANCH   2   6
ATOM      3  C   UNL     1      46.530   2.745   7.251  0.00  0.00    +0.000 A 
ATOM      4  C   UNL     1      46.080   1.694   8.059  0.00  0.00    +0.000 A 
ATOM      5  C   UNL     1      45.193   1.948   9.109  0.00  0.00    +0.000 A 
ATOM      6  C   UNL     1      44.745   3.250   9.362  0.00  0.00    +0.000 A 
ATOM      7  C   UNL     1      45.224   4.304   8.571  0.00  0.00    +0.000 A 
ATOM      8  C   UNL     1      46.115   4.053   7.524  0.00  0.00    +0.000 A 
BRANCH   3  10
ATOM      9  N   UNL     1      48.792   2.510   6.386  0.00  0.00    +0.000 N 
ATOM     10  C   UNL     1      47.452   2.516   6.111  0.00  0.00    +0.000 C 
ATOM     11  O   UNL     1      47.040   2.298   4.979  0.00  0.00    +0.000 OA
ATOM     12  H   UNL     1      49.399   2.229   5.628  0.00  0.00    +0.000 HD
ATOM     13  H   UNL     1      49.144   2.413   7.329  0.00  0.00    +0.000 HD
ENDBRANCH   3  10
ENDBRANCH   2   6
ENDBRANCH   1   2
BRANCH   1  14
ATOM     14  O   UNL     1      43.879   5.364  12.063  0.00  0.00    +0.000 OA
BRANCH  14  15
ATOM     15  C   UNL     1      45.191   5.680  12.315  0.00  0.00    +0.000 A 
ATOM     16  C   UNL     1      45.986   6.493  11.510  0.00  0.00    +0.000 A 
ATOM     17  C   UNL     1      47.307   6.747  11.863  0.00  0.00    +0.000 A 
ATOM     18  C   UNL     1      47.835   6.204  13.035  0.00  0.00    +0.000 A 
ATOM     19  C   UNL     1      47.049   5.425  13.902  0.00  0.00    +0.000 A 
ATOM     20  C   UNL     1      45.720   5.166  13.508  0.00  0.00    +0.000 A 
BRANCH  19  21
ATOM     21  C   UNL     1      47.588   4.949  15.201  0.00  0.00    +0.000 A 
ATOM     22  C   UNL     1      47.333   3.640  15.649  0.00  0.00    +0.000 A 
ATOM     23  C   UNL     1      47.864   3.155  16.848  0.00  0.00    +0.000 A 
ATOM     24  C   UNL     1      48.677   3.970  17.627  0.00  0.00    +0.000 A 
ATOM     25  C   UNL     1      48.940   5.273  17.213  0.00  0.00    +0.000 A 
ATOM     26  C   UNL     1      48.396   5.759  16.018  0.00  0.00    +0.000 A 
ENDBRANCH  19  21
ENDBRANCH  14  15
ENDBRANCH   1  14
TORSDOF 6
ENDMDL
MODEL 3
REMARK VINA RESULT:    -8.079      1.183      1.804
REMARK INTER + INTRA:         -11.864
REMARK INTER:                 -10.751
REMARK INTRA:                  -1.113
REMARK UNBOUND:                -0.952
REMARK  Name = 
REMARK  6 active torsions:
REMARK  status: ('A' for Active; 'I' for Inactive)
REMARK    1  A    between atoms: C_2  and  C_4
REMARK    2  A    between atoms: C_7  and  C_8
REMARK    3  A    between atoms: C_8  and  C_9
REMARK    4  A    between atoms: C_9  and  O_10
REMARK    5  A    between atoms: O_10  and  C_11
REMARK    6  A    between atoms: C_15  and  C_16
REMARK                            x       y       z     vdW  Elec       q    Type
REMARK                         _______ _______ _______ _____ _____    ______ ____
ROOT
ATOM      1  C   UNL     1      43.325   5.198  10.897  0.00  0.00    +0.000 C 
ENDROOT
BRANCH   1   2
ATOM      2  C   UNL     1      43.583   3.698  10.761  0.00  0.00    +0.000 C 
BRANCH   2   6
ATOM      3  C   UNL     1      46.457   2.866   7.645  0.00  0.00    +0.000 A 
ATOM      4  C   UNL     1      46.077   4.185   7.918  0.00  0.00    +0.000 A 
ATOM      5  C   UNL     1      45.150   4.452   8.929  0.00  0.00    +0.000 A 
ATOM      6  C   UNL     1      44.595   3.407   9.679  0.00  0.00    +0.000 A 
ATOM      7  C   UNL     1      44.954   2.086   9.380  0.00  0.00    +0.000 A 
ATOM      8  C   UNL     1      45.876   1.816   8.365  0.00  0.00    +0.000 A 
BRANCH   3  10
ATOM      9  N   UNL     1      47.374   3.235   5.422  0.00  0.00    +0.000 N 
ATOM     10  C   UNL     1      47.456   2.541   6.597  0.00  0.00    +0.000 C 
ATOM     11  O   UNL     1      48.345   1.719   6.783  0.00  0.00    +0.000 OA
ATOM     12  H   UNL     1      48.133   3.094   4.769  0.00  0.00    +0.000 HD
ATOM     13  H   UNL     1      46.840   4.090   5.342  0.00  0.00    +0.000 HD
ENDBRANCH   3  10
ENDBRANCH   2   6
ENDBRANCH   1   2
BRANCH   1  14
ATOM     14  O   UNL     1      43.503   5.584  12.264  0.00  0.00    +0.000 OA
BRANCH  14  15
ATOM     15  C   UNL     1      44.799   5.572  12.716  0.00  0.00    +0.000 A 
ATOM     16  C   UNL     1      45.368   4.556  13.483  0.00  0.00    +0.000 A 
ATOM     17  C   UNL     1      46.695   4.648  13.887  0.00  0.00    +0.000 A 
ATOM     18  C   UNL     1      47.468   5.748  13.511  0.00  0.00    +0.000 A 
ATOM     19  C   UNL     1      46.946   6.765  12.690  0.00  0.00    +0.000 A 
ATOM     20  C   UNL     1      45.592   6.656  12.314  0.00  0.00    +0.000 A 
BRANCH  19  21
ATOM     21  C   UNL     1      47.810   7.869  12.202  0.00  0.00    +0.000 A 
ATOM     22  C   UNL     1      47.325   9.189  12.144  0.00  0.00    +0.000 A 
ATOM     23  C   UNL     1      48.131  10.253  11.728  0.00  0.00    +0.000 A 
ATOM     24  C   UNL     1      49.454  10.021  11.368  0.00  0.00    +0.000 A 
ATOM     25  C   UNL     1      49.959   8.725  11.408  0.00  0.00    +0.000 A 
ATOM     26  C   UNL     1      49.144   7.660  11.813  0.00  0.00    +0.000 A 
ENDBRANCH  19  21
ENDBRANCH  14  15
ENDBRANCH   1  14
TORSDOF 6
ENDMDL
MODEL 4
REMARK VINA RESULT:    -7.766      1.855      2.804
REMARK INTER + INTRA:         -11.442
REMARK INTER:                 -10.500
REMARK INTRA:                  -0.941
REMARK UNBOUND:                -0.952
REMARK  Name = 
REMARK  6 active torsions:
REMARK  status: ('A' for Active; 'I' for Inactive)
REMARK    1  A    between atoms: C_2  and  C_4
REMARK    2  A    between atoms: C_7  and  C_8
REMARK    3  A    between atoms: C_8  and  C_9
REMARK    4  A    between atoms: C_9  and  O_10
REMARK    5  A    between atoms: O_10  and  C_11
REMARK    6  A    between atoms: C_15  and  C_16
REMARK                            x       y       z     vdW  Elec       q    Type
REMARK                         _______ _______ _______ _____ _____    ______ ____
ROOT
ATOM      1  C   UNL     1      44.316   4.693  11.709  0.00  0.00    +0.000 C 
ENDROOT
BRANCH   1   2
ATOM      2  C   UNL     1      43.782   4.593  10.281  0.00  0.00    +0.000 C 
BRANCH   2   6
ATOM      3  C   UNL     1      46.515   2.488   7.682  0.00  0.00    +0.000 A 
ATOM      4  C   UNL     1      46.415   3.882   7.616  0.00  0.00    +0.000 A 
ATOM      5  C   UNL     1      45.532   4.561   8.461  0.00  0.00    +0.000 A 
ATOM      6  C   UNL     1      44.744   3.857   9.380  0.00  0.00    +0.000 A 
ATOM      7  C   UNL     1      44.824   2.458   9.419  0.00  0.00    +0.000 A 
ATOM      8  C   UNL     1      45.702   1.777   8.572  0.00  0.00    +0.000 A 
BRANCH   3  10
ATOM      9  N   UNL     1      48.566   2.394   6.377  0.00  0.00    +0.000 N 
ATOM     10  C   UNL     1      47.457   1.729   6.821  0.00  0.00    +0.000 C 
ATOM     11  O   UNL     1      47.279   0.549   6.551  0.00  0.00    +0.000 OA
ATOM     12  H   UNL     1      49.258   1.833   5.899  0.00  0.00    +0.000 HD
ATOM     13  H   UNL     1      48.875   3.261   6.797  0.00  0.00    +0.000 HD
ENDBRANCH   3  10
ENDBRANCH   2   6
ENDBRANCH   1   2
BRANCH   1  14
ATOM     14  O   UNL     1      45.705   5.039  11.668  0.00  0.00    +0.000 OA
BRANCH  14  15
ATOM     15  C   UNL     1      45.998   6.343  11.977  0.00  0.00    +0.000 A 
ATOM     16  C   UNL     1      45.147   7.214  12.656  0.00  0.00    +0.000 A 
ATOM     17  C   UNL     1      45.549   8.519  12.917  0.00  0.00    +0.000 A 
ATOM     18  C   UNL     1      46.812   8.957  12.516  0.00  0.00    +0.000 A 
ATOM     19  C   UNL     1      47.721   8.092  11.878  0.00  0.00    +0.000 A 
ATOM     20  C   UNL     1      47.278   6.781  11.608  0.00  0.00    +0.000 A 
BRANCH  19  21
ATOM     21  C   UNL     1      49.101   8.536  11.561  0.00  0.00    +0.000 A 
ATOM     22  C   UNL     1      49.410   9.905  11.458  0.00  0.00    +0.000 A 
ATOM     23  C   UNL     1      50.711  10.350  11.201  0.00  0.00    +0.000 A 
ATOM     24  C   UNL     1      51.742   9.429  11.052  0.00  0.00    +0.000 A 
ATOM     25  C   UNL     1      51.465   8.068  11.142  0.00  0.00    +0.000 A 
ATOM     26  C   UNL     1      50.158   7.626  11.386  0.00  0.00    +0.000 A 
ENDBRANCH  19  21
ENDBRANCH  14  15
ENDBRANCH   1  14
TORSDOF 6
ENDMDL
MODEL 5
REMARK VINA RESULT:    -7.763      3.352      7.595
REMARK INTER + INTRA:         -11.438
REMARK INTER:                 -10.336
REMARK INTRA:                  -1.102
REMARK UNBOUND:                -0.952
REMARK  Name = 
REMARK  6 active torsions:
REMARK  status: ('A' for Active; 'I' for Inactive)
REMARK    1  A    between atoms: C_2  and  C_4
REMARK    2  A    between atoms: C_7  and  C_8
REMARK    3  A    between atoms: C_8  and  C_9
REMARK    4  A    between atoms: C_9  and  O_10
REMARK    5  A    between atoms: O_10  and  C_11
REMARK    6  A    between atoms: C_15  and  C_16
REMARK                            x       y       z     vdW  Elec       q    Type
REMARK                         _______ _______ _______ _____ _____    ______ ____
ROOT
ATOM      1  C   UNL     1      45.404   6.982  11.914  0.00  0.00    +0.000 C 
ENDROOT
BRANCH   1   2
ATOM      2  C   UNL     1      46.883   7.004  12.297  0.00  0.00    +0.000 C 
BRANCH   2   6
ATOM      3  C   UNL     1      47.729   4.327  15.580  0.00  0.00    +0.000 A 
ATOM      4  C   UNL     1      48.291   5.608  15.554  0.00  0.00    +0.000 A 
ATOM      5  C   UNL     1      48.012   6.474  14.493  0.00  0.00    +0.000 A 
ATOM      6  C   UNL     1      47.170   6.071  13.449  0.00  0.00    +0.000 A 
ATOM      7  C   UNL     1      46.636   4.775  13.462  0.00  0.00    +0.000 A 
ATOM      8  C   UNL     1      46.918   3.906  14.520  0.00  0.00    +0.000 A 
BRANCH   3  10
ATOM      9  N   UNL     1      46.900   3.022  17.459  0.00  0.00    +0.000 N 
ATOM     10  C   UNL     1      47.978   3.385  16.699  0.00  0.00    +0.000 C 
ATOM     11  O   UNL     1      49.088   2.915  16.915  0.00  0.00    +0.000 OA
ATOM     12  H   UNL     1      47.060   2.288  18.135  0.00  0.00    +0.000 HD
ATOM     13  H   UNL     1      45.950   3.172  17.146  0.00  0.00    +0.000 HD
ENDBRANCH   3  10
ENDBRANCH   2   6
ENDBRANCH   1   2
BRANCH   1  14
ATOM     14  O   UNL     1      45.279   6.593  10.542  0.00  0.00    +0.000 OA
BRANCH  14  15
ATOM     15  C   UNL     1      44.972   5.272  10.329  0.00  0.00    +0.000 A 
ATOM     16  C   UNL     1      44.013   4.551  11.037  0.00  0.00    +0.000 A 
ATOM     17  C   UNL     1      43.783   3.213  10.735  0.00  0.00    +0.000 A 
ATOM     18  C   UNL     1      44.498   2.594   9.709  0.00  0.00    +0.000 A 
ATOM     19  C   UNL     1      45.434   3.303   8.934  0.00  0.00    +0.000 A 
ATOM     20  C   UNL     1      45.661   4.652   9.277  0.00  0.00    +0.000 A 
BRANCH  19  21
ATOM     21  C   UNL     1      46.102   2.665   7.772  0.00  0.00    +0.000 A 
ATOM     22  C   UNL     1      46.290   3.376   6.572  0.00  0.00    +0.000 A 
ATOM     23  C   UNL     1      46.953   2.812   5.478  0.00  0.00    +0.000 A 
ATOM     24  C   UNL     1      47.457   1.520   5.563  0.00  0.00    +0.000 A 
ATOM     25  C   UNL     1      47.281   0.790   6.735  0.00  0.00    +0.000 A 
ATOM     26  C   UNL     1      46.604   1.354   7.824  0.00  0.00    +0.000 A 
ENDBRANCH  19  21
ENDBRANCH  14  15
ENDBRANCH   1  14
TORSDOF 6
ENDMDL
MODEL 6
REMARK VINA RESULT:    -6.978      3.117      7.050
REMARK INTER + INTRA:         -10.378
REMARK INTER:                  -9.436
REMARK INTRA:                  -0.941
REMARK UNBOUND:                -0.952
REMARK  Name = 
REMARK  6 active torsions:
REMARK  status: ('A' for Active; 'I' for Inactive)
REMARK    1  A    between atoms: C_2  and  C_4
REMARK    2  A    between atoms: C_7  and  C_8
REMARK    3  A    between atoms: C_8  and  C_9
REMARK    4  A    between atoms: C_9  and  O_10
REMARK    5  A    between atoms: O_10  and  C_11
REMARK    6  A    between atoms: C_15  and  C_16
REMARK                            x       y       z     vdW  Elec       q    Type
REMARK                         _______ _______ _______ _____ _____    ______ ____
ROOT
ATOM      1  C   UNL     1      45.525   7.686  12.820  0.00  0.00    +0.000 C 
ENDROOT
BRANCH   1   2
ATOM      2  C   UNL     1      46.288   9.007  12.731  0.00  0.00    +0.000 C 
BRANCH   2   6
ATOM      3  C   UNL     1      50.341   8.410  11.363  0.00  0.00    +0.000 A 
ATOM      4  C   UNL     1      49.580   7.322  11.805  0.00  0.00    +0.000 A 
ATOM      5  C   UNL     1      48.267   7.517  12.243  0.00  0.00    +0.000 A 
ATOM      6  C   UNL     1      47.701   8.798  12.243  0.00  0.00    +0.000 A 
ATOM      7  C   UNL     1      48.478   9.889  11.831  0.00  0.00    +0.000 A 
ATOM      8  C   UNL     1      49.793   9.697  11.397  0.00  0.00    +0.000 A 
BRANCH   3  10
ATOM      9  N   UNL     1      52.155   6.966  10.624  0.00  0.00    +0.000 N 
ATOM     10  C   UNL     1      51.730   8.244  10.866  0.00  0.00    +0.000 C 
ATOM     11  O   UNL     1      52.456   9.203  10.639  0.00  0.00    +0.000 OA
ATOM     12  H   UNL     1      53.054   6.877  10.169  0.00  0.00    +0.000 HD
ATOM     13  H   UNL     1      51.508   6.194  10.539  0.00  0.00    +0.000 HD
ENDBRANCH   3  10
ENDBRANCH   2   6
ENDBRANCH   1   2
BRANCH   1  14
ATOM     14  O   UNL     1      44.787   7.487  11.610  0.00  0.00    +0.000 OA
BRANCH  14  15
ATOM     15  C   UNL     1      44.362   6.202  11.383  0.00  0.00    +0.000 A 
ATOM     16  C   UNL     1      43.261   5.604  11.995  0.00  0.00    +0.000 A 
ATOM     17  C   UNL     1      42.920   4.292  11.689  0.00  0.00    +0.000 A 
ATOM     18  C   UNL     1      43.666   3.575  10.752  0.00  0.00    +0.000 A 
ATOM     19  C   UNL     1      44.748   4.161  10.071  0.00  0.00    +0.000 A 
ATOM     20  C   UNL     1      45.085   5.485  10.418  0.00  0.00    +0.000 A 
BRANCH  19  21
ATOM     21  C   UNL     1      45.460   3.426   8.995  0.00  0.00    +0.000 A 
ATOM     22  C   UNL     1      46.091   4.122   7.946  0.00  0.00    +0.000 A 
ATOM     23  C   UNL     1      46.803   3.456   6.944  0.00  0.00    +0.000 A 
ATOM     24  C   UNL     1      46.911   2.071   6.974  0.00  0.00    +0.000 A 
ATOM     25  C   UNL     1      46.292   1.356   7.995  0.00  0.00    +0.000 A 
ATOM     26  C   UNL     1      45.569   2.025   8.989  0.00  0.00    +0.000 A 
ENDBRANCH  19  21
ENDBRANCH  14  15
ENDBRANCH   1  14
TORSDOF 6
ENDMDL
MODEL 7
REMARK VINA RESULT:    -6.665      4.943      7.954
REMARK INTER + INTRA:          -9.955
REMARK INTER:                  -9.129
REMARK INTRA:                  -0.826
REMARK UNBOUND:                -0.952
REMARK  Name = 
REMARK  6 active torsions:
REMARK  status: ('A' for Active; 'I' for Inactive)
REMARK    1  A    between atoms: C_2  and  C_4
REMARK    2  A    between atoms: C_7  and  C_8
REMARK    3  A    between atoms: C_8  and  C_9
REMARK    4  A    between atoms: C_9  and  O_10
REMARK    5  A    between atoms: O_10  and  C_11
REMARK    6  A    between atoms: C_15  and  C_16
REMARK                            x       y       z     vdW  Elec       q    Type
REMARK                         _______ _______ _______ _____ _____    ______ ____
ROOT
ATOM      1  C   UNL     1      48.833   6.822  16.257  0.00  0.00    +0.000 C 
ENDROOT
BRANCH   1   2
ATOM      2  C   UNL     1      48.374   5.813  17.308  0.00  0.00    +0.000 C 
BRANCH   2   6
ATOM      3  C   UNL     1      51.052   2.434  17.570  0.00  0.00    +0.000 A 
ATOM      4  C   UNL     1      49.746   2.262  17.098  0.00  0.00    +0.000 A 
ATOM      5  C   UNL     1      48.883   3.357  17.010  0.00  0.00    +0.000 A 
ATOM      6  C   UNL     1      49.314   4.635  17.391  0.00  0.00    +0.000 A 
ATOM      7  C   UNL     1      50.612   4.796  17.894  0.00  0.00    +0.000 A 
ATOM      8  C   UNL     1      51.475   3.701  17.987  0.00  0.00    +0.000 A 
BRANCH   3  10
ATOM      9  N   UNL     1      51.536   0.125  18.164  0.00  0.00    +0.000 N 
ATOM     10  C   UNL     1      52.009   1.303  17.655  0.00  0.00    +0.000 C 
ATOM     11  O   UNL     1      53.161   1.397  17.251  0.00  0.00    +0.000 OA
ATOM     12  H   UNL     1      52.159  -0.669  18.100  0.00  0.00    +0.000 HD
ATOM     13  H   UNL     1      50.546  -0.063  18.247  0.00  0.00    +0.000 HD
ENDBRANCH   3  10
ENDBRANCH   2   6
ENDBRANCH   1   2
BRANCH   1  14
ATOM     14  O   UNL     1      49.240   6.121  15.077  0.00  0.00    +0.000 OA
BRANCH  14  15
ATOM     15  C   UNL     1      48.664   6.550  13.908  0.00  0.00    +0.000 A 
ATOM     16  C   UNL     1      49.266   7.409  12.989  0.00  0.00    +0.000 A 
ATOM     17  C   UNL     1      48.588   7.778  11.833  0.00  0.00    +0.000 A 
ATOM     18  C   UNL     1      47.311   7.275  11.578  0.00  0.00    +0.000 A 
ATOM     19  C   UNL     1      46.694   6.362  12.452  0.00  0.00    +0.000 A 
ATOM     20  C   UNL     1      47.395   6.022  13.627  0.00  0.00    +0.000 A 
BRANCH  19  21
ATOM     21  C   UNL     1      45.387   5.745  12.112  0.00  0.00    +0.000 A 
ATOM     22  C   UNL     1      45.117   5.310  10.802  0.00  0.00    +0.000 A 
ATOM     23  C   UNL     1      43.910   4.688  10.466  0.00  0.00    +0.000 A 
ATOM     24  C   UNL     1      42.943   4.478  11.442  0.00  0.00    +0.000 A 
ATOM     25  C   UNL     1      43.180   4.904  12.745  0.00  0.00    +0.000 A 
ATOM     26  C   UNL     1      44.384   5.538  13.075  0.00  0.00    +0.000 A 
ENDBRANCH  19  21
ENDBRANCH  14  15
ENDBRANCH   1  14
TORSDOF 6
ENDMDL
MODEL 8
REMARK VINA RESULT:    -6.532      2.039      2.853
REMARK INTER + INTRA:          -9.775
REMARK INTER:                  -9.093
REMARK INTRA:                  -0.682
REMARK UNBOUND:                -0.952
REMARK  Name = 
REMARK  6 active torsions:
REMARK  status: ('A' for Active; 'I' for Inactive)
REMARK    1  A    between atoms: C_2  and  C_4
REMARK    2  A    between atoms: C_7  and  C_8
REMARK    3  A    between atoms: C_8  and  C_9
REMARK    4  A    between atoms: C_9  and  O_10
REMARK    5  A    between atoms: O_10  and  C_11
REMARK    6  A    between atoms: C_15  and  C_16
REMARK                            x       y       z     vdW  Elec       q    Type
REMARK                         _______ _______ _______ _____ _____    ______ ____
ROOT
ATOM      1  C   UNL     1      44.695   3.785   8.898  0.00  0.00    +0.000 C 
ENDROOT
BRANCH   1   2
ATOM      2  C   UNL     1      46.148   3.861   8.431  0.00  0.00    +0.000 C 
BRANCH   2   6
ATOM      3  C   UNL     1      46.973   1.031   5.273  0.00  0.00    +0.000 A 
ATOM      4  C   UNL     1      46.972   0.614   6.609  0.00  0.00    +0.000 A 
ATOM      5  C   UNL     1      46.701   1.531   7.629  0.00  0.00    +0.000 A 
ATOM      6  C   UNL     1      46.426   2.871   7.326  0.00  0.00    +0.000 A 
ATOM      7  C   UNL     1      46.461   3.290   5.989  0.00  0.00    +0.000 A 
ATOM      8  C   UNL     1      46.737   2.376   4.968  0.00  0.00    +0.000 A 
BRANCH   3  10
ATOM      9  N   UNL     1      46.953  -1.234   4.385  0.00  0.00    +0.000 N 
ATOM     10  C   UNL     1      47.231   0.086   4.158  0.00  0.00    +0.000 C 
ATOM     11  O   UNL     1      47.634   0.467   3.067  0.00  0.00    +0.000 OA
ATOM     12  H   UNL     1      47.013  -1.844   3.581  0.00  0.00    +0.000 HD
ATOM     13  H   UNL     1      46.374  -1.533   5.159  0.00  0.00    +0.000 HD
ENDBRANCH   3  10
ENDBRANCH   2   6
ENDBRANCH   1   2
BRANCH   1  14
ATOM     14  O   UNL     1      44.414   4.906   9.743  0.00  0.00    +0.000 OA
BRANCH  14  15
ATOM     15  C   UNL     1      45.122   4.953  10.918  0.00  0.00    +0.000 A 
ATOM     16  C   UNL     1      45.149   3.940  11.875  0.00  0.00    +0.000 A 
ATOM     17  C   UNL     1      45.904   4.095  13.032  0.00  0.00    +0.000 A 
ATOM     18  C   UNL     1      46.653   5.255  13.230  0.00  0.00    +0.000 A 
ATOM     19  C   UNL     1      46.697   6.275  12.262  0.00  0.00    +0.000 A 
ATOM     20  C   UNL     1      45.905   6.101  11.109  0.00  0.00    +0.000 A 
BRANCH  19  21
ATOM     21  C   UNL     1      47.587   7.451  12.432  0.00  0.00    +0.000 A 
ATOM     22  C   UNL     1      48.686   7.649  11.576  0.00  0.00    +0.000 A 
ATOM     23  C   UNL     1      49.515   8.770  11.689  0.00  0.00    +0.000 A 
ATOM     24  C   UNL     1      49.255   9.730  12.661  0.00  0.00    +0.000 A 
ATOM     25  C   UNL     1      48.179   9.556  13.526  0.00  0.00    +0.000 A 
ATOM     26  C   UNL     1      47.360   8.426  13.419  0.00  0.00    +0.000 A 
ENDBRANCH  19  21
ENDBRANCH  14  15
ENDBRANCH   1  14
TORSDOF 6
ENDMDL
MODEL 9
REMARK VINA RESULT:    -6.403      3.857      6.809
REMARK INTER + INTRA:          -9.601
REMARK INTER:                  -8.319
REMARK INTRA:                  -1.282
REMARK UNBOUND:                -0.952
REMARK  Name = 
REMARK  6 active torsions:
REMARK  status: ('A' for Active; 'I' for Inactive)
REMARK    1  A    between atoms: C_2  and  C_4
REMARK    2  A    between atoms: C_7  and  C_8
REMARK    3  A    between atoms: C_8  and  C_9
REMARK    4  A    between atoms: C_9  and  O_10
REMARK    5  A    between atoms: O_10  and  C_11
REMARK    6  A    between atoms: C_15  and  C_16
REMARK                            x       y       z     vdW  Elec       q    Type
REMARK                         _______ _______ _______ _____ _____    ______ ____
ROOT
ATOM      1  C   UNL     1      48.177   8.252  13.274  0.00  0.00    +0.000 C 
ENDROOT
BRANCH   1   2
ATOM      2  C   UNL     1      46.666   8.425  13.133  0.00  0.00    +0.000 C 
BRANCH   2   6
ATOM      3  C   UNL     1      44.763   4.712  12.011  0.00  0.00    +0.000 A 
ATOM      4  C   UNL     1      45.830   4.711  12.918  0.00  0.00    +0.000 A 
ATOM      5  C   UNL     1      46.441   5.914  13.282  0.00  0.00    +0.000 A 
ATOM      6  C   UNL     1      45.994   7.129  12.748  0.00  0.00    +0.000 A 
ATOM      7  C   UNL     1      44.947   7.122  11.815  0.00  0.00    +0.000 A 
ATOM      8  C   UNL     1      44.338   5.920  11.446  0.00  0.00    +0.000 A 
BRANCH   3  10
ATOM      9  N   UNL     1      43.935   2.495  12.576  0.00  0.00    +0.000 N 
ATOM     10  C   UNL     1      44.070   3.461  11.616  0.00  0.00    +0.000 C 
ATOM     11  O   UNL     1      43.599   3.307  10.497  0.00  0.00    +0.000 OA
ATOM     12  H   UNL     1      43.354   1.705  12.331  0.00  0.00    +0.000 HD
ATOM     13  H   UNL     1      44.064   2.696  13.558  0.00  0.00    +0.000 HD
ENDBRANCH   3  10
ENDBRANCH   2   6
ENDBRANCH   1   2
BRANCH   1  14
ATOM     14  O   UNL     1      48.650   9.093  14.331  0.00  0.00    +0.000 OA
BRANCH  14  15
ATOM     15  C   UNL     1      48.566   8.559  15.593  0.00  0.00    +0.000 A 
ATOM     16  C   UNL     1      48.140   9.250  16.726  0.00  0.00    +0.000 A 
ATOM     17  C   UNL     1      48.094   8.607  17.958  0.00  0.00    +0.000 A 
ATOM     18  C   UNL     1      48.455   7.263  18.061  0.00  0.00    +0.000 A 
ATOM     19  C   UNL     1      48.836   6.517  16.931  0.00  0.00    +0.000 A 
ATOM     20  C   UNL     1      48.894   7.200  15.699  0.00  0.00    +0.000 A 
BRANCH  19  21
ATOM     21  C   UNL     1      49.106   5.061  17.034  0.00  0.00    +0.000 A 
ATOM     22  C   UNL     1      48.121   4.120  16.678  0.00  0.00    +0.000 A 
ATOM     23  C   UNL     1      48.365   2.744  16.726  0.00  0.00    +0.000 A 
ATOM     24  C   UNL     1      49.610   2.274  17.126  0.00  0.00    +0.000 A 
ATOM     25  C   UNL     1      50.601   3.180  17.491  0.00  0.00    +0.000 A 
ATOM     26  C   UNL     1      50.349   4.557  17.454  0.00  0.00    +0.000 A 
ENDBRANCH  19  21
ENDBRANCH  14  15
ENDBRANCH   1  14
TORSDOF 6
ENDMDL
