MODEL 1
REMARK VINA RESULT:    -8.242      0.000      0.000
REMARK INTER + INTRA:         -13.733
REMARK INTER:                 -12.578
REMARK INTRA:                  -1.155
REMARK UNBOUND:                -1.155
REMARK  Name = 
REMARK  10 active torsions:
REMARK  status: ('A' for Active; 'I' for Inactive)
REMARK    1  A    between atoms: C_1  and  C_2
REMARK    2  A    between atoms: C_2  and  C_3
REMARK    3  A    between atoms: C_3  and  C_4
REMARK    4  A    between atoms: C_4  and  N_5
REMARK    5  A    between atoms: C_4  and  C_13
REMARK    6  A    between atoms: N_5  and  C_6
REMARK    7  A    between atoms: C_6  and  C_7
REMARK    8  A    between atoms: C_16  and  C_17
REMARK    9  A    between atoms: C_17  and  N_18
REMARK   10  A    between atoms: C_19  and  C_21
REMARK                            x       y       z     vdW  Elec       q    Type
REMARK                         _______ _______ _______ _____ _____    ______ ____
ROOT
ATOM      1  C   UNL     1      45.553   4.748  11.826  0.00  0.00    +0.000 A 
ATOM      2  C   UNL     1      46.056   4.302  13.062  0.00  0.00    +0.000 A 
ATOM      3  C   UNL     1      47.036   5.036  13.747  0.00  0.00    +0.000 A 
ATOM      4  C   UNL     1      47.534   6.234  13.220  0.00  0.00    +0.000 A 
ATOM      5  C   UNL     1      47.037   6.679  11.991  0.00  0.00    +0.000 A 
ATOM      6  C   UNL     1      46.041   5.963  11.323  0.00  0.00    +0.000 A 
ENDROOT
BRANCH   1   7
ATOM      7  C   UNL     1      44.497   3.927  11.079  0.00  0.00    +0.000 C 
BRANCH   7   8
ATOM      8  N   UNL     1      45.083   2.622  10.722  0.00  0.00    +0.000 NA
ATOM      9  H   UNL     1      46.096   2.734  10.657  0.00  0.00    +0.000 HD
BRANCH   8  10
ATOM     10  C   UNL     1      44.615   2.090   9.433  0.00  0.00    +0.000 C 
BRANCH  10  11
ATOM     11  C   UNL     1      45.687   2.156   8.361  0.00  0.00    +0.000 A 
ATOM     12  C   UNL     1      45.921   3.356   7.688  0.00  0.00    +0.000 A 
ATOM     13  C   UNL     1      46.916   3.402   6.718  0.00  0.00    +0.000 A 
ATOM     14  C   UNL     1      47.657   2.257   6.453  0.00  0.00    +0.000 A 
ATOM     15  C   UNL     1      47.369   1.110   7.173  0.00  0.00    +0.000 A 
ATOM     16  N   UNL     1      46.405   1.031   8.116  0.00  0.00    +0.000 NA
ENDBRANCH  10  11
ENDBRANCH   8  10
ENDBRANCH   7   8
BRANCH   7  17
ATOM     17  C   UNL     1      43.179   3.754  11.879  0.00  0.00    +0.000 C 
BRANCH  17  19
ATOM     18  C   UNL     1      42.245   6.071  11.698  0.00  0.00    +0.000 C 
ATOM     19  C   UNL     1      42.744   5.000  12.654  0.00  0.00    +0.000 C 
ENDBRANCH  17  19
ENDBRANCH   7  17
ENDBRANCH   1   7
BRANCH   4  20
ATOM     20  C   UNL     1      48.602   7.027  13.925  0.00  0.00    +0.000 C 
BRANCH  20  21
ATOM     21  N   UNL     1      48.300   7.183  15.325  0.00  0.00    +0.000 N 
ATOM     22  C   UNL     1      49.123   6.664  16.291  0.00  0.00    +0.000 C 
ATOM     23  O   UNL     1      50.170   6.086  16.012  0.00  0.00    +0.000 OA
ATOM     24  H   UNL     1      47.348   7.441  15.565  0.00  0.00    +0.000 HD
BRANCH  22  25
ATOM     25  C   UNL     1      48.722   6.893  17.686  0.00  0.00    +0.000 A 
ATOM     26  C   UNL     1      48.384   8.173  18.103  0.00  0.00    +0.000 A 
ATOM     27  S   UNL     1      47.877   8.252  19.729  0.00  0.00    +0.000 S 
ATOM     28  C   UNL     1      48.147   6.587  19.950  0.00  0.00    +0.000 A 
ATOM     29  N   UNL     1      47.921   5.998  21.155  0.00  0.00    +0.000 NA
ATOM     30  C   UNL     1      48.203   4.738  21.194  0.00  0.00    +0.000 A 
ATOM     31  N   UNL     1      48.687   4.015  20.136  0.00  0.00    +0.000 N 
ATOM     32  C   UNL     1      48.901   4.559  18.891  0.00  0.00    +0.000 A 
ATOM     33  O   UNL     1      49.298   3.873  17.956  0.00  0.00    +0.000 OA
ATOM     34  C   UNL     1      48.606   5.977  18.797  0.00  0.00    +0.000 A 
ATOM     35  H   UNL     1      48.884   3.029  20.230  0.00  0.00    +0.000 HD
ENDBRANCH  22  25
ENDBRANCH  20  21
ENDBRANCH   4  20
TORSDOF 9
ENDMDL
MODEL 2
REMARK VINA RESULT:    -8.114      1.353      2.239
REMARK INTER + INTRA:         -13.538
REMARK INTER:                 -12.081
REMARK INTRA:                  -1.458
REMARK UNBOUND:                -1.155
REMARK  Name = 
REMARK  10 active torsions:
REMARK  status: ('A' for Active; 'I' for Inactive)
REMARK    1  A    between atoms: C_1  and  C_2
REMARK    2  A    between atoms: C_2  and  C_3
REMARK    3  A    between atoms: C_3  and  C_4
REMARK    4  A    between atoms: C_4  and  N_5
REMARK    5  A    between atoms: C_4  and  C_13
REMARK    6  A    between atoms: N_5  and  C_6
REMARK    7  A    between atoms: C_6  and  C_7
REMARK    8  A    between atoms: C_16  and  C_17
REMARK    9  A    between atoms: C_17  and  N_18
REMARK   10  A    between atoms: C_19  and  C_21
REMARK                            x       y       z     vdW  Elec       q    Type
REMARK                         _______ _______ _______ _____ _____    ______ ____
ROOT
ATOM      1  C   UNL     1      45.563   4.680  11.848  0.00  0.00    +0.000 A 
ATOM      2  C   UNL     1      46.062   5.898  11.354  0.00  0.00    +0.000 A 
ATOM      3  C   UNL     1      47.038   6.616  12.060  0.00  0.00    +0.000 A 
ATOM      4  C   UNL     1      47.545   6.134  13.273  0.00  0.00    +0.000 A 
ATOM      5  C   UNL     1      47.050   4.924  13.769  0.00  0.00    +0.000 A 
ATOM      6  C   UNL     1      46.098   4.195  13.051  0.00  0.00    +0.000 A 
ENDROOT
BRANCH   1   7
ATOM      7  C   UNL     1      44.481   3.915  11.077  0.00  0.00    +0.000 C 
BRANCH   7   8
ATOM      8  N   UNL     1      45.025   2.604  10.683  0.00  0.00    +0.000 NA
ATOM      9  H   UNL     1      46.043   2.680  10.637  0.00  0.00    +0.000 HD
BRANCH   8  10
ATOM     10  C   UNL     1      44.560   2.134   9.369  0.00  0.00    +0.000 C 
BRANCH  10  11
ATOM     11  C   UNL     1      45.656   2.176   8.321  0.00  0.00    +0.000 A 
ATOM     12  C   UNL     1      45.904   3.358   7.624  0.00  0.00    +0.000 A 
ATOM     13  C   UNL     1      46.922   3.383   6.677  0.00  0.00    +0.000 A 
ATOM     14  C   UNL     1      47.672   2.234   6.460  0.00  0.00    +0.000 A 
ATOM     15  C   UNL     1      47.370   1.105   7.202  0.00  0.00    +0.000 A 
ATOM     16  N   UNL     1      46.383   1.047   8.123  0.00  0.00    +0.000 NA
ENDBRANCH  10  11
ENDBRANCH   8  10
ENDBRANCH   7   8
BRANCH   7  17
ATOM     17  C   UNL     1      43.158   3.762  11.871  0.00  0.00    +0.000 C 
BRANCH  17  19
ATOM     18  C   UNL     1      42.313   6.105  11.599  0.00  0.00    +0.000 C 
ATOM     19  C   UNL     1      42.709   5.031  12.600  0.00  0.00    +0.000 C 
ENDBRANCH  17  19
ENDBRANCH   7  17
ENDBRANCH   1   7
BRANCH   4  20
ATOM     20  C   UNL     1      48.576   6.897  14.061  0.00  0.00    +0.000 C 
BRANCH  20  21
ATOM     21  N   UNL     1      48.256   6.915  15.465  0.00  0.00    +0.000 N 
ATOM     22  C   UNL     1      49.148   6.466  16.403  0.00  0.00    +0.000 C 
ATOM     23  O   UNL     1      50.272   6.073  16.097  0.00  0.00    +0.000 OA
ATOM     24  H   UNL     1      47.275   7.009  15.713  0.00  0.00    +0.000 HD
BRANCH  22  25
ATOM     25  C   UNL     1      48.719   6.540  17.806  0.00  0.00    +0.000 A 
ATOM     26  C   UNL     1      48.791   5.409  18.607  0.00  0.00    +0.000 A 
ATOM     27  S   UNL     1      48.321   5.682  20.223  0.00  0.00    +0.000 S 
ATOM     28  C   UNL     1      47.950   7.310  19.896  0.00  0.00    +0.000 A 
ATOM     29  N   UNL     1      47.467   8.125  20.872  0.00  0.00    +0.000 NA
ATOM     30  C   UNL     1      47.192   9.324  20.478  0.00  0.00    +0.000 A 
ATOM     31  N   UNL     1      47.359   9.781  19.198  0.00  0.00    +0.000 N 
ATOM     32  C   UNL     1      47.873   9.005  18.185  0.00  0.00    +0.000 A 
ATOM     33  O   UNL     1      48.046   9.457  17.060  0.00  0.00    +0.000 OA
ATOM     34  C   UNL     1      48.191   7.643  18.576  0.00  0.00    +0.000 A 
ATOM     35  H   UNL     1      47.129  10.733  18.953  0.00  0.00    +0.000 HD
ENDBRANCH  22  25
ENDBRANCH  20  21
ENDBRANCH   4  20
TORSDOF 9
ENDMDL
MODEL 3
REMARK VINA RESULT:    -8.052      1.834      2.274
REMARK INTER + INTRA:         -13.444
REMARK INTER:                 -11.913
REMARK INTRA:                  -1.531
REMARK UNBOUND:                -1.155
REMARK  Name = 
REMARK  10 active torsions:
REMARK  status: ('A' for Active; 'I' for Inactive)
REMARK    1  A    between atoms: C_1  and  C_2
REMARK    2  A    between atoms: C_2  and  C_3
REMARK    3  A    between atoms: C_3  and  C_4
REMARK    4  A    between atoms: C_4  and  N_5
REMARK    5  A    between atoms: C_4  and  C_13
REMARK    6  A    between atoms: N_5  and  C_6
REMARK    7  A    between atoms: C_6  and  C_7
REMARK    8  A    between atoms: C_16  and  C_17
REMARK    9  A    between atoms: C_17  and  N_18
REMARK   10  A    between atoms: C_19  and  C_21
REMARK                            x       y       z     vdW  Elec       q    Type
REMARK                         _______ _______ _______ _____ _____    ______ ____
ROOT
ATOM      1  C   UNL     1      45.188   6.373  11.070  0.00  0.00    +0.000 A 
ATOM      2  C   UNL     1      44.888   7.682  11.486  0.00  0.00    +0.000 A 
ATOM      3  C   UNL     1      45.727   8.364  12.380  0.00  0.00    +0.000 A 
ATOM      4  C   UNL     1      46.888   7.759  12.876  0.00  0.00    +0.000 A 
ATOM      5  C   UNL     1      47.189   6.457  12.466  0.00  0.00    +0.000 A 
ATOM      6  C   UNL     1      46.369   5.789  11.553  0.00  0.00    +0.000 A 
ENDROOT
BRANCH   1   7
ATOM      7  C   UNL     1      44.253   5.632  10.108  0.00  0.00    +0.000 C 
BRANCH   7   8
ATOM      8  N   UNL     1      45.072   4.961   9.083  0.00  0.00    +0.000 NA
ATOM      9  H   UNL     1      44.979   5.481   8.208  0.00  0.00    +0.000 HD
BRANCH   8  10
ATOM     10  C   UNL     1      44.669   3.572   8.812  0.00  0.00    +0.000 C 
BRANCH  10  11
ATOM     11  C   UNL     1      45.718   2.812   8.022  0.00  0.00    +0.000 A 
ATOM     12  C   UNL     1      46.430   3.460   7.013  0.00  0.00    +0.000 A 
ATOM     13  C   UNL     1      47.398   2.752   6.309  0.00  0.00    +0.000 A 
ATOM     14  C   UNL     1      47.637   1.424   6.636  0.00  0.00    +0.000 A 
ATOM     15  C   UNL     1      46.894   0.857   7.659  0.00  0.00    +0.000 A 
ATOM     16  N   UNL     1      45.943   1.516   8.356  0.00  0.00    +0.000 NA
ENDBRANCH  10  11
ENDBRANCH   8  10
ENDBRANCH   7   8
BRANCH   7  17
ATOM     17  C   UNL     1      43.311   4.629  10.824  0.00  0.00    +0.000 C 
BRANCH  17  19
ATOM     18  C   UNL     1      42.990   4.759  13.305  0.00  0.00    +0.000 C 
ATOM     19  C   UNL     1      42.482   5.241  11.955  0.00  0.00    +0.000 C 
ENDBRANCH  17  19
ENDBRANCH   7  17
ENDBRANCH   1   7
BRANCH   4  20
ATOM     20  C   UNL     1      47.792   8.461  13.855  0.00  0.00    +0.000 C 
BRANCH  20  21
ATOM     21  N   UNL     1      48.043   7.645  15.015  0.00  0.00    +0.000 N 
ATOM     22  C   UNL     1      49.248   7.018  15.195  0.00  0.00    +0.000 C 
ATOM     23  O   UNL     1      50.179   7.157  14.405  0.00  0.00    +0.000 OA
ATOM     24  H   UNL     1      47.233   7.333  15.543  0.00  0.00    +0.000 HD
BRANCH  22  25
ATOM     25  C   UNL     1      49.396   6.219  16.419  0.00  0.00    +0.000 A 
ATOM     26  C   UNL     1      50.386   6.545  17.336  0.00  0.00    +0.000 A 
ATOM     27  S   UNL     1      50.378   5.565  18.731  0.00  0.00    +0.000 S 
ATOM     28  C   UNL     1      49.086   4.633  18.134  0.00  0.00    +0.000 A 
ATOM     29  N   UNL     1      48.590   3.588  18.849  0.00  0.00    +0.000 NA
ATOM     30  C   UNL     1      47.637   2.944  18.262  0.00  0.00    +0.000 A 
ATOM     31  N   UNL     1      47.134   3.252  17.025  0.00  0.00    +0.000 N 
ATOM     32  C   UNL     1      47.582   4.317  16.278  0.00  0.00    +0.000 A 
ATOM     33  O   UNL     1      47.083   4.588  15.192  0.00  0.00    +0.000 OA
ATOM     34  C   UNL     1      48.660   5.070  16.892  0.00  0.00    +0.000 A 
ATOM     35  H   UNL     1      46.384   2.710  16.621  0.00  0.00    +0.000 HD
ENDBRANCH  22  25
ENDBRANCH  20  21
ENDBRANCH   4  20
TORSDOF 9
ENDMDL
MODEL 4
REMARK VINA RESULT:    -7.127      2.508      3.432
REMARK INTER + INTRA:         -12.033
REMARK INTER:                 -10.814
REMARK INTRA:                  -1.218
REMARK UNBOUND:                -1.155
REMARK  Name = 
REMARK  10 active torsions:
REMARK  status: ('A' for Active; 'I' for Inactive)
REMARK    1  A    between atoms: C_1  and  C_2
REMARK    2  A    between atoms: C_2  and  C_3
REMARK    3  A    between atoms: C_3  and  C_4
REMARK    4  A    between atoms: C_4  and  N_5
REMARK    5  A    between atoms: C_4  and  C_13
REMARK    6  A    between atoms: N_5  and  C_6
REMARK    7  A    between atoms: C_6  and  C_7
REMARK    8  A    between atoms: C_16  and  C_17
REMARK    9  A    between atoms: C_17  and  N_18
REMARK   10  A    between atoms: C_19  and  C_21
REMARK                            x       y       z     vdW  Elec       q    Type
REMARK                         _______ _______ _______ _____ _____    ______ ____
ROOT
ATOM      1  C   UNL     1      45.590   6.397  11.498  0.00  0.00    +0.000 A 
ATOM      2  C   UNL     1      45.057   7.672  11.761  0.00  0.00    +0.000 A 
ATOM      3  C   UNL     1      45.746   8.588  12.569  0.00  0.00    +0.000 A 
ATOM      4  C   UNL     1      46.985   8.257  13.133  0.00  0.00    +0.000 A 
ATOM      5  C   UNL     1      47.516   6.989  12.876  0.00  0.00    +0.000 A 
ATOM      6  C   UNL     1      46.845   6.089  12.046  0.00  0.00    +0.000 A 
ENDROOT
BRANCH   1   7
ATOM      7  C   UNL     1      44.819   5.399  10.628  0.00  0.00    +0.000 C 
BRANCH   7   8
ATOM      8  N   UNL     1      45.519   5.261   9.339  0.00  0.00    +0.000 NA
ATOM      9  H   UNL     1      45.506   6.169   8.869  0.00  0.00    +0.000 HD
BRANCH   8  10
ATOM     10  C   UNL     1      44.904   4.285   8.426  0.00  0.00    +0.000 C 
BRANCH  10  11
ATOM     11  C   UNL     1      45.897   3.246   7.941  0.00  0.00    +0.000 A 
ATOM     12  C   UNL     1      45.745   1.912   8.319  0.00  0.00    +0.000 A 
ATOM     13  C   UNL     1      46.656   0.970   7.854  0.00  0.00    +0.000 A 
ATOM     14  C   UNL     1      47.685   1.381   7.016  0.00  0.00    +0.000 A 
ATOM     15  C   UNL     1      47.760   2.722   6.679  0.00  0.00    +0.000 A 
ATOM     16  N   UNL     1      46.895   3.661   7.120  0.00  0.00    +0.000 NA
ENDBRANCH  10  11
ENDBRANCH   8  10
ENDBRANCH   7   8
BRANCH   7  17
ATOM     17  C   UNL     1      44.618   4.021  11.312  0.00  0.00    +0.000 C 
BRANCH  17  19
ATOM     18  C   UNL     1      43.055   4.631  13.172  0.00  0.00    +0.000 C 
ATOM     19  C   UNL     1      43.223   3.808  11.904  0.00  0.00    +0.000 C 
ENDBRANCH  17  19
ENDBRANCH   7  17
ENDBRANCH   1   7
BRANCH   4  20
ATOM     20  C   UNL     1      47.732   9.214  14.023  0.00  0.00    +0.000 C 
BRANCH  20  21
ATOM     21  N   UNL     1      47.499   8.924  15.416  0.00  0.00    +0.000 N 
ATOM     22  C   UNL     1      48.422   9.255  16.373  0.00  0.00    +0.000 C 
ATOM     23  O   UNL     1      49.461   9.850  16.098  0.00  0.00    +0.000 OA
ATOM     24  H   UNL     1      46.778   8.241  15.630  0.00  0.00    +0.000 HD
BRANCH  22  25
ATOM     25  C   UNL     1      48.075   8.921  17.762  0.00  0.00    +0.000 A 
ATOM     26  C   UNL     1      48.200   7.612  18.205  0.00  0.00    +0.000 A 
ATOM     27  S   UNL     1      47.824   7.408  19.856  0.00  0.00    +0.000 S 
ATOM     28  C   UNL     1      47.425   9.053  20.023  0.00  0.00    +0.000 A 
ATOM     29  N   UNL     1      46.996   9.550  21.214  0.00  0.00    +0.000 NA
ATOM     30  C   UNL     1      46.691  10.805  21.191  0.00  0.00    +0.000 A 
ATOM     31  N   UNL     1      46.780  11.608  20.084  0.00  0.00    +0.000 N 
ATOM     32  C   UNL     1      47.238  11.159  18.867  0.00  0.00    +0.000 A 
ATOM     33  O   UNL     1      47.342  11.915  17.908  0.00  0.00    +0.000 OA
ATOM     34  C   UNL     1      47.587   9.751  18.839  0.00  0.00    +0.000 A 
ATOM     35  H   UNL     1      46.530  12.585  20.132  0.00  0.00    +0.000 HD
ENDBRANCH  22  25
ENDBRANCH  20  21
ENDBRANCH   4  20
TORSDOF 9
ENDMDL
MODEL 5
REMARK VINA RESULT:    -6.878      1.880      2.439
REMARK INTER + INTRA:         -11.652
REMARK INTER:                 -10.160
REMARK INTRA:                  -1.492
REMARK UNBOUND:                -1.155
REMARK  Name = 
REMARK  10 active torsions:
REMARK  status: ('A' for Active; 'I' for Inactive)
REMARK    1  A    between atoms: C_1  and  C_2
REMARK    2  A    between atoms: C_2  and  C_3
REMARK    3  A    between atoms: C_3  and  C_4
REMARK    4  A    between atoms: C_4  and  N_5
REMARK    5  A    between atoms: C_4  and  C_13
REMARK    6  A    between atoms: N_5  and  C_6
REMARK    7  A    between atoms: C_6  and  C_7
REMARK    8  A    between atoms: C_16  and  C_17
REMARK    9  A    between atoms: C_17  and  N_18
REMARK   10  A    between atoms: C_19  and  C_21
REMARK                            x       y       z     vdW  Elec       q    Type
REMARK                         _______ _______ _______ _____ _____    ______ ____
ROOT
ATOM      1  C   UNL     1      45.790   4.965  12.077  0.00  0.00    +0.000 A 
ATOM      2  C   UNL     1      46.219   6.115  11.391  0.00  0.00    +0.000 A 
ATOM      3  C   UNL     1      47.309   6.865  11.855  0.00  0.00    +0.000 A 
ATOM      4  C   UNL     1      48.000   6.485  13.012  0.00  0.00    +0.000 A 
ATOM      5  C   UNL     1      47.574   5.343  13.698  0.00  0.00    +0.000 A 
ATOM      6  C   UNL     1      46.508   4.580  13.219  0.00  0.00    +0.000 A 
ENDROOT
BRANCH   1   7
ATOM      7  C   UNL     1      44.585   4.164  11.569  0.00  0.00    +0.000 C 
BRANCH   7   8
ATOM      8  N   UNL     1      45.072   2.893  11.005  0.00  0.00    +0.000 NA
ATOM      9  H   UNL     1      46.083   2.964  10.880  0.00  0.00    +0.000 HD
BRANCH   8  10
ATOM     10  C   UNL     1      44.491   2.560   9.695  0.00  0.00    +0.000 C 
BRANCH  10  11
ATOM     11  C   UNL     1      45.534   2.527   8.594  0.00  0.00    +0.000 A 
ATOM     12  C   UNL     1      46.127   1.316   8.237  0.00  0.00    +0.000 A 
ATOM     13  C   UNL     1      47.071   1.302   7.216  0.00  0.00    +0.000 A 
ATOM     14  C   UNL     1      47.389   2.491   6.572  0.00  0.00    +0.000 A 
ATOM     15  C   UNL     1      46.746   3.648   6.979  0.00  0.00    +0.000 A 
ATOM     16  N   UNL     1      45.831   3.696   7.971  0.00  0.00    +0.000 NA
ENDBRANCH  10  11
ENDBRANCH   8  10
ENDBRANCH   7   8
BRANCH   7  17
ATOM     17  C   UNL     1      43.510   3.922  12.660  0.00  0.00    +0.000 C 
BRANCH  17  19
ATOM     18  C   UNL     1      42.398   5.930  11.657  0.00  0.00    +0.000 C 
ATOM     19  C   UNL     1      42.603   5.125  12.931  0.00  0.00    +0.000 C 
ENDBRANCH  17  19
ENDBRANCH   7  17
ENDBRANCH   1   7
BRANCH   4  20
ATOM     20  C   UNL     1      49.158   7.288  13.544  0.00  0.00    +0.000 C 
BRANCH  20  21
ATOM     21  N   UNL     1      49.406   6.994  14.932  0.00  0.00    +0.000 N 
ATOM     22  C   UNL     1      48.954   7.824  15.925  0.00  0.00    +0.000 C 
ATOM     23  O   UNL     1      48.283   8.824  15.683  0.00  0.00    +0.000 OA
ATOM     24  H   UNL     1      50.139   6.322  15.137  0.00  0.00    +0.000 HD
BRANCH  22  25
ATOM     25  C   UNL     1      49.256   7.420  17.305  0.00  0.00    +0.000 A 
ATOM     26  C   UNL     1      48.219   7.229  18.208  0.00  0.00    +0.000 A 
ATOM     27  S   UNL     1      48.735   6.697  19.743  0.00  0.00    +0.000 S 
ATOM     28  C   UNL     1      50.369   6.758  19.274  0.00  0.00    +0.000 A 
ATOM     29  N   UNL     1      51.359   6.434  20.148  0.00  0.00    +0.000 NA
ATOM     30  C   UNL     1      52.553   6.561  19.673  0.00  0.00    +0.000 A 
ATOM     31  N   UNL     1      52.847   6.979  18.402  0.00  0.00    +0.000 N 
ATOM     32  C   UNL     1      51.880   7.287  17.473  0.00  0.00    +0.000 A 
ATOM     33  O   UNL     1      52.177   7.620  16.331  0.00  0.00    +0.000 OA
ATOM     34  C   UNL     1      50.518   7.168  17.961  0.00  0.00    +0.000 A 
ATOM     35  H   UNL     1      53.804   7.053  18.089  0.00  0.00    +0.000 HD
ENDBRANCH  22  25
ENDBRANCH  20  21
ENDBRANCH   4  20
TORSDOF 9
ENDMDL
MODEL 6
REMARK VINA RESULT:    -6.874      4.701      9.616
REMARK INTER + INTRA:         -11.646
REMARK INTER:                 -10.172
REMARK INTRA:                  -1.474
REMARK UNBOUND:                -1.155
REMARK  Name = 
REMARK  10 active torsions:
REMARK  status: ('A' for Active; 'I' for Inactive)
REMARK    1  A    between atoms: C_1  and  C_2
REMARK    2  A    between atoms: C_2  and  C_3
REMARK    3  A    between atoms: C_3  and  C_4
REMARK    4  A    between atoms: C_4  and  N_5
REMARK    5  A    between atoms: C_4  and  C_13
REMARK    6  A    between atoms: N_5  and  C_6
REMARK    7  A    between atoms: C_6  and  C_7
REMARK    8  A    between atoms: C_16  and  C_17
REMARK    9  A    between atoms: C_17  and  N_18
REMARK   10  A    between atoms: C_19  and  C_21
REMARK                            x       y       z     vdW  Elec       q    Type
REMARK                         _______ _______ _______ _____ _____    ______ ____
ROOT
ATOM      1  C   UNL     1      51.346   4.098  18.020  0.00  0.00    +0.000 A 
ATOM      2  C   UNL     1      50.955   2.846  17.513  0.00  0.00    +0.000 A 
ATOM      3  C   UNL     1      49.632   2.614  17.111  0.00  0.00    +0.000 A 
ATOM      4  C   UNL     1      48.667   3.625  17.199  0.00  0.00    +0.000 A 
ATOM      5  C   UNL     1      49.053   4.871  17.705  0.00  0.00    +0.000 A 
ATOM      6  C   UNL     1      50.377   5.111  18.078  0.00  0.00    +0.000 A 
ENDROOT
BRANCH   1   7
ATOM      7  C   UNL     1      52.791   4.333  18.475  0.00  0.00    +0.000 C 
BRANCH   7   8
ATOM      8  N   UNL     1      53.637   3.263  17.917  0.00  0.00    +0.000 NA
ATOM      9  H   UNL     1      53.061   2.688  17.299  0.00  0.00    +0.000 HD
BRANCH   8  10
ATOM     10  C   UNL     1      54.219   2.371  18.932  0.00  0.00    +0.000 C 
BRANCH  10  11
ATOM     11  C   UNL     1      54.414   0.958  18.413  0.00  0.00    +0.000 A 
ATOM     12  C   UNL     1      54.530   0.734  17.041  0.00  0.00    +0.000 A 
ATOM     13  C   UNL     1      54.722  -0.565  16.584  0.00  0.00    +0.000 A 
ATOM     14  C   UNL     1      54.806  -1.601  17.504  0.00  0.00    +0.000 A 
ATOM     15  C   UNL     1      54.693  -1.293  18.850  0.00  0.00    +0.000 A 
ATOM     16  N   UNL     1      54.498  -0.043  19.325  0.00  0.00    +0.000 NA
ENDBRANCH  10  11
ENDBRANCH   8  10
ENDBRANCH   7   8
BRANCH   7  17
ATOM     17  C   UNL     1      53.330   5.736  18.093  0.00  0.00    +0.000 C 
BRANCH  17  19
ATOM     18  C   UNL     1      52.809   6.868  15.920  0.00  0.00    +0.000 C 
ATOM     19  C   UNL     1      53.727   5.880  16.622  0.00  0.00    +0.000 C 
ENDBRANCH  17  19
ENDBRANCH   7  17
ENDBRANCH   1   7
BRANCH   4  20
ATOM     20  C   UNL     1      47.236   3.393  16.796  0.00  0.00    +0.000 C 
BRANCH  20  21
ATOM     21  N   UNL     1      46.792   4.382  15.846  0.00  0.00    +0.000 N 
ATOM     22  C   UNL     1      46.848   4.145  14.497  0.00  0.00    +0.000 C 
ATOM     23  O   UNL     1      47.232   3.072  14.040  0.00  0.00    +0.000 OA
ATOM     24  H   UNL     1      46.697   5.335  16.184  0.00  0.00    +0.000 HD
BRANCH  22  25
ATOM     25  C   UNL     1      46.359   5.220  13.622  0.00  0.00    +0.000 A 
ATOM     26  C   UNL     1      47.157   6.333  13.390  0.00  0.00    +0.000 A 
ATOM     27  S   UNL     1      46.473   7.451  12.300  0.00  0.00    +0.000 S 
ATOM     28  C   UNL     1      45.061   6.515  12.142  0.00  0.00    +0.000 A 
ATOM     29  N   UNL     1      44.036   6.925  11.348  0.00  0.00    +0.000 NA
ATOM     30  C   UNL     1      43.011   6.140  11.350  0.00  0.00    +0.000 A 
ATOM     31  N   UNL     1      42.920   4.979  12.072  0.00  0.00    +0.000 N 
ATOM     32  C   UNL     1      43.941   4.507  12.864  0.00  0.00    +0.000 A 
ATOM     33  O   UNL     1      43.841   3.445  13.467  0.00  0.00    +0.000 OA
ATOM     34  C   UNL     1      45.115   5.360  12.902  0.00  0.00    +0.000 A 
ATOM     35  H   UNL     1      42.091   4.405  12.028  0.00  0.00    +0.000 HD
ENDBRANCH  22  25
ENDBRANCH  20  21
ENDBRANCH   4  20
TORSDOF 9
ENDMDL
MODEL 7
REMARK VINA RESULT:    -6.839      4.016      6.562
REMARK INTER + INTRA:         -11.593
REMARK INTER:                 -10.306
REMARK INTRA:                  -1.286
REMARK UNBOUND:                -1.155
REMARK  Name = 
REMARK  10 active torsions:
REMARK  status: ('A' for Active; 'I' for Inactive)
REMARK    1  A    between atoms: C_1  and  C_2
REMARK    2  A    between atoms: C_2  and  C_3
REMARK    3  A    between atoms: C_3  and  C_4
REMARK    4  A    between atoms: C_4  and  N_5
REMARK    5  A    between atoms: C_4  and  C_13
REMARK    6  A    between atoms: N_5  and  C_6
REMARK    7  A    between atoms: C_6  and  C_7
REMARK    8  A    between atoms: C_16  and  C_17
REMARK    9  A    between atoms: C_17  and  N_18
REMARK   10  A    between atoms: C_19  and  C_21
REMARK                            x       y       z     vdW  Elec       q    Type
REMARK                         _______ _______ _______ _____ _____    ______ ____
ROOT
ATOM      1  C   UNL     1      45.066   7.798  11.909  0.00  0.00    +0.000 A 
ATOM      2  C   UNL     1      46.341   7.761  12.503  0.00  0.00    +0.000 A 
ATOM      3  C   UNL     1      46.781   6.622  13.193  0.00  0.00    +0.000 A 
ATOM      4  C   UNL     1      45.964   5.490  13.303  0.00  0.00    +0.000 A 
ATOM      5  C   UNL     1      44.696   5.523  12.715  0.00  0.00    +0.000 A 
ATOM      6  C   UNL     1      44.269   6.647  12.003  0.00  0.00    +0.000 A 
ENDROOT
BRANCH   1   7
ATOM      7  C   UNL     1      44.590   9.056  11.175  0.00  0.00    +0.000 C 
BRANCH   7   8
ATOM      8  N   UNL     1      43.128   8.973  11.004  0.00  0.00    +0.000 NA
ATOM      9  H   UNL     1      42.914   8.112  10.497  0.00  0.00    +0.000 HD
BRANCH   8  10
ATOM     10  C   UNL     1      42.552  10.089  10.238  0.00  0.00    +0.000 C 
BRANCH  10  11
ATOM     11  C   UNL     1      41.310  10.659  10.897  0.00  0.00    +0.000 A 
ATOM     12  C   UNL     1      41.410  11.283  12.141  0.00  0.00    +0.000 A 
ATOM     13  C   UNL     1      40.264  11.812  12.724  0.00  0.00    +0.000 A 
ATOM     14  C   UNL     1      39.055  11.716  12.048  0.00  0.00    +0.000 A 
ATOM     15  C   UNL     1      39.043  11.091  10.812  0.00  0.00    +0.000 A 
ATOM     16  N   UNL     1      40.137  10.561  10.223  0.00  0.00    +0.000 NA
ENDBRANCH  10  11
ENDBRANCH   8  10
ENDBRANCH   7   8
BRANCH   7  17
ATOM     17  C   UNL     1      45.001  10.370  11.888  0.00  0.00    +0.000 C 
BRANCH  17  19
ATOM     18  C   UNL     1      47.338  11.234  11.631  0.00  0.00    +0.000 C 
ATOM     19  C   UNL     1      45.927  11.270  11.066  0.00  0.00    +0.000 C 
ENDBRANCH  17  19
ENDBRANCH   7  17
ENDBRANCH   1   7
BRANCH   4  20
ATOM     20  C   UNL     1      46.406   4.264  14.058  0.00  0.00    +0.000 C 
BRANCH  20  21
ATOM     21  N   UNL     1      47.488   4.566  14.960  0.00  0.00    +0.000 N 
ATOM     22  C   UNL     1      47.462   4.146  16.265  0.00  0.00    +0.000 C 
ATOM     23  O   UNL     1      46.545   3.461  16.710  0.00  0.00    +0.000 OA
ATOM     24  H   UNL     1      48.122   5.311  14.687  0.00  0.00    +0.000 HD
BRANCH  22  25
ATOM     25  C   UNL     1      48.623   4.503  17.092  0.00  0.00    +0.000 A 
ATOM     26  C   UNL     1      48.677   5.750  17.699  0.00  0.00    +0.000 A 
ATOM     27  S   UNL     1      50.055   5.976  18.677  0.00  0.00    +0.000 S 
ATOM     28  C   UNL     1      50.658   4.436  18.278  0.00  0.00    +0.000 A 
ATOM     29  N   UNL     1      51.844   4.000  18.779  0.00  0.00    +0.000 NA
ATOM     30  C   UNL     1      52.200   2.829  18.365  0.00  0.00    +0.000 A 
ATOM     31  N   UNL     1      51.475   2.055  17.498  0.00  0.00    +0.000 N 
ATOM     32  C   UNL     1      50.256   2.440  16.990  0.00  0.00    +0.000 A 
ATOM     33  O   UNL     1      49.615   1.706  16.247  0.00  0.00    +0.000 OA
ATOM     34  C   UNL     1      49.814   3.754  17.420  0.00  0.00    +0.000 A 
ATOM     35  H   UNL     1      51.806   1.144  17.215  0.00  0.00    +0.000 HD
ENDBRANCH  22  25
ENDBRANCH  20  21
ENDBRANCH   4  20
TORSDOF 9
ENDMDL
MODEL 8
REMARK VINA RESULT:    -6.735      4.044      9.224
REMARK INTER + INTRA:         -11.434
REMARK INTER:                  -9.874
REMARK INTRA:                  -1.560
REMARK UNBOUND:                -1.155
REMARK  Name = 
REMARK  10 active torsions:
REMARK  status: ('A' for Active; 'I' for Inactive)
REMARK    1  A    between atoms: C_1  and  C_2
REMARK    2  A    between atoms: C_2  and  C_3
REMARK    3  A    between atoms: C_3  and  C_4
REMARK    4  A    between atoms: C_4  and  N_5
REMARK    5  A    between atoms: C_4  and  C_13
REMARK    6  A    between atoms: N_5  and  C_6
REMARK    7  A    between atoms: C_6  and  C_7
REMARK    8  A    between atoms: C_16  and  C_17
REMARK    9  A    between atoms: C_17  and  N_18
REMARK   10  A    between atoms: C_19  and  C_21
REMARK                            x       y       z     vdW  Elec       q    Type
REMARK                         _______ _______ _______ _____ _____    ______ ____
ROOT
ATOM      1  C   UNL     1      51.479   3.868  17.816  0.00  0.00    +0.000 A 
ATOM      2  C   UNL     1      50.973   2.610  17.443  0.00  0.00    +0.000 A 
ATOM      3  C   UNL     1      49.618   2.446  17.119  0.00  0.00    +0.000 A 
ATOM      4  C   UNL     1      48.736   3.534  17.154  0.00  0.00    +0.000 A 
ATOM      5  C   UNL     1      49.236   4.786  17.526  0.00  0.00    +0.000 A 
ATOM      6  C   UNL     1      50.591   4.955  17.820  0.00  0.00    +0.000 A 
ENDROOT
BRANCH   1   7
ATOM      7  C   UNL     1      52.958   4.030  18.186  0.00  0.00    +0.000 C 
BRANCH   7   8
ATOM      8  N   UNL     1      53.373   5.408  17.868  0.00  0.00    +0.000 NA
ATOM      9  H   UNL     1      52.533   5.961  17.688  0.00  0.00    +0.000 HD
BRANCH   8  10
ATOM     10  C   UNL     1      54.232   5.513  16.678  0.00  0.00    +0.000 C 
BRANCH  10  11
ATOM     11  C   UNL     1      53.743   6.572  15.707  0.00  0.00    +0.000 A 
ATOM     12  C   UNL     1      54.560   6.974  14.651  0.00  0.00    +0.000 A 
ATOM     13  C   UNL     1      54.091   7.935  13.763  0.00  0.00    +0.000 A 
ATOM     14  C   UNL     1      52.818   8.459  13.944  0.00  0.00    +0.000 A 
ATOM     15  C   UNL     1      52.065   7.999  15.011  0.00  0.00    +0.000 A 
ATOM     16  N   UNL     1      52.495   7.072  15.895  0.00  0.00    +0.000 NA
ENDBRANCH  10  11
ENDBRANCH   8  10
ENDBRANCH   7   8
BRANCH   7  17
ATOM     17  C   UNL     1      53.258   3.678  19.667  0.00  0.00    +0.000 C 
BRANCH  17  19
ATOM     18  C   UNL     1      52.011   4.599  21.635  0.00  0.00    +0.000 C 
ATOM     19  C   UNL     1      53.127   4.857  20.634  0.00  0.00    +0.000 C 
ENDBRANCH  17  19
ENDBRANCH   7  17
ENDBRANCH   1   7
BRANCH   4  20
ATOM     20  C   UNL     1      47.274   3.378  16.834  0.00  0.00    +0.000 C 
BRANCH  20  21
ATOM     21  N   UNL     1      46.834   4.378  15.894  0.00  0.00    +0.000 N 
ATOM     22  C   UNL     1      46.894   4.157  14.542  0.00  0.00    +0.000 C 
ATOM     23  O   UNL     1      47.280   3.089  14.074  0.00  0.00    +0.000 OA
ATOM     24  H   UNL     1      46.739   5.328  16.242  0.00  0.00    +0.000 HD
BRANCH  22  25
ATOM     25  C   UNL     1      46.410   5.242  13.678  0.00  0.00    +0.000 A 
ATOM     26  C   UNL     1      47.208   6.357  13.463  0.00  0.00    +0.000 A 
ATOM     27  S   UNL     1      46.529   7.488  12.383  0.00  0.00    +0.000 S 
ATOM     28  C   UNL     1      45.117   6.554  12.208  0.00  0.00    +0.000 A 
ATOM     29  N   UNL     1      44.096   6.974  11.414  0.00  0.00    +0.000 NA
ATOM     30  C   UNL     1      43.072   6.189  11.402  0.00  0.00    +0.000 A 
ATOM     31  N   UNL     1      42.977   5.019  12.110  0.00  0.00    +0.000 N 
ATOM     32  C   UNL     1      43.994   4.538  12.901  0.00  0.00    +0.000 A 
ATOM     33  O   UNL     1      43.892   3.469  13.491  0.00  0.00    +0.000 OA
ATOM     34  C   UNL     1      45.168   5.390  12.954  0.00  0.00    +0.000 A 
ATOM     35  H   UNL     1      42.148   4.446  12.056  0.00  0.00    +0.000 HD
ENDBRANCH  22  25
ENDBRANCH  20  21
ENDBRANCH   4  20
TORSDOF 9
ENDMDL
MODEL 9
REMARK VINA RESULT:    -6.730      3.352      9.151
REMARK INTER + INTRA:         -11.427
REMARK INTER:                  -9.367
REMARK INTRA:                  -2.060
REMARK UNBOUND:                -1.155
REMARK  Name = 
REMARK  10 active torsions:
REMARK  status: ('A' for Active; 'I' for Inactive)
REMARK    1  A    between atoms: C_1  and  C_2
REMARK    2  A    between atoms: C_2  and  C_3
REMARK    3  A    between atoms: C_3  and  C_4
REMARK    4  A    between atoms: C_4  and  N_5
REMARK    5  A    between atoms: C_4  and  C_13
REMARK    6  A    between atoms: N_5  and  C_6
REMARK    7  A    between atoms: C_6  and  C_7
REMARK    8  A    between atoms: C_16  and  C_17
REMARK    9  A    between atoms: C_17  and  N_18
REMARK   10  A    between atoms: C_19  and  C_21
REMARK                            x       y       z     vdW  Elec       q    Type
REMARK                         _______ _______ _______ _____ _____    ______ ____
ROOT
ATOM      1  C   UNL     1      49.392   8.200  15.799  0.00  0.00    +0.000 A 
ATOM      2  C   UNL     1      50.018   7.419  14.811  0.00  0.00    +0.000 A 
ATOM      3  C   UNL     1      49.475   7.320  13.521  0.00  0.00    +0.000 A 
ATOM      4  C   UNL     1      48.299   8.002  13.184  0.00  0.00    +0.000 A 
ATOM      5  C   UNL     1      47.674   8.777  14.165  0.00  0.00    +0.000 A 
ATOM      6  C   UNL     1      48.230   8.899  15.441  0.00  0.00    +0.000 A 
ENDROOT
BRANCH   1   7
ATOM      7  C   UNL     1      49.985   8.283  17.210  0.00  0.00    +0.000 C 
BRANCH   7   8
ATOM      8  N   UNL     1      49.157   7.467  18.116  0.00  0.00    +0.000 NA
ATOM      9  H   UNL     1      48.942   8.026  18.944  0.00  0.00    +0.000 HD
BRANCH   8  10
ATOM     10  C   UNL     1      49.814   6.234  18.577  0.00  0.00    +0.000 C 
BRANCH  10  11
ATOM     11  C   UNL     1      49.251   4.996  17.903  0.00  0.00    +0.000 A 
ATOM     12  C   UNL     1      48.002   5.050  17.284  0.00  0.00    +0.000 A 
ATOM     13  C   UNL     1      47.508   3.910  16.660  0.00  0.00    +0.000 A 
ATOM     14  C   UNL     1      48.275   2.753  16.660  0.00  0.00    +0.000 A 
ATOM     15  C   UNL     1      49.510   2.785  17.287  0.00  0.00    +0.000 A 
ATOM     16  N   UNL     1      50.014   3.873  17.908  0.00  0.00    +0.000 NA
ENDBRANCH  10  11
ENDBRANCH   8  10
ENDBRANCH   7   8
BRANCH   7  17
ATOM     17  C   UNL     1      51.476   7.859  17.272  0.00  0.00    +0.000 C 
BRANCH  17  19
ATOM     18  C   UNL     1      51.868  10.288  17.745  0.00  0.00    +0.000 C 
ATOM     19  C   UNL     1      52.467   9.019  17.158  0.00  0.00    +0.000 C 
ENDBRANCH  17  19
ENDBRANCH   7  17
ENDBRANCH   1   7
BRANCH   4  20
ATOM     20  C   UNL     1      47.685   7.893  11.814  0.00  0.00    +0.000 C 
BRANCH  20  21
ATOM     21  N   UNL     1      46.983   6.645  11.652  0.00  0.00    +0.000 N 
ATOM     22  C   UNL     1      45.618   6.580  11.748  0.00  0.00    +0.000 C 
ATOM     23  O   UNL     1      44.930   7.581  11.930  0.00  0.00    +0.000 OA
ATOM     24  H   UNL     1      47.532   5.794  11.736  0.00  0.00    +0.000 HD
BRANCH  22  25
ATOM     25  C   UNL     1      45.008   5.257  11.555  0.00  0.00    +0.000 A 
ATOM     26  C   UNL     1      44.335   4.651  12.607  0.00  0.00    +0.000 A 
ATOM     27  S   UNL     1      43.629   3.154  12.197  0.00  0.00    +0.000 S 
ATOM     28  C   UNL     1      44.248   3.235  10.614  0.00  0.00    +0.000 A 
ATOM     29  N   UNL     1      44.019   2.232   9.724  0.00  0.00    +0.000 NA
ATOM     30  C   UNL     1      44.578   2.404   8.572  0.00  0.00    +0.000 A 
ATOM     31  N   UNL     1      45.341   3.489   8.230  0.00  0.00    +0.000 N 
ATOM     32  C   UNL     1      45.574   4.542   9.085  0.00  0.00    +0.000 A 
ATOM     33  O   UNL     1      46.229   5.516   8.733  0.00  0.00    +0.000 OA
ATOM     34  C   UNL     1      44.973   4.393  10.398  0.00  0.00    +0.000 A 
ATOM     35  H   UNL     1      45.748   3.567   7.310  0.00  0.00    +0.000 HD
ENDBRANCH  22  25
ENDBRANCH  20  21
ENDBRANCH   4  20
TORSDOF 9
ENDMDL
