MODEL 1
REMARK VINA RESULT:    -7.852      0.000      0.000
REMARK INTER + INTRA:         -13.928
REMARK INTER:                 -12.212
REMARK INTRA:                  -1.716
REMARK UNBOUND:                -1.716
REMARK  Name = 
REMARK  10 active torsions:
REMARK  status: ('A' for Active; 'I' for Inactive)
REMARK    1  A    between atoms: C_2  and  C_23
REMARK    2  A    between atoms: N_3  and  C_4
REMARK    3  A    between atoms: C_4  and  C_5
REMARK    4  A    between atoms: C_8  and  C_9
REMARK    5  A    between atoms: C_9  and  N_10
REMARK    6  A    between atoms: N_10  and  C_11
REMARK    7  A    between atoms: N_10  and  C_14
REMARK    8  A    between atoms: C_11  and  C_12
REMARK    9  A    between atoms: C_12  and  O_13
REMARK   10  A    between atoms: C_14  and  C_15
REMARK                            x       y       z     vdW  Elec       q    Type
REMARK                         _______ _______ _______ _____ _____    ______ ____
ROOT
ATOM      1  C   UNL     1      47.853   7.955  12.935  0.00  0.00    +0.000 A 
ATOM      2  C   UNL     1      47.862   6.907  12.004  0.00  0.00    +0.000 A 
ATOM      3  C   UNL     1      46.677   6.487  11.396  0.00  0.00    +0.000 A 
ATOM      4  C   UNL     1      45.459   7.104  11.709  0.00  0.00    +0.000 A 
ATOM      5  C   UNL     1      45.471   8.233  12.544  0.00  0.00    +0.000 A 
ATOM      6  C   UNL     1      46.660   8.656  13.149  0.00  0.00    +0.000 A 
ENDROOT
BRANCH   1   7
ATOM      7  C   UNL     1      49.097   8.284  13.717  0.00  0.00    +0.000 C 
BRANCH   7  10
ATOM      8  O   UNL     1      48.350   8.805  16.326  0.00  0.00    +0.000 OA
ATOM      9  C   UNL     1      48.824   7.701  16.068  0.00  0.00    +0.000 C 
ATOM     10  N   UNL     1      49.302   7.385  14.820  0.00  0.00    +0.000 N 
ATOM     11  H   UNL     1      49.479   6.415  14.587  0.00  0.00    +0.000 HD
BRANCH   9  12
ATOM     12  C   UNL     1      48.939   6.661  17.095  0.00  0.00    +0.000 A 
ATOM     13  C   UNL     1      49.561   6.946  18.304  0.00  0.00    +0.000 A 
ATOM     14  S   UNL     1      49.615   5.615  19.373  0.00  0.00    +0.000 S 
ATOM     15  C   UNL     1      48.764   4.630  18.276  0.00  0.00    +0.000 A 
ATOM     16  N   UNL     1      48.450   3.343  18.589  0.00  0.00    +0.000 NA
ATOM     17  C   UNL     1      47.770   2.725  17.676  0.00  0.00    +0.000 A 
ATOM     18  N   UNL     1      47.392   3.274  16.478  0.00  0.00    +0.000 N 
ATOM     19  C   UNL     1      47.728   4.552  16.103  0.00  0.00    +0.000 A 
ATOM     20  O   UNL     1      47.426   4.990  14.998  0.00  0.00    +0.000 OA
ATOM     21  C   UNL     1      48.469   5.297  17.102  0.00  0.00    +0.000 A 
ATOM     22  H   UNL     1      46.879   2.734  15.798  0.00  0.00    +0.000 HD
ENDBRANCH   9  12
ENDBRANCH   7  10
ENDBRANCH   1   7
BRANCH   4  23
ATOM     23  C   UNL     1      44.151   6.484  11.241  0.00  0.00    +0.000 C 
BRANCH  23  24
ATOM     24  N   UNL     1      44.251   5.004  11.039  0.00  0.00    +0.000 NA
BRANCH  24  25
ATOM     25  C   UNL     1      43.267   4.327  11.938  0.00  0.00    +0.000 C 
BRANCH  25  26
ATOM     26  C   UNL     1      43.623   2.903  12.402  0.00  0.00    +0.000 C 
BRANCH  26  27
ATOM     27  O   UNL     1      42.885   1.915  11.693  0.00  0.00    +0.000 OA
ATOM     28  H   UNL     1      41.990   2.278  11.576  0.00  0.00    +0.000 HD
ENDBRANCH  26  27
ENDBRANCH  25  26
ENDBRANCH  24  25
BRANCH  24  29
ATOM     29  C   UNL     1      43.952   4.666   9.622  0.00  0.00    +0.000 C 
BRANCH  29  30
ATOM     30  C   UNL     1      44.992   3.842   8.877  0.00  0.00    +0.000 A 
ATOM     31  C   UNL     1      45.095   2.462   9.057  0.00  0.00    +0.000 A 
ATOM     32  C   UNL     1      46.040   1.754   8.316  0.00  0.00    +0.000 A 
ATOM     33  C   UNL     1      46.844   2.431   7.407  0.00  0.00    +0.000 A 
ATOM     34  C   UNL     1      46.670   3.797   7.276  0.00  0.00    +0.000 A 
ATOM     35  N   UNL     1      45.773   4.512   7.990  0.00  0.00    +0.000 NA
ENDBRANCH  29  30
ENDBRANCH  24  29
ENDBRANCH  23  24
ENDBRANCH   4  23
TORSDOF 10
ENDMDL
MODEL 2
REMARK VINA RESULT:    -7.392      2.137      2.821
REMARK INTER + INTRA:         -13.214
REMARK INTER:                 -12.033
REMARK INTRA:                  -1.181
REMARK UNBOUND:                -1.716
REMARK  Name = 
REMARK  10 active torsions:
REMARK  status: ('A' for Active; 'I' for Inactive)
REMARK    1  A    between atoms: C_2  and  C_23
REMARK    2  A    between atoms: N_3  and  C_4
REMARK    3  A    between atoms: C_4  and  C_5
REMARK    4  A    between atoms: C_8  and  C_9
REMARK    5  A    between atoms: C_9  and  N_10
REMARK    6  A    between atoms: N_10  and  C_11
REMARK    7  A    between atoms: N_10  and  C_14
REMARK    8  A    between atoms: C_11  and  C_12
REMARK    9  A    between atoms: C_12  and  O_13
REMARK   10  A    between atoms: C_14  and  C_15
REMARK                            x       y       z     vdW  Elec       q    Type
REMARK                         _______ _______ _______ _____ _____    ______ ____
ROOT
ATOM      1  C   UNL     1      48.154   6.606  13.629  0.00  0.00    +0.000 A 
ATOM      2  C   UNL     1      47.207   5.611  13.904  0.00  0.00    +0.000 A 
ATOM      3  C   UNL     1      46.197   5.319  12.985  0.00  0.00    +0.000 A 
ATOM      4  C   UNL     1      46.112   6.018  11.774  0.00  0.00    +0.000 A 
ATOM      5  C   UNL     1      47.133   6.924  11.447  0.00  0.00    +0.000 A 
ATOM      6  C   UNL     1      48.148   7.212  12.367  0.00  0.00    +0.000 A 
ENDROOT
BRANCH   1   7
ATOM      7  C   UNL     1      49.128   7.039  14.693  0.00  0.00    +0.000 C 
BRANCH   7  10
ATOM      8  O   UNL     1      50.732   5.796  16.570  0.00  0.00    +0.000 OA
ATOM      9  C   UNL     1      49.593   6.120  16.901  0.00  0.00    +0.000 C 
ATOM     10  N   UNL     1      48.699   6.662  16.011  0.00  0.00    +0.000 N 
ATOM     11  H   UNL     1      47.861   7.111  16.361  0.00  0.00    +0.000 HD
BRANCH   9  12
ATOM     12  C   UNL     1      49.109   5.911  18.270  0.00  0.00    +0.000 A 
ATOM     13  C   UNL     1      49.285   4.680  18.888  0.00  0.00    +0.000 A 
ATOM     14  S   UNL     1      48.650   4.615  20.471  0.00  0.00    +0.000 S 
ATOM     15  C   UNL     1      48.163   6.244  20.402  0.00  0.00    +0.000 A 
ATOM     16  N   UNL     1      47.559   6.840  21.466  0.00  0.00    +0.000 NA
ATOM     17  C   UNL     1      47.277   8.092  21.284  0.00  0.00    +0.000 A 
ATOM     18  N   UNL     1      47.533   8.791  20.133  0.00  0.00    +0.000 N 
ATOM     19  C   UNL     1      48.097   8.216  19.020  0.00  0.00    +0.000 A 
ATOM     20  O   UNL     1      48.254   8.855  17.985  0.00  0.00    +0.000 OA
ATOM     21  C   UNL     1      48.455   6.820  19.179  0.00  0.00    +0.000 A 
ATOM     22  H   UNL     1      47.271   9.761  20.045  0.00  0.00    +0.000 HD
ENDBRANCH   9  12
ENDBRANCH   7  10
ENDBRANCH   1   7
BRANCH   4  23
ATOM     23  C   UNL     1      44.876   5.874  10.898  0.00  0.00    +0.000 C 
BRANCH  23  24
ATOM     24  N   UNL     1      44.496   4.445  10.664  0.00  0.00    +0.000 NA
BRANCH  24  25
ATOM     25  C   UNL     1      43.249   4.146  11.431  0.00  0.00    +0.000 C 
BRANCH  25  26
ATOM     26  C   UNL     1      42.467   5.356  11.976  0.00  0.00    +0.000 C 
BRANCH  26  27
ATOM     27  O   UNL     1      42.538   5.437  13.395  0.00  0.00    +0.000 OA
ATOM     28  H   UNL     1      42.636   6.382  13.606  0.00  0.00    +0.000 HD
ENDBRANCH  26  27
ENDBRANCH  25  26
ENDBRANCH  24  25
BRANCH  24  29
ATOM     29  C   UNL     1      44.259   4.218   9.213  0.00  0.00    +0.000 C 
BRANCH  29  30
ATOM     30  C   UNL     1      45.288   3.377   8.471  0.00  0.00    +0.000 A 
ATOM     31  C   UNL     1      45.498   2.035   8.789  0.00  0.00    +0.000 A 
ATOM     32  C   UNL     1      46.426   1.304   8.048  0.00  0.00    +0.000 A 
ATOM     33  C   UNL     1      47.105   1.920   7.003  0.00  0.00    +0.000 A 
ATOM     34  C   UNL     1      46.828   3.250   6.742  0.00  0.00    +0.000 A 
ATOM     35  N   UNL     1      45.946   3.987   7.452  0.00  0.00    +0.000 NA
ENDBRANCH  29  30
ENDBRANCH  24  29
ENDBRANCH  23  24
ENDBRANCH   4  23
TORSDOF 10
ENDMDL
MODEL 3
REMARK VINA RESULT:    -7.109      1.731      2.198
REMARK INTER + INTRA:         -12.773
REMARK INTER:                 -11.476
REMARK INTRA:                  -1.297
REMARK UNBOUND:                -1.716
REMARK  Name = 
REMARK  10 active torsions:
REMARK  status: ('A' for Active; 'I' for Inactive)
REMARK    1  A    between atoms: C_2  and  C_23
REMARK    2  A    between atoms: N_3  and  C_4
REMARK    3  A    between atoms: C_4  and  C_5
REMARK    4  A    between atoms: C_8  and  C_9
REMARK    5  A    between atoms: C_9  and  N_10
REMARK    6  A    between atoms: N_10  and  C_11
REMARK    7  A    between atoms: N_10  and  C_14
REMARK    8  A    between atoms: C_11  and  C_12
REMARK    9  A    between atoms: C_12  and  O_13
REMARK   10  A    between atoms: C_14  and  C_15
REMARK                            x       y       z     vdW  Elec       q    Type
REMARK                         _______ _______ _______ _____ _____    ______ ____
ROOT
ATOM      1  C   UNL     1      47.690   7.421  13.485  0.00  0.00    +0.000 A 
ATOM      2  C   UNL     1      46.580   8.250  13.274  0.00  0.00    +0.000 A 
ATOM      3  C   UNL     1      45.488   7.798  12.529  0.00  0.00    +0.000 A 
ATOM      4  C   UNL     1      45.485   6.511  11.978  0.00  0.00    +0.000 A 
ATOM      5  C   UNL     1      46.540   5.640  12.295  0.00  0.00    +0.000 A 
ATOM      6  C   UNL     1      47.631   6.092  13.046  0.00  0.00    +0.000 A 
ENDROOT
BRANCH   1   7
ATOM      7  C   UNL     1      48.933   7.970  14.132  0.00  0.00    +0.000 C 
BRANCH   7  10
ATOM      8  O   UNL     1      49.900   6.130  15.954  0.00  0.00    +0.000 OA
ATOM      9  C   UNL     1      49.384   7.158  16.385  0.00  0.00    +0.000 C 
ATOM     10  N   UNL     1      48.800   8.086  15.558  0.00  0.00    +0.000 N 
ATOM     11  H   UNL     1      48.584   9.007  15.920  0.00  0.00    +0.000 HD
BRANCH   9  12
ATOM     12  C   UNL     1      49.330   7.439  17.824  0.00  0.00    +0.000 A 
ATOM     13  C   UNL     1      50.105   8.459  18.361  0.00  0.00    +0.000 A 
ATOM     14  S   UNL     1      49.926   8.634  20.050  0.00  0.00    +0.000 S 
ATOM     15  C   UNL     1      48.768   7.388  20.112  0.00  0.00    +0.000 A 
ATOM     16  N   UNL     1      48.178   7.038  21.287  0.00  0.00    +0.000 NA
ATOM     17  C   UNL     1      47.291   6.100  21.177  0.00  0.00    +0.000 A 
ATOM     18  N   UNL     1      46.955   5.475  20.004  0.00  0.00    +0.000 N 
ATOM     19  C   UNL     1      47.560   5.765  18.805  0.00  0.00    +0.000 A 
ATOM     20  O   UNL     1      47.279   5.143  17.785  0.00  0.00    +0.000 OA
ATOM     21  C   UNL     1      48.544   6.828  18.867  0.00  0.00    +0.000 A 
ATOM     22  H   UNL     1      46.269   4.737  19.987  0.00  0.00    +0.000 HD
ENDBRANCH   9  12
ENDBRANCH   7  10
ENDBRANCH   1   7
BRANCH   4  23
ATOM     23  C   UNL     1      44.417   6.119  10.967  0.00  0.00    +0.000 C 
BRANCH  23  24
ATOM     24  N   UNL     1      44.366   4.643  10.722  0.00  0.00    +0.000 NA
BRANCH  24  25
ATOM     25  C   UNL     1      43.222   4.066  11.492  0.00  0.00    +0.000 C 
BRANCH  25  26
ATOM     26  C   UNL     1      43.526   2.825  12.351  0.00  0.00    +0.000 C 
BRANCH  26  27
ATOM     27  O   UNL     1      44.922   2.562  12.428  0.00  0.00    +0.000 OA
ATOM     28  H   UNL     1      45.027   1.610  12.254  0.00  0.00    +0.000 HD
ENDBRANCH  26  27
ENDBRANCH  25  26
ENDBRANCH  24  25
BRANCH  24  29
ATOM     29  C   UNL     1      44.177   4.379   9.270  0.00  0.00    +0.000 C 
BRANCH  29  30
ATOM     30  C   UNL     1      45.250   3.550   8.577  0.00  0.00    +0.000 A 
ATOM     31  C   UNL     1      45.351   2.174   8.779  0.00  0.00    +0.000 A 
ATOM     32  C   UNL     1      46.327   1.460   8.086  0.00  0.00    +0.000 A 
ATOM     33  C   UNL     1      47.164   2.129   7.200  0.00  0.00    +0.000 A 
ATOM     34  C   UNL     1      46.989   3.492   7.043  0.00  0.00    +0.000 A 
ATOM     35  N   UNL     1      46.061   4.212   7.712  0.00  0.00    +0.000 NA
ENDBRANCH  29  30
ENDBRANCH  24  29
ENDBRANCH  23  24
ENDBRANCH   4  23
TORSDOF 10
ENDMDL
MODEL 4
REMARK VINA RESULT:    -7.091      1.859      2.348
REMARK INTER + INTRA:         -12.745
REMARK INTER:                 -11.092
REMARK INTRA:                  -1.653
REMARK UNBOUND:                -1.716
REMARK  Name = 
REMARK  10 active torsions:
REMARK  status: ('A' for Active; 'I' for Inactive)
REMARK    1  A    between atoms: C_2  and  C_23
REMARK    2  A    between atoms: N_3  and  C_4
REMARK    3  A    between atoms: C_4  and  C_5
REMARK    4  A    between atoms: C_8  and  C_9
REMARK    5  A    between atoms: C_9  and  N_10
REMARK    6  A    between atoms: N_10  and  C_11
REMARK    7  A    between atoms: N_10  and  C_14
REMARK    8  A    between atoms: C_11  and  C_12
REMARK    9  A    between atoms: C_12  and  O_13
REMARK   10  A    between atoms: C_14  and  C_15
REMARK                            x       y       z     vdW  Elec       q    Type
REMARK                         _______ _______ _______ _____ _____    ______ ____
ROOT
ATOM      1  C   UNL     1      47.841   7.873  12.986  0.00  0.00    +0.000 A 
ATOM      2  C   UNL     1      47.816   6.750  12.149  0.00  0.00    +0.000 A 
ATOM      3  C   UNL     1      46.619   6.318  11.575  0.00  0.00    +0.000 A 
ATOM      4  C   UNL     1      45.421   6.999  11.828  0.00  0.00    +0.000 A 
ATOM      5  C   UNL     1      45.469   8.194  12.563  0.00  0.00    +0.000 A 
ATOM      6  C   UNL     1      46.671   8.629  13.134  0.00  0.00    +0.000 A 
ENDROOT
BRANCH   1   7
ATOM      7  C   UNL     1      49.094   8.228  13.741  0.00  0.00    +0.000 C 
BRANCH   7  10
ATOM      8  O   UNL     1      48.473   8.001  16.425  0.00  0.00    +0.000 OA
ATOM      9  C   UNL     1      49.111   7.092  15.898  0.00  0.00    +0.000 C 
ATOM     10  N   UNL     1      49.537   7.159  14.594  0.00  0.00    +0.000 N 
ATOM     11  H   UNL     1      49.863   6.317  14.134  0.00  0.00    +0.000 HD
BRANCH   9  12
ATOM     12  C   UNL     1      49.485   5.888  16.647  0.00  0.00    +0.000 A 
ATOM     13  C   UNL     1      48.505   4.996  17.062  0.00  0.00    +0.000 A 
ATOM     14  S   UNL     1      49.121   3.661  17.930  0.00  0.00    +0.000 S 
ATOM     15  C   UNL     1      50.723   4.204  17.736  0.00  0.00    +0.000 A 
ATOM     16  N   UNL     1      51.769   3.492  18.235  0.00  0.00    +0.000 NA
ATOM     17  C   UNL     1      52.931   4.005  17.980  0.00  0.00    +0.000 A 
ATOM     18  N   UNL     1      53.135   5.170  17.287  0.00  0.00    +0.000 N 
ATOM     19  C   UNL     1      52.106   5.944  16.808  0.00  0.00    +0.000 A 
ATOM     20  O   UNL     1      52.323   7.013  16.247  0.00  0.00    +0.000 OA
ATOM     21  C   UNL     1      50.783   5.400  17.045  0.00  0.00    +0.000 A 
ATOM     22  H   UNL     1      54.066   5.530  17.139  0.00  0.00    +0.000 HD
ENDBRANCH   9  12
ENDBRANCH   7  10
ENDBRANCH   1   7
BRANCH   4  23
ATOM     23  C   UNL     1      44.094   6.383  11.411  0.00  0.00    +0.000 C 
BRANCH  23  24
ATOM     24  N   UNL     1      44.202   4.921  11.112  0.00  0.00    +0.000 NA
BRANCH  24  25
ATOM     25  C   UNL     1      43.232   4.180  11.974  0.00  0.00    +0.000 C 
BRANCH  25  26
ATOM     26  C   UNL     1      43.657   2.777  12.443  0.00  0.00    +0.000 C 
BRANCH  26  27
ATOM     27  O   UNL     1      43.041   1.751  11.674  0.00  0.00    +0.000 OA
ATOM     28  H   UNL     1      42.115   1.710  11.971  0.00  0.00    +0.000 HD
ENDBRANCH  26  27
ENDBRANCH  25  26
ENDBRANCH  24  25
BRANCH  24  29
ATOM     29  C   UNL     1      43.891   4.674   9.679  0.00  0.00    +0.000 C 
BRANCH  29  30
ATOM     30  C   UNL     1      44.847   3.770   8.913  0.00  0.00    +0.000 A 
ATOM     31  C   UNL     1      45.785   4.290   8.022  0.00  0.00    +0.000 A 
ATOM     32  C   UNL     1      46.662   3.416   7.380  0.00  0.00    +0.000 A 
ATOM     33  C   UNL     1      46.595   2.055   7.654  0.00  0.00    +0.000 A 
ATOM     34  C   UNL     1      45.647   1.621   8.563  0.00  0.00    +0.000 A 
ATOM     35  N   UNL     1      44.775   2.442   9.189  0.00  0.00    +0.000 NA
ENDBRANCH  29  30
ENDBRANCH  24  29
ENDBRANCH  23  24
ENDBRANCH   4  23
TORSDOF 10
ENDMDL
MODEL 5
REMARK VINA RESULT:    -6.879      2.974      3.542
REMARK INTER + INTRA:         -12.416
REMARK INTER:                 -11.652
REMARK INTRA:                  -0.764
REMARK UNBOUND:                -1.716
REMARK  Name = 
REMARK  10 active torsions:
REMARK  status: ('A' for Active; 'I' for Inactive)
REMARK    1  A    between atoms: C_2  and  C_23
REMARK    2  A    between atoms: N_3  and  C_4
REMARK    3  A    between atoms: C_4  and  C_5
REMARK    4  A    between atoms: C_8  and  C_9
REMARK    5  A    between atoms: C_9  and  N_10
REMARK    6  A    between atoms: N_10  and  C_11
REMARK    7  A    between atoms: N_10  and  C_14
REMARK    8  A    between atoms: C_11  and  C_12
REMARK    9  A    between atoms: C_12  and  O_13
REMARK   10  A    between atoms: C_14  and  C_15
REMARK                            x       y       z     vdW  Elec       q    Type
REMARK                         _______ _______ _______ _____ _____    ______ ____
ROOT
ATOM      1  C   UNL     1      47.958   5.496  15.625  0.00  0.00    +0.000 A 
ATOM      2  C   UNL     1      47.341   4.251  15.440  0.00  0.00    +0.000 A 
ATOM      3  C   UNL     1      46.694   3.951  14.240  0.00  0.00    +0.000 A 
ATOM      4  C   UNL     1      46.648   4.890  13.202  0.00  0.00    +0.000 A 
ATOM      5  C   UNL     1      47.372   6.085  13.341  0.00  0.00    +0.000 A 
ATOM      6  C   UNL     1      48.024   6.383  14.543  0.00  0.00    +0.000 A 
ENDROOT
BRANCH   1   7
ATOM      7  C   UNL     1      48.496   5.881  16.978  0.00  0.00    +0.000 C 
BRANCH   7  10
ATOM      8  O   UNL     1      51.165   6.189  16.328  0.00  0.00    +0.000 OA
ATOM      9  C   UNL     1      50.857   5.287  17.104  0.00  0.00    +0.000 C 
ATOM     10  N   UNL     1      49.549   5.006  17.415  0.00  0.00    +0.000 N 
ATOM     11  H   UNL     1      49.345   4.413  18.211  0.00  0.00    +0.000 HD
BRANCH   9  12
ATOM     12  C   UNL     1      51.875   4.430  17.721  0.00  0.00    +0.000 A 
ATOM     13  C   UNL     1      52.914   4.999  18.445  0.00  0.00    +0.000 A 
ATOM     14  S   UNL     1      54.010   3.853  19.080  0.00  0.00    +0.000 S 
ATOM     15  C   UNL     1      53.104   2.557  18.451  0.00  0.00    +0.000 A 
ATOM     16  N   UNL     1      53.488   1.268  18.658  0.00  0.00    +0.000 NA
ATOM     17  C   UNL     1      52.684   0.386  18.154  0.00  0.00    +0.000 A 
ATOM     18  N   UNL     1      51.544   0.680  17.451  0.00  0.00    +0.000 N 
ATOM     19  C   UNL     1      51.146   1.966  17.179  0.00  0.00    +0.000 A 
ATOM     20  O   UNL     1      50.154   2.192  16.493  0.00  0.00    +0.000 OA
ATOM     21  C   UNL     1      51.999   2.994  17.743  0.00  0.00    +0.000 A 
ATOM     22  H   UNL     1      50.969  -0.053  17.065  0.00  0.00    +0.000 HD
ENDBRANCH   9  12
ENDBRANCH   7  10
ENDBRANCH   1   7
BRANCH   4  23
ATOM     23  C   UNL     1      45.735   4.657  12.007  0.00  0.00    +0.000 C 
BRANCH  23  24
ATOM     24  N   UNL     1      44.390   4.129  12.399  0.00  0.00    +0.000 NA
BRANCH  24  25
ATOM     25  C   UNL     1      43.511   5.278  12.772  0.00  0.00    +0.000 C 
BRANCH  25  26
ATOM     26  C   UNL     1      42.333   5.580  11.827  0.00  0.00    +0.000 C 
BRANCH  26  27
ATOM     27  O   UNL     1      42.265   6.961  11.491  0.00  0.00    +0.000 OA
ATOM     28  H   UNL     1      43.027   7.135  10.910  0.00  0.00    +0.000 HD
ENDBRANCH  26  27
ENDBRANCH  25  26
ENDBRANCH  24  25
BRANCH  24  29
ATOM     29  C   UNL     1      43.788   3.385  11.261  0.00  0.00    +0.000 C 
BRANCH  29  30
ATOM     30  C   UNL     1      44.614   3.295   9.985  0.00  0.00    +0.000 A 
ATOM     31  C   UNL     1      45.092   2.073   9.510  0.00  0.00    +0.000 A 
ATOM     32  C   UNL     1      45.808   2.048   8.315  0.00  0.00    +0.000 A 
ATOM     33  C   UNL     1      46.015   3.231   7.615  0.00  0.00    +0.000 A 
ATOM     34  C   UNL     1      45.496   4.399   8.145  0.00  0.00    +0.000 A 
ATOM     35  N   UNL     1      44.810   4.456   9.308  0.00  0.00    +0.000 NA
ENDBRANCH  29  30
ENDBRANCH  24  29
ENDBRANCH  23  24
ENDBRANCH   4  23
TORSDOF 10
ENDMDL
MODEL 6
REMARK VINA RESULT:    -6.383      3.548      9.837
REMARK INTER + INTRA:         -11.644
REMARK INTER:                  -9.967
REMARK INTRA:                  -1.677
REMARK UNBOUND:                -1.716
REMARK  Name = 
REMARK  10 active torsions:
REMARK  status: ('A' for Active; 'I' for Inactive)
REMARK    1  A    between atoms: C_2  and  C_23
REMARK    2  A    between atoms: N_3  and  C_4
REMARK    3  A    between atoms: C_4  and  C_5
REMARK    4  A    between atoms: C_8  and  C_9
REMARK    5  A    between atoms: C_9  and  N_10
REMARK    6  A    between atoms: N_10  and  C_11
REMARK    7  A    between atoms: N_10  and  C_14
REMARK    8  A    between atoms: C_11  and  C_12
REMARK    9  A    between atoms: C_12  and  O_13
REMARK   10  A    between atoms: C_14  and  C_15
REMARK                            x       y       z     vdW  Elec       q    Type
REMARK                         _______ _______ _______ _____ _____    ______ ____
ROOT
ATOM      1  C   UNL     1      48.756   3.787  16.942  0.00  0.00    +0.000 A 
ATOM      2  C   UNL     1      49.212   5.109  17.028  0.00  0.00    +0.000 A 
ATOM      3  C   UNL     1      50.457   5.395  17.593  0.00  0.00    +0.000 A 
ATOM      4  C   UNL     1      51.269   4.365  18.085  0.00  0.00    +0.000 A 
ATOM      5  C   UNL     1      50.866   3.035  17.884  0.00  0.00    +0.000 A 
ATOM      6  C   UNL     1      49.620   2.750  17.314  0.00  0.00    +0.000 A 
ENDROOT
BRANCH   1   7
ATOM      7  C   UNL     1      47.346   3.500  16.499  0.00  0.00    +0.000 C 
BRANCH   7  10
ATOM      8  O   UNL     1      47.337   3.332  13.740  0.00  0.00    +0.000 OA
ATOM      9  C   UNL     1      46.801   4.305  14.264  0.00  0.00    +0.000 C 
ATOM     10  N   UNL     1      46.833   4.515  15.620  0.00  0.00    +0.000 N 
ATOM     11  H   UNL     1      46.205   5.197  16.032  0.00  0.00    +0.000 HD
BRANCH   9  12
ATOM     12  C   UNL     1      46.119   5.326  13.460  0.00  0.00    +0.000 A 
ATOM     13  C   UNL     1      46.733   6.549  13.226  0.00  0.00    +0.000 A 
ATOM     14  S   UNL     1      45.792   7.615  12.283  0.00  0.00    +0.000 S 
ATOM     15  C   UNL     1      44.554   6.459  12.112  0.00  0.00    +0.000 A 
ATOM     16  N   UNL     1      43.438   6.730  11.383  0.00  0.00    +0.000 NA
ATOM     17  C   UNL     1      42.599   5.746  11.309  0.00  0.00    +0.000 A 
ATOM     18  N   UNL     1      42.771   4.526  11.911  0.00  0.00    +0.000 N 
ATOM     19  C   UNL     1      43.859   4.228  12.694  0.00  0.00    +0.000 A 
ATOM     20  O   UNL     1      43.951   3.148  13.269  0.00  0.00    +0.000 OA
ATOM     21  C   UNL     1      44.843   5.289  12.789  0.00  0.00    +0.000 A 
ATOM     22  H   UNL     1      42.071   3.805  11.833  0.00  0.00    +0.000 HD
ENDBRANCH   9  12
ENDBRANCH   7  10
ENDBRANCH   1   7
BRANCH   4  23
ATOM     23  C   UNL     1      52.498   4.699  18.919  0.00  0.00    +0.000 C 
BRANCH  23  24
ATOM     24  N   UNL     1      52.368   4.257  20.343  0.00  0.00    +0.000 NA
BRANCH  24  25
ATOM     25  C   UNL     1      53.696   3.764  20.818  0.00  0.00    +0.000 C 
BRANCH  25  26
ATOM     26  C   UNL     1      54.563   3.017  19.788  0.00  0.00    +0.000 C 
BRANCH  26  27
ATOM     27  O   UNL     1      54.238   1.634  19.725  0.00  0.00    +0.000 OA
ATOM     28  H   UNL     1      54.558   1.243  20.558  0.00  0.00    +0.000 HD
ENDBRANCH  26  27
ENDBRANCH  25  26
ENDBRANCH  24  25
BRANCH  24  29
ATOM     29  C   UNL     1      51.926   5.400  21.187  0.00  0.00    +0.000 C 
BRANCH  29  30
ATOM     30  C   UNL     1      50.463   5.809  21.080  0.00  0.00    +0.000 A 
ATOM     31  C   UNL     1      49.434   4.878  21.222  0.00  0.00    +0.000 A 
ATOM     32  C   UNL     1      48.113   5.319  21.154  0.00  0.00    +0.000 A 
ATOM     33  C   UNL     1      47.851   6.670  20.965  0.00  0.00    +0.000 A 
ATOM     34  C   UNL     1      48.927   7.532  20.849  0.00  0.00    +0.000 A 
ATOM     35  N   UNL     1      50.218   7.132  20.896  0.00  0.00    +0.000 NA
ENDBRANCH  29  30
ENDBRANCH  24  29
ENDBRANCH  23  24
ENDBRANCH   4  23
TORSDOF 10
ENDMDL
MODEL 7
REMARK VINA RESULT:    -6.227      3.192      8.150
REMARK INTER + INTRA:         -11.402
REMARK INTER:                  -9.230
REMARK INTRA:                  -2.172
REMARK UNBOUND:                -1.716
REMARK  Name = 
REMARK  10 active torsions:
REMARK  status: ('A' for Active; 'I' for Inactive)
REMARK    1  A    between atoms: C_2  and  C_23
REMARK    2  A    between atoms: N_3  and  C_4
REMARK    3  A    between atoms: C_4  and  C_5
REMARK    4  A    between atoms: C_8  and  C_9
REMARK    5  A    between atoms: C_9  and  N_10
REMARK    6  A    between atoms: N_10  and  C_11
REMARK    7  A    between atoms: N_10  and  C_14
REMARK    8  A    between atoms: C_11  and  C_12
REMARK    9  A    between atoms: C_12  and  O_13
REMARK   10  A    between atoms: C_14  and  C_15
REMARK                            x       y       z     vdW  Elec       q    Type
REMARK                         _______ _______ _______ _____ _____    ______ ____
ROOT
ATOM      1  C   UNL     1      48.729   8.627  15.847  0.00  0.00    +0.000 A 
ATOM      2  C   UNL     1      47.932   9.254  16.814  0.00  0.00    +0.000 A 
ATOM      3  C   UNL     1      48.095   8.957  18.169  0.00  0.00    +0.000 A 
ATOM      4  C   UNL     1      49.056   8.025  18.583  0.00  0.00    +0.000 A 
ATOM      5  C   UNL     1      49.935   7.494  17.626  0.00  0.00    +0.000 A 
ATOM      6  C   UNL     1      49.774   7.797  16.269  0.00  0.00    +0.000 A 
ENDROOT
BRANCH   1   7
ATOM      7  C   UNL     1      48.431   8.815  14.383  0.00  0.00    +0.000 C 
BRANCH   7  10
ATOM      8  O   UNL     1      48.928   6.571  12.848  0.00  0.00    +0.000 OA
ATOM      9  C   UNL     1      47.774   6.776  13.220  0.00  0.00    +0.000 C 
ATOM     10  N   UNL     1      47.420   7.909  13.911  0.00  0.00    +0.000 N 
ATOM     11  H   UNL     1      46.524   7.942  14.384  0.00  0.00    +0.000 HD
BRANCH   9  12
ATOM     12  C   UNL     1      46.694   5.832  12.914  0.00  0.00    +0.000 A 
ATOM     13  C   UNL     1      46.812   4.500  13.287  0.00  0.00    +0.000 A 
ATOM     14  S   UNL     1      45.469   3.546  12.840  0.00  0.00    +0.000 S 
ATOM     15  C   UNL     1      44.663   4.891  12.180  0.00  0.00    +0.000 A 
ATOM     16  N   UNL     1      43.421   4.768  11.637  0.00  0.00    +0.000 NA
ATOM     17  C   UNL     1      42.915   5.881  11.207  0.00  0.00    +0.000 A 
ATOM     18  N   UNL     1      43.547   7.097  11.259  0.00  0.00    +0.000 N 
ATOM     19  C   UNL     1      44.817   7.258  11.755  0.00  0.00    +0.000 A 
ATOM     20  O   UNL     1      45.376   8.349  11.729  0.00  0.00    +0.000 OA
ATOM     21  C   UNL     1      45.420   6.045  12.273  0.00  0.00    +0.000 A 
ATOM     22  H   UNL     1      43.108   7.926  10.889  0.00  0.00    +0.000 HD
ENDBRANCH   9  12
ENDBRANCH   7  10
ENDBRANCH   1   7
BRANCH   4  23
ATOM     23  C   UNL     1      49.057   7.523  20.019  0.00  0.00    +0.000 C 
BRANCH  23  24
ATOM     24  N   UNL     1      49.640   6.150  20.152  0.00  0.00    +0.000 NA
BRANCH  24  25
ATOM     25  C   UNL     1      50.387   6.066  21.444  0.00  0.00    +0.000 C 
BRANCH  25  26
ATOM     26  C   UNL     1      51.309   4.848  21.630  0.00  0.00    +0.000 C 
BRANCH  26  27
ATOM     27  O   UNL     1      51.713   4.294  20.383  0.00  0.00    +0.000 OA
ATOM     28  H   UNL     1      52.651   4.534  20.272  0.00  0.00    +0.000 HD
ENDBRANCH  26  27
ENDBRANCH  25  26
ENDBRANCH  24  25
BRANCH  24  29
ATOM     29  C   UNL     1      48.552   5.136  20.134  0.00  0.00    +0.000 C 
BRANCH  29  30
ATOM     30  C   UNL     1      48.320   4.400  18.822  0.00  0.00    +0.000 A 
ATOM     31  C   UNL     1      47.272   4.743  17.968  0.00  0.00    +0.000 A 
ATOM     32  C   UNL     1      47.134   4.060  16.761  0.00  0.00    +0.000 A 
ATOM     33  C   UNL     1      48.049   3.069  16.427  0.00  0.00    +0.000 A 
ATOM     34  C   UNL     1      49.070   2.798  17.320  0.00  0.00    +0.000 A 
ATOM     35  N   UNL     1      49.221   3.433  18.504  0.00  0.00    +0.000 NA
ENDBRANCH  29  30
ENDBRANCH  24  29
ENDBRANCH  23  24
ENDBRANCH   4  23
TORSDOF 10
ENDMDL
MODEL 8
REMARK VINA RESULT:    -6.155      3.392      4.680
REMARK INTER + INTRA:         -11.289
REMARK INTER:                 -10.041
REMARK INTRA:                  -1.249
REMARK UNBOUND:                -1.716
REMARK  Name = 
REMARK  10 active torsions:
REMARK  status: ('A' for Active; 'I' for Inactive)
REMARK    1  A    between atoms: C_2  and  C_23
REMARK    2  A    between atoms: N_3  and  C_4
REMARK    3  A    between atoms: C_4  and  C_5
REMARK    4  A    between atoms: C_8  and  C_9
REMARK    5  A    between atoms: C_9  and  N_10
REMARK    6  A    between atoms: N_10  and  C_11
REMARK    7  A    between atoms: N_10  and  C_14
REMARK    8  A    between atoms: C_11  and  C_12
REMARK    9  A    between atoms: C_12  and  O_13
REMARK   10  A    between atoms: C_14  and  C_15
REMARK                            x       y       z     vdW  Elec       q    Type
REMARK                         _______ _______ _______ _____ _____    ______ ____
ROOT
ATOM      1  C   UNL     1      48.252   5.431  15.914  0.00  0.00    +0.000 A 
ATOM      2  C   UNL     1      47.326   4.678  15.179  0.00  0.00    +0.000 A 
ATOM      3  C   UNL     1      46.877   5.123  13.935  0.00  0.00    +0.000 A 
ATOM      4  C   UNL     1      47.340   6.332  13.401  0.00  0.00    +0.000 A 
ATOM      5  C   UNL     1      48.359   7.021  14.079  0.00  0.00    +0.000 A 
ATOM      6  C   UNL     1      48.812   6.571  15.324  0.00  0.00    +0.000 A 
ENDROOT
BRANCH   1   7
ATOM      7  C   UNL     1      48.596   5.039  17.326  0.00  0.00    +0.000 C 
BRANCH   7  10
ATOM      8  O   UNL     1      49.946   4.778  19.724  0.00  0.00    +0.000 OA
ATOM      9  C   UNL     1      50.516   4.423  18.695  0.00  0.00    +0.000 C 
ATOM     10  N   UNL     1      49.957   4.597  17.453  0.00  0.00    +0.000 N 
ATOM     11  H   UNL     1      50.350   4.103  16.659  0.00  0.00    +0.000 HD
BRANCH   9  12
ATOM     12  C   UNL     1      51.853   3.822  18.733  0.00  0.00    +0.000 A 
ATOM     13  C   UNL     1      52.884   4.463  19.407  0.00  0.00    +0.000 A 
ATOM     14  S   UNL     1      54.370   3.626  19.336  0.00  0.00    +0.000 S 
ATOM     15  C   UNL     1      53.674   2.353  18.446  0.00  0.00    +0.000 A 
ATOM     16  N   UNL     1      54.413   1.274  18.070  0.00  0.00    +0.000 NA
ATOM     17  C   UNL     1      53.744   0.367  17.431  0.00  0.00    +0.000 A 
ATOM     18  N   UNL     1      52.410   0.452  17.124  0.00  0.00    +0.000 N 
ATOM     19  C   UNL     1      51.639   1.544  17.443  0.00  0.00    +0.000 A 
ATOM     20  O   UNL     1      50.464   1.613  17.098  0.00  0.00    +0.000 OA
ATOM     21  C   UNL     1      52.335   2.578  18.183  0.00  0.00    +0.000 A 
ATOM     22  H   UNL     1      51.949  -0.279  16.606  0.00  0.00    +0.000 HD
ENDBRANCH   9  12
ENDBRANCH   7  10
ENDBRANCH   1   7
BRANCH   4  23
ATOM     23  C   UNL     1      46.665   6.931  12.176  0.00  0.00    +0.000 C 
BRANCH  23  24
ATOM     24  N   UNL     1      45.291   7.451  12.469  0.00  0.00    +0.000 NA
BRANCH  24  25
ATOM     25  C   UNL     1      45.336   8.945  12.492  0.00  0.00    +0.000 C 
BRANCH  25  26
ATOM     26  C   UNL     1      44.380   9.678  11.534  0.00  0.00    +0.000 C 
BRANCH  26  27
ATOM     27  O   UNL     1      43.497  10.550  12.231  0.00  0.00    +0.000 OA
ATOM     28  H   UNL     1      43.592  11.423  11.810  0.00  0.00    +0.000 HD
ENDBRANCH  26  27
ENDBRANCH  25  26
ENDBRANCH  24  25
BRANCH  24  29
ATOM     29  C   UNL     1      44.345   6.994  11.417  0.00  0.00    +0.000 C 
BRANCH  29  30
ATOM     30  C   UNL     1      44.225   5.491  11.205  0.00  0.00    +0.000 A 
ATOM     31  C   UNL     1      43.440   4.697  12.041  0.00  0.00    +0.000 A 
ATOM     32  C   UNL     1      43.337   3.333  11.774  0.00  0.00    +0.000 A 
ATOM     33  C   UNL     1      44.000   2.798  10.676  0.00  0.00    +0.000 A 
ATOM     34  C   UNL     1      44.746   3.655   9.886  0.00  0.00    +0.000 A 
ATOM     35  N   UNL     1      44.876   4.978  10.129  0.00  0.00    +0.000 NA
ENDBRANCH  29  30
ENDBRANCH  24  29
ENDBRANCH  23  24
ENDBRANCH   4  23
TORSDOF 10
ENDMDL
MODEL 9
REMARK VINA RESULT:    -6.126      3.306      8.996
REMARK INTER + INTRA:         -11.244
REMARK INTER:                  -9.169
REMARK INTRA:                  -2.075
REMARK UNBOUND:                -1.716
REMARK  Name = 
REMARK  10 active torsions:
REMARK  status: ('A' for Active; 'I' for Inactive)
REMARK    1  A    between atoms: C_2  and  C_23
REMARK    2  A    between atoms: N_3  and  C_4
REMARK    3  A    between atoms: C_4  and  C_5
REMARK    4  A    between atoms: C_8  and  C_9
REMARK    5  A    between atoms: C_9  and  N_10
REMARK    6  A    between atoms: N_10  and  C_11
REMARK    7  A    between atoms: N_10  and  C_14
REMARK    8  A    between atoms: C_11  and  C_12
REMARK    9  A    between atoms: C_12  and  O_13
REMARK   10  A    between atoms: C_14  and  C_15
REMARK                            x       y       z     vdW  Elec       q    Type
REMARK                         _______ _______ _______ _____ _____    ______ ____
ROOT
ATOM      1  C   UNL     1      47.714   4.285  17.846  0.00  0.00    +0.000 A 
ATOM      2  C   UNL     1      48.833   3.848  18.568  0.00  0.00    +0.000 A 
ATOM      3  C   UNL     1      49.252   4.531  19.712  0.00  0.00    +0.000 A 
ATOM      4  C   UNL     1      48.562   5.666  20.155  0.00  0.00    +0.000 A 
ATOM      5  C   UNL     1      47.371   6.027  19.506  0.00  0.00    +0.000 A 
ATOM      6  C   UNL     1      46.950   5.339  18.362  0.00  0.00    +0.000 A 
ENDROOT
BRANCH   1   7
ATOM      7  C   UNL     1      47.375   3.656  16.521  0.00  0.00    +0.000 C 
BRANCH   7  10
ATOM      8  O   UNL     1      47.025   3.141  13.828  0.00  0.00    +0.000 OA
ATOM      9  C   UNL     1      46.713   4.251  14.252  0.00  0.00    +0.000 C 
ATOM     10  N   UNL     1      46.933   4.624  15.556  0.00  0.00    +0.000 N 
ATOM     11  H   UNL     1      46.472   5.451  15.920  0.00  0.00    +0.000 HD
BRANCH   9  12
ATOM     12  C   UNL     1      46.115   5.263  13.374  0.00  0.00    +0.000 A 
ATOM     13  C   UNL     1      46.862   6.362  12.973  0.00  0.00    +0.000 A 
ATOM     14  S   UNL     1      46.003   7.439  11.965  0.00  0.00    +0.000 S 
ATOM     15  C   UNL     1      44.621   6.447  11.990  0.00  0.00    +0.000 A 
ATOM     16  N   UNL     1      43.503   6.785  11.292  0.00  0.00    +0.000 NA
ATOM     17  C   UNL     1      42.543   5.919  11.373  0.00  0.00    +0.000 A 
ATOM     18  N   UNL     1      42.599   4.757  12.099  0.00  0.00    +0.000 N 
ATOM     19  C   UNL     1      43.689   4.400  12.854  0.00  0.00    +0.000 A 
ATOM     20  O   UNL     1      43.681   3.384  13.541  0.00  0.00    +0.000 OA
ATOM     21  C   UNL     1      44.803   5.326  12.778  0.00  0.00    +0.000 A 
ATOM     22  H   UNL     1      41.809   4.131  12.139  0.00  0.00    +0.000 HD
ENDBRANCH   9  12
ENDBRANCH   7  10
ENDBRANCH   1   7
BRANCH   4  23
ATOM     23  C   UNL     1      49.164   6.545  21.243  0.00  0.00    +0.000 C 
BRANCH  23  24
ATOM     24  N   UNL     1      49.383   7.955  20.792  0.00  0.00    +0.000 NA
BRANCH  24  25
ATOM     25  C   UNL     1      49.892   8.757  21.946  0.00  0.00    +0.000 C 
BRANCH  25  26
ATOM     26  C   UNL     1      49.661  10.278  21.885  0.00  0.00    +0.000 C 
BRANCH  26  27
ATOM     27  O   UNL     1      48.727  10.631  20.871  0.00  0.00    +0.000 OA
ATOM     28  H   UNL     1      48.305  11.457  21.169  0.00  0.00    +0.000 HD
ENDBRANCH  26  27
ENDBRANCH  25  26
ENDBRANCH  24  25
BRANCH  24  29
ATOM     29  C   UNL     1      50.377   7.982  19.686  0.00  0.00    +0.000 C 
BRANCH  29  30
ATOM     30  C   UNL     1      49.827   8.064  18.269  0.00  0.00    +0.000 A 
ATOM     31  C   UNL     1      50.230   7.169  17.277  0.00  0.00    +0.000 A 
ATOM     32  C   UNL     1      49.660   7.268  16.009  0.00  0.00    +0.000 A 
ATOM     33  C   UNL     1      48.697   8.239  15.764  0.00  0.00    +0.000 A 
ATOM     34  C   UNL     1      48.340   9.078  16.805  0.00  0.00    +0.000 A 
ATOM     35  N   UNL     1      48.884   9.016  18.040  0.00  0.00    +0.000 NA
ENDBRANCH  29  30
ENDBRANCH  24  29
ENDBRANCH  23  24
ENDBRANCH   4  23
TORSDOF 10
ENDMDL
