MODEL 1
REMARK VINA RESULT:    -8.029      0.000      0.000
REMARK INTER + INTRA:         -12.175
REMARK INTER:                 -11.315
REMARK INTRA:                  -0.860
REMARK UNBOUND:                -0.860
REMARK  Name = 
REMARK  7 active torsions:
REMARK  status: ('A' for Active; 'I' for Inactive)
REMARK    1  A    between atoms: C_2  and  C_4
REMARK    2  A    between atoms: C_7  and  O_8
REMARK    3  A    between atoms: O_8  and  C_9
REMARK    4  A    between atoms: C_9  and  C_10
REMARK    5  A    between atoms: C_10  and  C_11
REMARK    6  A    between atoms: C_15  and  O_16
REMARK    7  A    between atoms: O_16  and  C_17
REMARK                            x       y       z     vdW  Elec       q    Type
REMARK                         _______ _______ _______ _____ _____    ______ ____
ROOT
ATOM      1  C   UNL     1      43.638   3.639  11.181  0.00  0.00    +0.000 C 
ENDROOT
BRANCH   1   2
ATOM      2  O   UNL     1      43.752   4.299   9.910  0.00  0.00    +0.000 OA
BRANCH   2   6
ATOM      3  C   UNL     1      46.548   2.412   7.526  0.00  0.00    +0.000 A 
ATOM      4  C   UNL     1      45.812   1.666   8.450  0.00  0.00    +0.000 A 
ATOM      5  C   UNL     1      44.868   2.312   9.253  0.00  0.00    +0.000 A 
ATOM      6  C   UNL     1      44.691   3.680   9.100  0.00  0.00    +0.000 A 
ATOM      7  N   UNL     1      45.394   4.420   8.219  0.00  0.00    +0.000 NA
ATOM      8  C   UNL     1      46.314   3.777   7.462  0.00  0.00    +0.000 A 
BRANCH   3  10
ATOM      9  N   UNL     1      48.721   2.563   6.443  0.00  0.00    +0.000 N 
ATOM     10  C   UNL     1      47.577   1.841   6.631  0.00  0.00    +0.000 C 
ATOM     11  O   UNL     1      47.436   0.742   6.114  0.00  0.00    +0.000 OA
ATOM     12  H   UNL     1      49.458   2.096   5.928  0.00  0.00    +0.000 HD
ATOM     13  H   UNL     1      48.987   3.330   7.043  0.00  0.00    +0.000 HD
ENDBRANCH   3  10
ENDBRANCH   2   6
ENDBRANCH   1   2
BRANCH   1  14
ATOM     14  C   UNL     1      43.517   4.662  12.314  0.00  0.00    +0.000 C 
BRANCH  14  15
ATOM     15  C   UNL     1      44.889   5.156  12.720  0.00  0.00    +0.000 A 
ATOM     16  C   UNL     1      45.403   6.318  12.129  0.00  0.00    +0.000 A 
ATOM     17  C   UNL     1      46.713   6.717  12.380  0.00  0.00    +0.000 A 
ATOM     18  C   UNL     1      47.516   5.977  13.247  0.00  0.00    +0.000 A 
ATOM     19  C   UNL     1      47.004   4.853  13.898  0.00  0.00    +0.000 A 
ATOM     20  C   UNL     1      45.702   4.427  13.609  0.00  0.00    +0.000 A 
BRANCH  19  21
ATOM     21  O   UNL     1      47.725   4.099  14.796  0.00  0.00    +0.000 OA
BRANCH  21  22
ATOM     22  C   UNL     1      47.433   4.372  16.178  0.00  0.00    +0.000 C 
ATOM     23  C   UNL     1      48.477   5.281  16.792  0.00  0.00    +0.000 C 
ATOM     24  C   UNL     1      49.493   4.334  17.390  0.00  0.00    +0.000 C 
ATOM     25  O   UNL     1      48.833   3.100  17.667  0.00  0.00    +0.000 OA
ATOM     26  C   UNL     1      47.558   3.099  17.008  0.00  0.00    +0.000 C 
ENDBRANCH  21  22
ENDBRANCH  19  21
ENDBRANCH  14  15
ENDBRANCH   1  14
TORSDOF 7
ENDMDL
MODEL 2
REMARK VINA RESULT:    -7.141      1.598      1.988
REMARK INTER + INTRA:         -10.923
REMARK INTER:                 -10.131
REMARK INTRA:                  -0.793
REMARK UNBOUND:                -0.860
REMARK  Name = 
REMARK  7 active torsions:
REMARK  status: ('A' for Active; 'I' for Inactive)
REMARK    1  A    between atoms: C_2  and  C_4
REMARK    2  A    between atoms: C_7  and  O_8
REMARK    3  A    between atoms: O_8  and  C_9
REMARK    4  A    between atoms: C_9  and  C_10
REMARK    5  A    between atoms: C_10  and  C_11
REMARK    6  A    between atoms: C_15  and  O_16
REMARK    7  A    between atoms: O_16  and  C_17
REMARK                            x       y       z     vdW  Elec       q    Type
REMARK                         _______ _______ _______ _____ _____    ______ ____
ROOT
ATOM      1  C   UNL     1      43.966   4.240  11.013  0.00  0.00    +0.000 C 
ENDROOT
BRANCH   1   2
ATOM      2  O   UNL     1      43.784   3.007  10.300  0.00  0.00    +0.000 OA
BRANCH   2   6
ATOM      3  C   UNL     1      46.499   2.670   7.206  0.00  0.00    +0.000 A 
ATOM      4  C   UNL     1      45.917   3.909   7.482  0.00  0.00    +0.000 A 
ATOM      5  C   UNL     1      44.999   4.015   8.530  0.00  0.00    +0.000 A 
ATOM      6  C   UNL     1      44.700   2.878   9.269  0.00  0.00    +0.000 A 
ATOM      7  N   UNL     1      45.246   1.671   9.016  0.00  0.00    +0.000 NA
ATOM      8  C   UNL     1      46.120   1.588   7.986  0.00  0.00    +0.000 A 
BRANCH   3  10
ATOM      9  N   UNL     1      48.800   2.557   6.425  0.00  0.00    +0.000 N 
ATOM     10  C   UNL     1      47.474   2.435   6.120  0.00  0.00    +0.000 C 
ATOM     11  O   UNL     1      47.116   2.098   5.000  0.00  0.00    +0.000 OA
ATOM     12  H   UNL     1      49.448   2.271   5.700  0.00  0.00    +0.000 HD
ATOM     13  H   UNL     1      49.143   2.573   7.375  0.00  0.00    +0.000 HD
ENDBRANCH   3  10
ENDBRANCH   2   6
ENDBRANCH   1   2
BRANCH   1  14
ATOM     14  C   UNL     1      44.664   3.994  12.354  0.00  0.00    +0.000 C 
BRANCH  14  15
ATOM     15  C   UNL     1      45.451   5.220  12.767  0.00  0.00    +0.000 A 
ATOM     16  C   UNL     1      44.973   6.490  12.417  0.00  0.00    +0.000 A 
ATOM     17  C   UNL     1      45.744   7.625  12.662  0.00  0.00    +0.000 A 
ATOM     18  C   UNL     1      46.986   7.507  13.284  0.00  0.00    +0.000 A 
ATOM     19  C   UNL     1      47.452   6.257  13.700  0.00  0.00    +0.000 A 
ATOM     20  C   UNL     1      46.697   5.114  13.412  0.00  0.00    +0.000 A 
BRANCH  19  21
ATOM     21  O   UNL     1      48.647   6.071  14.355  0.00  0.00    +0.000 OA
BRANCH  21  22
ATOM     22  C   UNL     1      48.902   7.008  15.416  0.00  0.00    +0.000 C 
ATOM     23  C   UNL     1      50.352   7.447  15.426  0.00  0.00    +0.000 C 
ATOM     24  C   UNL     1      51.030   6.481  16.371  0.00  0.00    +0.000 C 
ATOM     25  O   UNL     1      50.042   5.984  17.273  0.00  0.00    +0.000 OA
ATOM     26  C   UNL     1      48.742   6.330  16.772  0.00  0.00    +0.000 C 
ENDBRANCH  21  22
ENDBRANCH  19  21
ENDBRANCH  14  15
ENDBRANCH   1  14
TORSDOF 7
ENDMDL
MODEL 3
REMARK VINA RESULT:    -7.135      2.468      3.049
REMARK INTER + INTRA:         -10.916
REMARK INTER:                  -9.754
REMARK INTRA:                  -1.162
REMARK UNBOUND:                -0.860
REMARK  Name = 
REMARK  7 active torsions:
REMARK  status: ('A' for Active; 'I' for Inactive)
REMARK    1  A    between atoms: C_2  and  C_4
REMARK    2  A    between atoms: C_7  and  O_8
REMARK    3  A    between atoms: O_8  and  C_9
REMARK    4  A    between atoms: C_9  and  C_10
REMARK    5  A    between atoms: C_10  and  C_11
REMARK    6  A    between atoms: C_15  and  O_16
REMARK    7  A    between atoms: O_16  and  C_17
REMARK                            x       y       z     vdW  Elec       q    Type
REMARK                         _______ _______ _______ _____ _____    ______ ____
ROOT
ATOM      1  C   UNL     1      43.910   2.754  11.842  0.00  0.00    +0.000 C 
ENDROOT
BRANCH   1   2
ATOM      2  O   UNL     1      43.440   3.130  10.538  0.00  0.00    +0.000 OA
BRANCH   2   6
ATOM      3  C   UNL     1      46.386   2.745   7.668  0.00  0.00    +0.000 A 
ATOM      4  C   UNL     1      45.916   4.016   8.010  0.00  0.00    +0.000 A 
ATOM      5  C   UNL     1      44.919   4.137   8.982  0.00  0.00    +0.000 A 
ATOM      6  C   UNL     1      44.431   2.984   9.581  0.00  0.00    +0.000 A 
ATOM      7  N   UNL     1      44.866   1.748   9.262  0.00  0.00    +0.000 NA
ATOM      8  C   UNL     1      45.820   1.652   8.307  0.00  0.00    +0.000 A 
BRANCH   3  10
ATOM      9  N   UNL     1      47.317   3.144   5.456  0.00  0.00    +0.000 N 
ATOM     10  C   UNL     1      47.429   2.493   6.652  0.00  0.00    +0.000 C 
ATOM     11  O   UNL     1      48.385   1.766   6.884  0.00  0.00    +0.000 OA
ATOM     12  H   UNL     1      48.105   3.051   4.828  0.00  0.00    +0.000 HD
ATOM     13  H   UNL     1      46.705   3.936   5.321  0.00  0.00    +0.000 HD
ENDBRANCH   3  10
ENDBRANCH   2   6
ENDBRANCH   1   2
BRANCH   1  14
ATOM     14  C   UNL     1      43.594   3.845  12.868  0.00  0.00    +0.000 C 
BRANCH  14  15
ATOM     15  C   UNL     1      44.315   5.126  12.507  0.00  0.00    +0.000 A 
ATOM     16  C   UNL     1      43.605   6.158  11.878  0.00  0.00    +0.000 A 
ATOM     17  C   UNL     1      44.271   7.289  11.411  0.00  0.00    +0.000 A 
ATOM     18  C   UNL     1      45.647   7.416  11.592  0.00  0.00    +0.000 A 
ATOM     19  C   UNL     1      46.364   6.430  12.275  0.00  0.00    +0.000 A 
ATOM     20  C   UNL     1      45.701   5.273  12.702  0.00  0.00    +0.000 A 
BRANCH  19  21
ATOM     21  O   UNL     1      47.714   6.507  12.526  0.00  0.00    +0.000 OA
BRANCH  21  22
ATOM     22  C   UNL     1      48.131   7.705  13.204  0.00  0.00    +0.000 C 
ATOM     23  C   UNL     1      49.035   8.547  12.328  0.00  0.00    +0.000 C 
ATOM     24  C   UNL     1      50.432   8.088  12.681  0.00  0.00    +0.000 C 
ATOM     25  O   UNL     1      50.397   7.552  14.003  0.00  0.00    +0.000 OA
ATOM     26  C   UNL     1      49.028   7.361  14.388  0.00  0.00    +0.000 C 
ENDBRANCH  21  22
ENDBRANCH  19  21
ENDBRANCH  14  15
ENDBRANCH   1  14
TORSDOF 7
ENDMDL
MODEL 4
REMARK VINA RESULT:    -6.898      2.761      4.237
REMARK INTER + INTRA:         -10.581
REMARK INTER:                  -9.772
REMARK INTRA:                  -0.809
REMARK UNBOUND:                -0.860
REMARK  Name = 
REMARK  7 active torsions:
REMARK  status: ('A' for Active; 'I' for Inactive)
REMARK    1  A    between atoms: C_2  and  C_4
REMARK    2  A    between atoms: C_7  and  O_8
REMARK    3  A    between atoms: O_8  and  C_9
REMARK    4  A    between atoms: C_9  and  C_10
REMARK    5  A    between atoms: C_10  and  C_11
REMARK    6  A    between atoms: C_15  and  O_16
REMARK    7  A    between atoms: O_16  and  C_17
REMARK                            x       y       z     vdW  Elec       q    Type
REMARK                         _______ _______ _______ _____ _____    ______ ____
ROOT
ATOM      1  C   UNL     1      44.221   4.305  11.296  0.00  0.00    +0.000 C 
ENDROOT
BRANCH   1   2
ATOM      2  O   UNL     1      43.742   4.149   9.951  0.00  0.00    +0.000 OA
BRANCH   2   6
ATOM      3  C   UNL     1      46.625   2.449   7.531  0.00  0.00    +0.000 A 
ATOM      4  C   UNL     1      45.883   1.639   8.394  0.00  0.00    +0.000 A 
ATOM      5  C   UNL     1      44.910   2.222   9.211  0.00  0.00    +0.000 A 
ATOM      6  C   UNL     1      44.710   3.594   9.130  0.00  0.00    +0.000 A 
ATOM      7  N   UNL     1      45.418   4.394   8.307  0.00  0.00    +0.000 NA
ATOM      8  C   UNL     1      46.366   3.811   7.537  0.00  0.00    +0.000 A 
BRANCH   3  10
ATOM      9  N   UNL     1      48.723   2.788   6.347  0.00  0.00    +0.000 N 
ATOM     10  C   UNL     1      47.683   1.947   6.629  0.00  0.00    +0.000 C 
ATOM     11  O   UNL     1      47.660   0.807   6.187  0.00  0.00    +0.000 OA
ATOM     12  H   UNL     1      49.493   2.380   5.830  0.00  0.00    +0.000 HD
ATOM     13  H   UNL     1      48.914   3.620   6.885  0.00  0.00    +0.000 HD
ENDBRANCH   3  10
ENDBRANCH   2   6
ENDBRANCH   1   2
BRANCH   1  14
ATOM     14  C   UNL     1      44.420   5.786  11.632  0.00  0.00    +0.000 C 
BRANCH  14  15
ATOM     15  C   UNL     1      45.816   6.016  12.170  0.00  0.00    +0.000 A 
ATOM     16  C   UNL     1      46.241   5.305  13.301  0.00  0.00    +0.000 A 
ATOM     17  C   UNL     1      47.466   5.596  13.898  0.00  0.00    +0.000 A 
ATOM     18  C   UNL     1      48.291   6.581  13.357  0.00  0.00    +0.000 A 
ATOM     19  C   UNL     1      47.917   7.256  12.193  0.00  0.00    +0.000 A 
ATOM     20  C   UNL     1      46.666   6.994  11.621  0.00  0.00    +0.000 A 
BRANCH  19  21
ATOM     21  O   UNL     1      48.698   8.210  11.582  0.00  0.00    +0.000 OA
BRANCH  21  22
ATOM     22  C   UNL     1      48.783   9.459  12.290  0.00  0.00    +0.000 C 
ATOM     23  C   UNL     1      48.147  10.584  11.500  0.00  0.00    +0.000 C 
ATOM     24  C   UNL     1      49.288  11.175  10.703  0.00  0.00    +0.000 C 
ATOM     25  O   UNL     1      50.502  10.890  11.398  0.00  0.00    +0.000 OA
ATOM     26  C   UNL     1      50.237   9.905  12.407  0.00  0.00    +0.000 C 
ENDBRANCH  21  22
ENDBRANCH  19  21
ENDBRANCH  14  15
ENDBRANCH   1  14
TORSDOF 7
ENDMDL
MODEL 5
REMARK VINA RESULT:    -6.627      2.889      8.172
REMARK INTER + INTRA:         -10.199
REMARK INTER:                  -9.390
REMARK INTRA:                  -0.809
REMARK UNBOUND:                -0.860
REMARK  Name = 
REMARK  7 active torsions:
REMARK  status: ('A' for Active; 'I' for Inactive)
REMARK    1  A    between atoms: C_2  and  C_4
REMARK    2  A    between atoms: C_7  and  O_8
REMARK    3  A    between atoms: O_8  and  C_9
REMARK    4  A    between atoms: C_9  and  C_10
REMARK    5  A    between atoms: C_10  and  C_11
REMARK    6  A    between atoms: C_15  and  O_16
REMARK    7  A    between atoms: O_16  and  C_17
REMARK                            x       y       z     vdW  Elec       q    Type
REMARK                         _______ _______ _______ _____ _____    ______ ____
ROOT
ATOM      1  C   UNL     1      46.958   6.203  11.628  0.00  0.00    +0.000 C 
ENDROOT
BRANCH   1   2
ATOM      2  O   UNL     1      47.075   6.985  12.827  0.00  0.00    +0.000 OA
BRANCH   2   6
ATOM      3  C   UNL     1      47.837   4.581  16.097  0.00  0.00    +0.000 A 
ATOM      4  C   UNL     1      46.937   4.151  15.119  0.00  0.00    +0.000 A 
ATOM      5  C   UNL     1      46.684   4.971  14.015  0.00  0.00    +0.000 A 
ATOM      6  C   UNL     1      47.344   6.189  13.927  0.00  0.00    +0.000 A 
ATOM      7  N   UNL     1      48.213   6.625  14.863  0.00  0.00    +0.000 NA
ATOM      8  C   UNL     1      48.431   5.823  15.931  0.00  0.00    +0.000 A 
BRANCH   3  10
ATOM      9  N   UNL     1      47.222   2.966  17.810  0.00  0.00    +0.000 N 
ATOM     10  C   UNL     1      48.176   3.805  17.309  0.00  0.00    +0.000 C 
ATOM     11  O   UNL     1      49.285   3.871  17.821  0.00  0.00    +0.000 OA
ATOM     12  H   UNL     1      47.520   2.357  18.562  0.00  0.00    +0.000 HD
ATOM     13  H   UNL     1      46.408   2.688  17.281  0.00  0.00    +0.000 HD
ENDBRANCH   3  10
ENDBRANCH   2   6
ENDBRANCH   1   2
BRANCH   1  14
ATOM     14  C   UNL     1      45.577   6.387  10.993  0.00  0.00    +0.000 C 
BRANCH  14  15
ATOM     15  C   UNL     1      45.099   5.081  10.395  0.00  0.00    +0.000 A 
ATOM     16  C   UNL     1      44.382   4.182  11.197  0.00  0.00    +0.000 A 
ATOM     17  C   UNL     1      44.051   2.917  10.715  0.00  0.00    +0.000 A 
ATOM     18  C   UNL     1      44.406   2.547   9.419  0.00  0.00    +0.000 A 
ATOM     19  C   UNL     1      45.063   3.451   8.581  0.00  0.00    +0.000 A 
ATOM     20  C   UNL     1      45.435   4.704   9.081  0.00  0.00    +0.000 A 
BRANCH  19  21
ATOM     21  O   UNL     1      45.408   3.168   7.279  0.00  0.00    +0.000 OA
BRANCH  21  22
ATOM     22  C   UNL     1      46.817   2.970   7.061  0.00  0.00    +0.000 C 
ATOM     23  C   UNL     1      47.178   3.150   5.602  0.00  0.00    +0.000 C 
ATOM     24  C   UNL     1      47.085   1.758   5.018  0.00  0.00    +0.000 C 
ATOM     25  O   UNL     1      47.287   0.824   6.078  0.00  0.00    +0.000 OA
ATOM     26  C   UNL     1      47.196   1.518   7.330  0.00  0.00    +0.000 C 
ENDBRANCH  21  22
ENDBRANCH  19  21
ENDBRANCH  14  15
ENDBRANCH   1  14
TORSDOF 7
ENDMDL
MODEL 6
REMARK VINA RESULT:    -6.370      3.140      7.566
REMARK INTER + INTRA:          -9.837
REMARK INTER:                  -9.221
REMARK INTRA:                  -0.616
REMARK UNBOUND:                -0.860
REMARK  Name = 
REMARK  7 active torsions:
REMARK  status: ('A' for Active; 'I' for Inactive)
REMARK    1  A    between atoms: C_2  and  C_4
REMARK    2  A    between atoms: C_7  and  O_8
REMARK    3  A    between atoms: O_8  and  C_9
REMARK    4  A    between atoms: C_9  and  C_10
REMARK    5  A    between atoms: C_10  and  C_11
REMARK    6  A    between atoms: C_15  and  O_16
REMARK    7  A    between atoms: O_16  and  C_17
REMARK                            x       y       z     vdW  Elec       q    Type
REMARK                         _______ _______ _______ _____ _____    ______ ____
ROOT
ATOM      1  C   UNL     1      43.940   3.007  12.346  0.00  0.00    +0.000 C 
ENDROOT
BRANCH   1   2
ATOM      2  O   UNL     1      43.899   3.987  13.396  0.00  0.00    +0.000 OA
BRANCH   2   6
ATOM      3  C   UNL     1      47.151   6.526  13.206  0.00  0.00    +0.000 A 
ATOM      4  C   UNL     1      47.352   5.163  13.434  0.00  0.00    +0.000 A 
ATOM      5  C   UNL     1      46.246   4.310  13.498  0.00  0.00    +0.000 A 
ATOM      6  C   UNL     1      44.979   4.851  13.325  0.00  0.00    +0.000 A 
ATOM      7  N   UNL     1      44.763   6.165  13.109  0.00  0.00    +0.000 NA
ATOM      8  C   UNL     1      45.846   6.975  13.066  0.00  0.00    +0.000 A 
BRANCH   3  10
ATOM      9  N   UNL     1      49.520   7.053  13.039  0.00  0.00    +0.000 N 
ATOM     10  C   UNL     1      48.240   7.522  13.127  0.00  0.00    +0.000 C 
ATOM     11  O   UNL     1      48.008   8.722  13.092  0.00  0.00    +0.000 OA
ATOM     12  H   UNL     1      50.235   7.749  12.862  0.00  0.00    +0.000 HD
ATOM     13  H   UNL     1      49.736   6.095  12.803  0.00  0.00    +0.000 HD
ENDBRANCH   3  10
ENDBRANCH   2   6
ENDBRANCH   1   2
BRANCH   1  14
ATOM     14  C   UNL     1      43.290   3.551  11.071  0.00  0.00    +0.000 C 
BRANCH  14  15
ATOM     15  C   UNL     1      44.350   3.865  10.037  0.00  0.00    +0.000 A 
ATOM     16  C   UNL     1      45.095   5.047  10.156  0.00  0.00    +0.000 A 
ATOM     17  C   UNL     1      45.977   5.428   9.148  0.00  0.00    +0.000 A 
ATOM     18  C   UNL     1      46.147   4.622   8.024  0.00  0.00    +0.000 A 
ATOM     19  C   UNL     1      45.464   3.408   7.915  0.00  0.00    +0.000 A 
ATOM     20  C   UNL     1      44.543   3.049   8.907  0.00  0.00    +0.000 A 
BRANCH  19  21
ATOM     21  O   UNL     1      45.612   2.543   6.856  0.00  0.00    +0.000 OA
BRANCH  21  22
ATOM     22  C   UNL     1      46.977   2.271   6.491  0.00  0.00    +0.000 C 
ATOM     23  C   UNL     1      47.219   2.545   5.021  0.00  0.00    +0.000 C 
ATOM     24  C   UNL     1      46.972   1.213   4.347  0.00  0.00    +0.000 C 
ATOM     25  O   UNL     1      47.200   0.185   5.310  0.00  0.00    +0.000 OA
ATOM     26  C   UNL     1      47.272   0.781   6.613  0.00  0.00    +0.000 C 
ENDBRANCH  21  22
ENDBRANCH  19  21
ENDBRANCH  14  15
ENDBRANCH   1  14
TORSDOF 7
ENDMDL
MODEL 7
REMARK VINA RESULT:    -6.360      3.377      7.900
REMARK INTER + INTRA:          -9.823
REMARK INTER:                  -8.960
REMARK INTRA:                  -0.863
REMARK UNBOUND:                -0.860
REMARK  Name = 
REMARK  7 active torsions:
REMARK  status: ('A' for Active; 'I' for Inactive)
REMARK    1  A    between atoms: C_2  and  C_4
REMARK    2  A    between atoms: C_7  and  O_8
REMARK    3  A    between atoms: O_8  and  C_9
REMARK    4  A    between atoms: C_9  and  C_10
REMARK    5  A    between atoms: C_10  and  C_11
REMARK    6  A    between atoms: C_15  and  O_16
REMARK    7  A    between atoms: O_16  and  C_17
REMARK                            x       y       z     vdW  Elec       q    Type
REMARK                         _______ _______ _______ _____ _____    ______ ____
ROOT
ATOM      1  C   UNL     1      49.484   7.324  13.301  0.00  0.00    +0.000 C 
ENDROOT
BRANCH   1   2
ATOM      2  O   UNL     1      49.796   7.545  14.686  0.00  0.00    +0.000 OA
BRANCH   2   6
ATOM      3  C   UNL     1      48.352   4.522  17.100  0.00  0.00    +0.000 A 
ATOM      4  C   UNL     1      49.498   5.222  17.482  0.00  0.00    +0.000 A 
ATOM      5  C   UNL     1      49.981   6.243  16.659  0.00  0.00    +0.000 A 
ATOM      6  C   UNL     1      49.296   6.531  15.486  0.00  0.00    +0.000 A 
ATOM      7  N   UNL     1      48.191   5.864  15.096  0.00  0.00    +0.000 NA
ATOM      8  C   UNL     1      47.750   4.868  15.900  0.00  0.00    +0.000 A 
BRANCH   3  10
ATOM      9  N   UNL     1      48.314   3.131  19.096  0.00  0.00    +0.000 N 
ATOM     10  C   UNL     1      47.755   3.419  17.883  0.00  0.00    +0.000 C 
ATOM     11  O   UNL     1      46.768   2.815  17.488  0.00  0.00    +0.000 OA
ATOM     12  H   UNL     1      47.812   2.459  19.665  0.00  0.00    +0.000 HD
ATOM     13  H   UNL     1      48.946   3.760  19.569  0.00  0.00    +0.000 HD
ENDBRANCH   3  10
ENDBRANCH   2   6
ENDBRANCH   1   2
BRANCH   1  14
ATOM     14  C   UNL     1      48.799   8.553  12.696  0.00  0.00    +0.000 C 
BRANCH  14  15
ATOM     15  C   UNL     1      47.412   8.192  12.209  0.00  0.00    +0.000 A 
ATOM     16  C   UNL     1      46.434   9.192  12.123  0.00  0.00    +0.000 A 
ATOM     17  C   UNL     1      45.117   8.864  11.812  0.00  0.00    +0.000 A 
ATOM     18  C   UNL     1      44.766   7.540  11.555  0.00  0.00    +0.000 A 
ATOM     19  C   UNL     1      45.738   6.536  11.571  0.00  0.00    +0.000 A 
ATOM     20  C   UNL     1      47.052   6.860  11.929  0.00  0.00    +0.000 A 
BRANCH  19  21
ATOM     21  O   UNL     1      45.473   5.216  11.289  0.00  0.00    +0.000 OA
BRANCH  21  22
ATOM     22  C   UNL     1      44.180   4.975  10.706  0.00  0.00    +0.000 C 
ATOM     23  C   UNL     1      43.252   4.294  11.689  0.00  0.00    +0.000 C 
ATOM     24  C   UNL     1      43.438   2.818  11.419  0.00  0.00    +0.000 C 
ATOM     25  O   UNL     1      43.887   2.671  10.072  0.00  0.00    +0.000 OA
ATOM     26  C   UNL     1      44.288   3.957   9.577  0.00  0.00    +0.000 C 
ENDBRANCH  21  22
ENDBRANCH  19  21
ENDBRANCH  14  15
ENDBRANCH   1  14
TORSDOF 7
ENDMDL
MODEL 8
REMARK VINA RESULT:    -6.324      3.253      4.732
REMARK INTER + INTRA:          -9.772
REMARK INTER:                  -9.081
REMARK INTRA:                  -0.690
REMARK UNBOUND:                -0.860
REMARK  Name = 
REMARK  7 active torsions:
REMARK  status: ('A' for Active; 'I' for Inactive)
REMARK    1  A    between atoms: C_2  and  C_4
REMARK    2  A    between atoms: C_7  and  O_8
REMARK    3  A    between atoms: O_8  and  C_9
REMARK    4  A    between atoms: C_9  and  C_10
REMARK    5  A    between atoms: C_10  and  C_11
REMARK    6  A    between atoms: C_15  and  O_16
REMARK    7  A    between atoms: O_16  and  C_17
REMARK                            x       y       z     vdW  Elec       q    Type
REMARK                         _______ _______ _______ _____ _____    ______ ____
ROOT
ATOM      1  C   UNL     1      46.247   4.049   7.775  0.00  0.00    +0.000 C 
ENDROOT
BRANCH   1   2
ATOM      2  O   UNL     1      46.940   2.797   7.907  0.00  0.00    +0.000 OA
BRANCH   2   6
ATOM      3  C   UNL     1      46.977   0.762   4.313  0.00  0.00    +0.000 A 
ATOM      4  C   UNL     1      46.802   2.148   4.320  0.00  0.00    +0.000 A 
ATOM      5  C   UNL     1      46.790   2.829   5.540  0.00  0.00    +0.000 A 
ATOM      6  C   UNL     1      46.958   2.101   6.709  0.00  0.00    +0.000 A 
ATOM      7  N   UNL     1      47.123   0.762   6.726  0.00  0.00    +0.000 NA
ATOM      8  C   UNL     1      47.116   0.120   5.534  0.00  0.00    +0.000 A 
BRANCH   3  10
ATOM      9  N   UNL     1      46.129   0.267   2.087  0.00  0.00    +0.000 N 
ATOM     10  C   UNL     1      46.998  -0.065   3.088  0.00  0.00    +0.000 C 
ATOM     11  O   UNL     1      47.794  -0.983   2.949  0.00  0.00    +0.000 OA
ATOM     12  H   UNL     1      46.249  -0.234   1.214  0.00  0.00    +0.000 HD
ATOM     13  H   UNL     1      45.651   1.156   2.051  0.00  0.00    +0.000 HD
ENDBRANCH   3  10
ENDBRANCH   2   6
ENDBRANCH   1   2
BRANCH   1  14
ATOM     14  C   UNL     1      44.780   3.903   8.189  0.00  0.00    +0.000 C 
BRANCH  14  15
ATOM     15  C   UNL     1      44.665   3.851   9.697  0.00  0.00    +0.000 A 
ATOM     16  C   UNL     1      44.006   2.770  10.297  0.00  0.00    +0.000 A 
ATOM     17  C   UNL     1      43.764   2.765  11.669  0.00  0.00    +0.000 A 
ATOM     18  C   UNL     1      44.203   3.824  12.461  0.00  0.00    +0.000 A 
ATOM     19  C   UNL     1      44.919   4.881  11.894  0.00  0.00    +0.000 A 
ATOM     20  C   UNL     1      45.121   4.907  10.509  0.00  0.00    +0.000 A 
BRANCH  19  21
ATOM     21  O   UNL     1      45.417   5.939  12.619  0.00  0.00    +0.000 OA
BRANCH  21  22
ATOM     22  C   UNL     1      45.959   7.009  11.824  0.00  0.00    +0.000 C 
ATOM     23  C   UNL     1      47.307   7.457  12.350  0.00  0.00    +0.000 C 
ATOM     24  C   UNL     1      46.981   8.584  13.304  0.00  0.00    +0.000 C 
ATOM     25  O   UNL     1      45.731   9.147  12.908  0.00  0.00    +0.000 OA
ATOM     26  C   UNL     1      45.103   8.262  11.968  0.00  0.00    +0.000 C 
ENDBRANCH  21  22
ENDBRANCH  19  21
ENDBRANCH  14  15
ENDBRANCH   1  14
TORSDOF 7
ENDMDL
MODEL 9
REMARK VINA RESULT:    -6.261      2.970      4.732
REMARK INTER + INTRA:          -9.684
REMARK INTER:                  -8.440
REMARK INTRA:                  -1.244
REMARK UNBOUND:                -0.860
REMARK  Name = 
REMARK  7 active torsions:
REMARK  status: ('A' for Active; 'I' for Inactive)
REMARK    1  A    between atoms: C_2  and  C_4
REMARK    2  A    between atoms: C_7  and  O_8
REMARK    3  A    between atoms: O_8  and  C_9
REMARK    4  A    between atoms: C_9  and  C_10
REMARK    5  A    between atoms: C_10  and  C_11
REMARK    6  A    between atoms: C_15  and  O_16
REMARK    7  A    between atoms: O_16  and  C_17
REMARK                            x       y       z     vdW  Elec       q    Type
REMARK                         _______ _______ _______ _____ _____    ______ ____
ROOT
ATOM      1  C   UNL     1      48.221   7.870  11.768  0.00  0.00    +0.000 C 
ENDROOT
BRANCH   1   2
ATOM      2  O   UNL     1      46.855   7.989  12.194  0.00  0.00    +0.000 OA
BRANCH   2   6
ATOM      3  C   UNL     1      44.819   4.425  11.730  0.00  0.00    +0.000 A 
ATOM      4  C   UNL     1      45.399   4.734  12.962  0.00  0.00    +0.000 A 
ATOM      5  C   UNL     1      46.087   5.941  13.111  0.00  0.00    +0.000 A 
ATOM      6  C   UNL     1      46.165   6.800  12.023  0.00  0.00    +0.000 A 
ATOM      7  N   UNL     1      45.617   6.519  10.823  0.00  0.00    +0.000 NA
ATOM      8  C   UNL     1      44.969   5.337  10.696  0.00  0.00    +0.000 A 
BRANCH   3  10
ATOM      9  N   UNL     1      43.785   2.367  12.512  0.00  0.00    +0.000 N 
ATOM     10  C   UNL     1      44.077   3.178  11.452  0.00  0.00    +0.000 C 
ATOM     11  O   UNL     1      43.693   2.899  10.325  0.00  0.00    +0.000 OA
ATOM     12  H   UNL     1      43.171   1.585  12.315  0.00  0.00    +0.000 HD
ATOM     13  H   UNL     1      43.848   2.678  13.471  0.00  0.00    +0.000 HD
ENDBRANCH   3  10
ENDBRANCH   2   6
ENDBRANCH   1   2
BRANCH   1  14
ATOM     14  C   UNL     1      49.143   8.698  12.667  0.00  0.00    +0.000 C 
BRANCH  14  15
ATOM     15  C   UNL     1      48.940   8.316  14.117  0.00  0.00    +0.000 A 
ATOM     16  C   UNL     1      48.446   9.272  15.016  0.00  0.00    +0.000 A 
ATOM     17  C   UNL     1      48.380   8.991  16.378  0.00  0.00    +0.000 A 
ATOM     18  C   UNL     1      48.779   7.745  16.856  0.00  0.00    +0.000 A 
ATOM     19  C   UNL     1      49.213   6.754  15.971  0.00  0.00    +0.000 A 
ATOM     20  C   UNL     1      49.322   7.054  14.608  0.00  0.00    +0.000 A 
BRANCH  19  21
ATOM     21  O   UNL     1      49.583   5.490  16.367  0.00  0.00    +0.000 OA
BRANCH  21  22
ATOM     22  C   UNL     1      48.570   4.765  17.087  0.00  0.00    +0.000 C 
ATOM     23  C   UNL     1      49.118   3.476  17.661  0.00  0.00    +0.000 C 
ATOM     24  C   UNL     1      48.834   2.441  16.596  0.00  0.00    +0.000 C 
ATOM     25  O   UNL     1      47.724   2.898  15.825  0.00  0.00    +0.000 OA
ATOM     26  C   UNL     1      47.486   4.279  16.131  0.00  0.00    +0.000 C 
ENDBRANCH  21  22
ENDBRANCH  19  21
ENDBRANCH  14  15
ENDBRANCH   1  14
TORSDOF 7
ENDMDL
