MODEL 1
REMARK VINA RESULT:    -7.741      0.000      0.000
REMARK INTER + INTRA:         -10.736
REMARK INTER:                 -10.003
REMARK INTRA:                  -0.733
REMARK UNBOUND:                -0.733
REMARK  Name = 
REMARK  5 active torsions:
REMARK  status: ('A' for Active; 'I' for Inactive)
REMARK    1  A    between atoms: C_2  and  C_3
REMARK    2  A    between atoms: C_6  and  O_7
REMARK    3  A    between atoms: O_7  and  C_8
REMARK    4  A    between atoms: C_8  and  C_9
REMARK    5  A    between atoms: C_14  and  C_15
REMARK                            x       y       z     vdW  Elec       q    Type
REMARK                         _______ _______ _______ _____ _____    ______ ____
ROOT
ATOM      1  C   UNL     1      45.340   5.247  11.629  0.00  0.00    +0.000 A 
ATOM      2  C   UNL     1      45.520   4.312  12.657  0.00  0.00    +0.000 A 
ATOM      3  C   UNL     1      46.599   4.437  13.523  0.00  0.00    +0.000 A 
ATOM      4  F   UNL     1      46.757   3.552  14.516  0.00  0.00    +0.000 F 
ATOM      5  C   UNL     1      47.445   5.534  13.448  0.00  0.00    +0.000 A 
ATOM      6  C   UNL     1      47.206   6.548  12.501  0.00  0.00    +0.000 A 
ATOM      7  C   UNL     1      46.234   6.327  11.523  0.00  0.00    +0.000 A 
ENDROOT
BRANCH   6   8
ATOM      8  C   UNL     1      47.809   7.924  12.772  0.00  0.00    +0.000 C 
ATOM      9  C   UNL     1      48.751   8.258  11.589  0.00  0.00    +0.000 C 
ATOM     10  C   UNL     1      50.129   7.613  11.735  0.00  0.00    +0.000 C 
ATOM     11  N   UNL     1      50.784   8.033  12.973  0.00  0.00    +0.000 NA
ATOM     12  C   UNL     1      49.995   7.646  14.140  0.00  0.00    +0.000 C 
ATOM     13  C   UNL     1      48.556   8.174  14.098  0.00  0.00    +0.000 C 
ATOM     14  H   UNL     1      50.894   9.047  12.962  0.00  0.00    +0.000 HD
ENDBRANCH   6   8
BRANCH   1  15
ATOM     15  C   UNL     1      44.084   5.218  10.786  0.00  0.00    +0.000 C 
BRANCH  15  16
ATOM     16  O   UNL     1      43.886   3.920  10.229  0.00  0.00    +0.000 OA
BRANCH  16  20
ATOM     17  C   UNL     1      46.579   2.385   7.441  0.00  0.00    +0.000 A 
ATOM     18  C   UNL     1      46.312   3.758   7.419  0.00  0.00    +0.000 A 
ATOM     19  C   UNL     1      45.413   4.317   8.335  0.00  0.00    +0.000 A 
ATOM     20  C   UNL     1      44.779   3.507   9.280  0.00  0.00    +0.000 A 
ATOM     21  C   UNL     1      45.048   2.134   9.292  0.00  0.00    +0.000 A 
ATOM     22  C   UNL     1      45.945   1.572   8.382  0.00  0.00    +0.000 A 
BRANCH  17  24
ATOM     23  N   UNL     1      48.252   1.366   5.743  0.00  0.00    +0.000 NA
ATOM     24  C   UNL     1      47.510   1.819   6.505  0.00  0.00    +0.000 C 
ENDBRANCH  17  24
ENDBRANCH  16  20
ENDBRANCH  15  16
ENDBRANCH   1  15
TORSDOF 5
ENDMDL
MODEL 2
REMARK VINA RESULT:    -7.512      1.824      2.333
REMARK INTER + INTRA:         -10.440
REMARK INTER:                  -9.522
REMARK INTRA:                  -0.919
REMARK UNBOUND:                -0.733
REMARK  Name = 
REMARK  5 active torsions:
REMARK  status: ('A' for Active; 'I' for Inactive)
REMARK    1  A    between atoms: C_2  and  C_3
REMARK    2  A    between atoms: C_6  and  O_7
REMARK    3  A    between atoms: O_7  and  C_8
REMARK    4  A    between atoms: C_8  and  C_9
REMARK    5  A    between atoms: C_14  and  C_15
REMARK                            x       y       z     vdW  Elec       q    Type
REMARK                         _______ _______ _______ _____ _____    ______ ____
ROOT
ATOM      1  C   UNL     1      44.804   5.454  11.779  0.00  0.00    +0.000 A 
ATOM      2  C   UNL     1      43.941   6.491  11.399  0.00  0.00    +0.000 A 
ATOM      3  C   UNL     1      44.383   7.806  11.435  0.00  0.00    +0.000 A 
ATOM      4  F   UNL     1      43.561   8.793  11.053  0.00  0.00    +0.000 F 
ATOM      5  C   UNL     1      45.703   8.102  11.745  0.00  0.00    +0.000 A 
ATOM      6  C   UNL     1      46.618   7.064  12.007  0.00  0.00    +0.000 A 
ATOM      7  C   UNL     1      46.125   5.765  12.146  0.00  0.00    +0.000 A 
ENDROOT
BRANCH   6   8
ATOM      8  C   UNL     1      48.103   7.373  11.839  0.00  0.00    +0.000 C 
ATOM      9  C   UNL     1      48.863   6.616  12.957  0.00  0.00    +0.000 C 
ATOM     10  C   UNL     1      48.847   7.366  14.289  0.00  0.00    +0.000 C 
ATOM     11  N   UNL     1      49.437   8.697  14.156  0.00  0.00    +0.000 NA
ATOM     12  C   UNL     1      48.694   9.505  13.192  0.00  0.00    +0.000 C 
ATOM     13  C   UNL     1      48.572   8.842  11.815  0.00  0.00    +0.000 C 
ATOM     14  H   UNL     1      50.402   8.602  13.843  0.00  0.00    +0.000 HD
ENDBRANCH   6   8
BRANCH   1  15
ATOM     15  C   UNL     1      44.391   4.011  11.587  0.00  0.00    +0.000 C 
BRANCH  15  16
ATOM     16  O   UNL     1      43.878   3.810  10.272  0.00  0.00    +0.000 OA
BRANCH  16  20
ATOM     17  C   UNL     1      46.572   2.387   7.426  0.00  0.00    +0.000 A 
ATOM     18  C   UNL     1      46.293   3.757   7.448  0.00  0.00    +0.000 A 
ATOM     19  C   UNL     1      45.394   4.279   8.385  0.00  0.00    +0.000 A 
ATOM     20  C   UNL     1      44.770   3.435   9.307  0.00  0.00    +0.000 A 
ATOM     21  C   UNL     1      45.050   2.064   9.274  0.00  0.00    +0.000 A 
ATOM     22  C   UNL     1      45.948   1.539   8.342  0.00  0.00    +0.000 A 
BRANCH  17  24
ATOM     23  N   UNL     1      48.247   1.424   5.697  0.00  0.00    +0.000 NA
ATOM     24  C   UNL     1      47.503   1.858   6.468  0.00  0.00    +0.000 C 
ENDBRANCH  17  24
ENDBRANCH  16  20
ENDBRANCH  15  16
ENDBRANCH   1  15
TORSDOF 5
ENDMDL
MODEL 3
REMARK VINA RESULT:    -7.122      2.005      2.857
REMARK INTER + INTRA:          -9.937
REMARK INTER:                  -8.982
REMARK INTRA:                  -0.955
REMARK UNBOUND:                -0.733
REMARK  Name = 
REMARK  5 active torsions:
REMARK  status: ('A' for Active; 'I' for Inactive)
REMARK    1  A    between atoms: C_2  and  C_3
REMARK    2  A    between atoms: C_6  and  O_7
REMARK    3  A    between atoms: O_7  and  C_8
REMARK    4  A    between atoms: C_8  and  C_9
REMARK    5  A    between atoms: C_14  and  C_15
REMARK                            x       y       z     vdW  Elec       q    Type
REMARK                         _______ _______ _______ _____ _____    ______ ____
ROOT
ATOM      1  C   UNL     1      44.324   5.074  11.945  0.00  0.00    +0.000 A 
ATOM      2  C   UNL     1      44.072   6.363  11.455  0.00  0.00    +0.000 A 
ATOM      3  C   UNL     1      44.883   7.420  11.844  0.00  0.00    +0.000 A 
ATOM      4  F   UNL     1      44.650   8.647  11.359  0.00  0.00    +0.000 F 
ATOM      5  C   UNL     1      46.004   7.202  12.632  0.00  0.00    +0.000 A 
ATOM      6  C   UNL     1      46.345   5.895  13.030  0.00  0.00    +0.000 A 
ATOM      7  C   UNL     1      45.430   4.868  12.788  0.00  0.00    +0.000 A 
ENDROOT
BRANCH   6   8
ATOM      8  C   UNL     1      47.794   5.635  13.434  0.00  0.00    +0.000 C 
ATOM      9  C   UNL     1      47.779   4.547  14.536  0.00  0.00    +0.000 C 
ATOM     10  C   UNL     1      47.485   5.120  15.923  0.00  0.00    +0.000 C 
ATOM     11  N   UNL     1      48.466   6.137  16.297  0.00  0.00    +0.000 NA
ATOM     12  C   UNL     1      48.452   7.252  15.352  0.00  0.00    +0.000 C 
ATOM     13  C   UNL     1      48.672   6.814  13.899  0.00  0.00    +0.000 C 
ATOM     14  H   UNL     1      49.394   5.714  16.306  0.00  0.00    +0.000 HD
ENDBRANCH   6   8
BRANCH   1  15
ATOM     15  C   UNL     1      43.554   3.890  11.403  0.00  0.00    +0.000 C 
BRANCH  15  16
ATOM     16  O   UNL     1      43.437   3.978   9.984  0.00  0.00    +0.000 OA
BRANCH  16  20
ATOM     17  C   UNL     1      46.485   2.428   7.598  0.00  0.00    +0.000 A 
ATOM     18  C   UNL     1      45.786   1.551   8.434  0.00  0.00    +0.000 A 
ATOM     19  C   UNL     1      44.757   2.028   9.254  0.00  0.00    +0.000 A 
ATOM     20  C   UNL     1      44.417   3.383   9.240  0.00  0.00    +0.000 A 
ATOM     21  C   UNL     1      45.125   4.255   8.405  0.00  0.00    +0.000 A 
ATOM     22  C   UNL     1      46.152   3.784   7.584  0.00  0.00    +0.000 A 
BRANCH  17  24
ATOM     23  N   UNL     1      48.379   1.541   6.065  0.00  0.00    +0.000 NA
ATOM     24  C   UNL     1      47.534   1.932   6.752  0.00  0.00    +0.000 C 
ENDBRANCH  17  24
ENDBRANCH  16  20
ENDBRANCH  15  16
ENDBRANCH   1  15
TORSDOF 5
ENDMDL
MODEL 4
REMARK VINA RESULT:    -6.582      4.213      7.983
REMARK INTER + INTRA:          -9.238
REMARK INTER:                  -8.459
REMARK INTRA:                  -0.779
REMARK UNBOUND:                -0.733
REMARK  Name = 
REMARK  5 active torsions:
REMARK  status: ('A' for Active; 'I' for Inactive)
REMARK    1  A    between atoms: C_2  and  C_3
REMARK    2  A    between atoms: C_6  and  O_7
REMARK    3  A    between atoms: O_7  and  C_8
REMARK    4  A    between atoms: C_8  and  C_9
REMARK    5  A    between atoms: C_14  and  C_15
REMARK                            x       y       z     vdW  Elec       q    Type
REMARK                         _______ _______ _______ _____ _____    ______ ____
ROOT
ATOM      1  C   UNL     1      47.064   7.148  13.080  0.00  0.00    +0.000 A 
ATOM      2  C   UNL     1      46.440   8.396  13.221  0.00  0.00    +0.000 A 
ATOM      3  C   UNL     1      45.364   8.726  12.408  0.00  0.00    +0.000 A 
ATOM      4  F   UNL     1      44.759   9.911  12.559  0.00  0.00    +0.000 F 
ATOM      5  C   UNL     1      44.830   7.797  11.527  0.00  0.00    +0.000 A 
ATOM      6  C   UNL     1      45.364   6.496  11.461  0.00  0.00    +0.000 A 
ATOM      7  C   UNL     1      46.553   6.231  12.145  0.00  0.00    +0.000 A 
ENDROOT
BRANCH   6   8
ATOM      8  C   UNL     1      44.473   5.394  10.894  0.00  0.00    +0.000 C 
ATOM      9  C   UNL     1      43.122   5.456  11.649  0.00  0.00    +0.000 C 
ATOM     10  C   UNL     1      43.170   4.737  12.998  0.00  0.00    +0.000 C 
ATOM     11  N   UNL     1      43.540   3.332  12.837  0.00  0.00    +0.000 NA
ATOM     12  C   UNL     1      44.862   3.205  12.228  0.00  0.00    +0.000 C 
ATOM     13  C   UNL     1      44.981   3.938  10.887  0.00  0.00    +0.000 C 
ATOM     14  H   UNL     1      42.849   2.873  12.244  0.00  0.00    +0.000 HD
ENDBRANCH   6   8
BRANCH   1  15
ATOM     15  C   UNL     1      48.126   6.713  14.065  0.00  0.00    +0.000 C 
BRANCH  15  16
ATOM     16  O   UNL     1      47.921   5.356  14.453  0.00  0.00    +0.000 OA
BRANCH  16  20
ATOM     17  C   UNL     1      48.338   4.719  18.552  0.00  0.00    +0.000 A 
ATOM     18  C   UNL     1      47.518   3.849  17.826  0.00  0.00    +0.000 A 
ATOM     19  C   UNL     1      47.347   4.026  16.448  0.00  0.00    +0.000 A 
ATOM     20  C   UNL     1      47.997   5.071  15.788  0.00  0.00    +0.000 A 
ATOM     21  C   UNL     1      48.811   5.941  16.523  0.00  0.00    +0.000 A 
ATOM     22  C   UNL     1      48.986   5.767  17.897  0.00  0.00    +0.000 A 
BRANCH  17  24
ATOM     23  N   UNL     1      48.653   4.378  21.103  0.00  0.00    +0.000 NA
ATOM     24  C   UNL     1      48.517   4.528  19.964  0.00  0.00    +0.000 C 
ENDBRANCH  17  24
ENDBRANCH  16  20
ENDBRANCH  15  16
ENDBRANCH   1  15
TORSDOF 5
ENDMDL
MODEL 5
REMARK VINA RESULT:    -6.481      4.443      7.816
REMARK INTER + INTRA:          -9.109
REMARK INTER:                  -8.754
REMARK INTRA:                  -0.355
REMARK UNBOUND:                -0.733
REMARK  Name = 
REMARK  5 active torsions:
REMARK  status: ('A' for Active; 'I' for Inactive)
REMARK    1  A    between atoms: C_2  and  C_3
REMARK    2  A    between atoms: C_6  and  O_7
REMARK    3  A    between atoms: O_7  and  C_8
REMARK    4  A    between atoms: C_8  and  C_9
REMARK    5  A    between atoms: C_14  and  C_15
REMARK                            x       y       z     vdW  Elec       q    Type
REMARK                         _______ _______ _______ _____ _____    ______ ____
ROOT
ATOM      1  C   UNL     1      47.006   4.942  14.304  0.00  0.00    +0.000 A 
ATOM      2  C   UNL     1      47.757   6.097  14.047  0.00  0.00    +0.000 A 
ATOM      3  C   UNL     1      47.629   6.747  12.827  0.00  0.00    +0.000 A 
ATOM      4  F   UNL     1      48.336   7.861  12.593  0.00  0.00    +0.000 F 
ATOM      5  C   UNL     1      46.691   6.328  11.896  0.00  0.00    +0.000 A 
ATOM      6  C   UNL     1      45.839   5.246  12.188  0.00  0.00    +0.000 A 
ATOM      7  C   UNL     1      46.095   4.490  13.333  0.00  0.00    +0.000 A 
ENDROOT
BRANCH   6   8
ATOM      8  C   UNL     1      44.533   5.144  11.403  0.00  0.00    +0.000 C 
ATOM      9  C   UNL     1      43.479   4.503  12.340  0.00  0.00    +0.000 C 
ATOM     10  C   UNL     1      43.583   2.979  12.386  0.00  0.00    +0.000 C 
ATOM     11  N   UNL     1      43.426   2.395  11.055  0.00  0.00    +0.000 NA
ATOM     12  C   UNL     1      44.465   2.876  10.147  0.00  0.00    +0.000 C 
ATOM     13  C   UNL     1      44.520   4.405  10.050  0.00  0.00    +0.000 C 
ATOM     14  H   UNL     1      42.511   2.652  10.687  0.00  0.00    +0.000 HD
ENDBRANCH   6   8
BRANCH   1  15
ATOM     15  C   UNL     1      47.012   4.322  15.684  0.00  0.00    +0.000 C 
BRANCH  15  16
ATOM     16  O   UNL     1      48.028   4.912  16.493  0.00  0.00    +0.000 OA
BRANCH  16  20
ATOM     17  C   UNL     1      51.086   2.256  17.477  0.00  0.00    +0.000 A 
ATOM     18  C   UNL     1      51.292   3.620  17.709  0.00  0.00    +0.000 A 
ATOM     19  C   UNL     1      50.293   4.548  17.392  0.00  0.00    +0.000 A 
ATOM     20  C   UNL     1      49.083   4.118  16.844  0.00  0.00    +0.000 A 
ATOM     21  C   UNL     1      48.887   2.752  16.609  0.00  0.00    +0.000 A 
ATOM     22  C   UNL     1      49.880   1.823  16.926  0.00  0.00    +0.000 A 
BRANCH  17  24
ATOM     23  N   UNL     1      52.943   0.550  18.079  0.00  0.00    +0.000 NA
ATOM     24  C   UNL     1      52.111   1.307  17.813  0.00  0.00    +0.000 C 
ENDBRANCH  17  24
ENDBRANCH  16  20
ENDBRANCH  15  16
ENDBRANCH   1  15
TORSDOF 5
ENDMDL
MODEL 6
REMARK VINA RESULT:    -6.340      4.216      8.356
REMARK INTER + INTRA:          -8.926
REMARK INTER:                  -8.061
REMARK INTRA:                  -0.865
REMARK UNBOUND:                -0.733
REMARK  Name = 
REMARK  5 active torsions:
REMARK  status: ('A' for Active; 'I' for Inactive)
REMARK    1  A    between atoms: C_2  and  C_3
REMARK    2  A    between atoms: C_6  and  O_7
REMARK    3  A    between atoms: O_7  and  C_8
REMARK    4  A    between atoms: C_8  and  C_9
REMARK    5  A    between atoms: C_14  and  C_15
REMARK                            x       y       z     vdW  Elec       q    Type
REMARK                         _______ _______ _______ _____ _____    ______ ____
ROOT
ATOM      1  C   UNL     1      47.615   7.240  13.448  0.00  0.00    +0.000 A 
ATOM      2  C   UNL     1      46.912   8.432  13.230  0.00  0.00    +0.000 A 
ATOM      3  C   UNL     1      45.609   8.388  12.753  0.00  0.00    +0.000 A 
ATOM      4  F   UNL     1      44.933   9.529  12.564  0.00  0.00    +0.000 F 
ATOM      5  C   UNL     1      44.956   7.175  12.586  0.00  0.00    +0.000 A 
ATOM      6  C   UNL     1      45.605   5.971  12.919  0.00  0.00    +0.000 A 
ATOM      7  C   UNL     1      46.967   6.013  13.223  0.00  0.00    +0.000 A 
ENDROOT
BRANCH   6   8
ATOM      8  C   UNL     1      44.730   4.754  13.207  0.00  0.00    +0.000 C 
ATOM      9  C   UNL     1      45.319   3.562  12.412  0.00  0.00    +0.000 C 
ATOM     10  C   UNL     1      44.870   3.552  10.951  0.00  0.00    +0.000 C 
ATOM     11  N   UNL     1      43.414   3.498  10.842  0.00  0.00    +0.000 NA
ATOM     12  C   UNL     1      42.798   4.660  11.479  0.00  0.00    +0.000 C 
ATOM     13  C   UNL     1      43.212   4.834  12.945  0.00  0.00    +0.000 C 
ATOM     14  H   UNL     1      43.078   2.648  11.295  0.00  0.00    +0.000 HD
ENDBRANCH   6   8
BRANCH   1  15
ATOM     15  C   UNL     1      48.970   7.268  14.121  0.00  0.00    +0.000 C 
BRANCH  15  16
ATOM     16  O   UNL     1      49.145   6.113  14.939  0.00  0.00    +0.000 OA
BRANCH  16  20
ATOM     17  C   UNL     1      47.909   6.154  18.921  0.00  0.00    +0.000 A 
ATOM     18  C   UNL     1      48.511   7.305  18.401  0.00  0.00    +0.000 A 
ATOM     19  C   UNL     1      48.943   7.336  17.070  0.00  0.00    +0.000 A 
ATOM     20  C   UNL     1      48.774   6.218  16.250  0.00  0.00    +0.000 A 
ATOM     21  C   UNL     1      48.177   5.068  16.780  0.00  0.00    +0.000 A 
ATOM     22  C   UNL     1      47.742   5.034  18.106  0.00  0.00    +0.000 A 
BRANCH  17  24
ATOM     23  N   UNL     1      47.104   6.119  21.385  0.00  0.00    +0.000 NA
ATOM     24  C   UNL     1      47.459   6.131  20.285  0.00  0.00    +0.000 C 
ENDBRANCH  17  24
ENDBRANCH  16  20
ENDBRANCH  15  16
ENDBRANCH   1  15
TORSDOF 5
ENDMDL
MODEL 7
REMARK VINA RESULT:    -6.186      4.216      8.782
REMARK INTER + INTRA:          -8.727
REMARK INTER:                  -8.421
REMARK INTRA:                  -0.306
REMARK UNBOUND:                -0.733
REMARK  Name = 
REMARK  5 active torsions:
REMARK  status: ('A' for Active; 'I' for Inactive)
REMARK    1  A    between atoms: C_2  and  C_3
REMARK    2  A    between atoms: C_6  and  O_7
REMARK    3  A    between atoms: O_7  and  C_8
REMARK    4  A    between atoms: C_8  and  C_9
REMARK    5  A    between atoms: C_14  and  C_15
REMARK                            x       y       z     vdW  Elec       q    Type
REMARK                         _______ _______ _______ _____ _____    ______ ____
ROOT
ATOM      1  C   UNL     1      47.037   5.085  13.831  0.00  0.00    +0.000 A 
ATOM      2  C   UNL     1      47.665   6.299  13.519  0.00  0.00    +0.000 A 
ATOM      3  C   UNL     1      47.373   6.940  12.323  0.00  0.00    +0.000 A 
ATOM      4  F   UNL     1      47.961   8.109  12.037  0.00  0.00    +0.000 F 
ATOM      5  C   UNL     1      46.391   6.447  11.476  0.00  0.00    +0.000 A 
ATOM      6  C   UNL     1      45.661   5.297  11.833  0.00  0.00    +0.000 A 
ATOM      7  C   UNL     1      46.082   4.561  12.942  0.00  0.00    +0.000 A 
ENDROOT
BRANCH   6   8
ATOM      8  C   UNL     1      44.302   5.089  11.169  0.00  0.00    +0.000 C 
ATOM      9  C   UNL     1      43.367   4.443  12.221  0.00  0.00    +0.000 C 
ATOM     10  C   UNL     1      43.558   2.930  12.327  0.00  0.00    +0.000 C 
ATOM     11  N   UNL     1      43.324   2.274  11.042  0.00  0.00    +0.000 NA
ATOM     12  C   UNL     1      44.255   2.761  10.027  0.00  0.00    +0.000 C 
ATOM     13  C   UNL     1      44.217   4.284   9.856  0.00  0.00    +0.000 C 
ATOM     14  H   UNL     1      42.368   2.464  10.742  0.00  0.00    +0.000 HD
ENDBRANCH   6   8
BRANCH   1  15
ATOM     15  C   UNL     1      47.220   4.464  15.199  0.00  0.00    +0.000 C 
BRANCH  15  16
ATOM     16  O   UNL     1      48.348   5.034  15.859  0.00  0.00    +0.000 OA
BRANCH  16  20
ATOM     17  C   UNL     1      47.812   7.151  19.411  0.00  0.00    +0.000 A 
ATOM     18  C   UNL     1      47.248   5.875  19.308  0.00  0.00    +0.000 A 
ATOM     19  C   UNL     1      47.401   5.129  18.133  0.00  0.00    +0.000 A 
ATOM     20  C   UNL     1      48.121   5.652  17.057  0.00  0.00    +0.000 A 
ATOM     21  C   UNL     1      48.677   6.932  17.166  0.00  0.00    +0.000 A 
ATOM     22  C   UNL     1      48.529   7.679  18.336  0.00  0.00    +0.000 A 
BRANCH  17  24
ATOM     23  N   UNL     1      47.536   8.526  21.591  0.00  0.00    +0.000 NA
ATOM     24  C   UNL     1      47.660   7.908  20.622  0.00  0.00    +0.000 C 
ENDBRANCH  17  24
ENDBRANCH  16  20
ENDBRANCH  15  16
ENDBRANCH   1  15
TORSDOF 5
ENDMDL
MODEL 8
REMARK VINA RESULT:    -5.859      4.582      6.597
REMARK INTER + INTRA:          -8.304
REMARK INTER:                  -7.365
REMARK INTRA:                  -0.939
REMARK UNBOUND:                -0.733
REMARK  Name = 
REMARK  5 active torsions:
REMARK  status: ('A' for Active; 'I' for Inactive)
REMARK    1  A    between atoms: C_2  and  C_3
REMARK    2  A    between atoms: C_6  and  O_7
REMARK    3  A    between atoms: O_7  and  C_8
REMARK    4  A    between atoms: C_8  and  C_9
REMARK    5  A    between atoms: C_14  and  C_15
REMARK                            x       y       z     vdW  Elec       q    Type
REMARK                         _______ _______ _______ _____ _____    ______ ____
ROOT
ATOM      1  C   UNL     1      48.923   7.468  15.393  0.00  0.00    +0.000 A 
ATOM      2  C   UNL     1      48.485   8.673  15.960  0.00  0.00    +0.000 A 
ATOM      3  C   UNL     1      48.307   8.766  17.333  0.00  0.00    +0.000 A 
ATOM      4  F   UNL     1      47.905   9.924  17.873  0.00  0.00    +0.000 F 
ATOM      5  C   UNL     1      48.655   7.712  18.166  0.00  0.00    +0.000 A 
ATOM      6  C   UNL     1      49.215   6.539  17.626  0.00  0.00    +0.000 A 
ATOM      7  C   UNL     1      49.222   6.384  16.238  0.00  0.00    +0.000 A 
ENDROOT
BRANCH   6   8
ATOM      8  C   UNL     1      50.031   5.650  18.561  0.00  0.00    +0.000 C 
ATOM      9  C   UNL     1      49.883   4.192  18.061  0.00  0.00    +0.000 C 
ATOM     10  C   UNL     1      48.590   3.533  18.546  0.00  0.00    +0.000 C 
ATOM     11  N   UNL     1      48.513   3.526  20.005  0.00  0.00    +0.000 NA
ATOM     12  C   UNL     1      48.535   4.887  20.538  0.00  0.00    +0.000 C 
ATOM     13  C   UNL     1      49.755   5.694  20.078  0.00  0.00    +0.000 C 
ATOM     14  H   UNL     1      49.307   3.006  20.377  0.00  0.00    +0.000 HD
ENDBRANCH   6   8
BRANCH   1  15
ATOM     15  C   UNL     1      49.279   7.403  13.924  0.00  0.00    +0.000 C 
BRANCH  15  16
ATOM     16  O   UNL     1      48.831   6.174  13.356  0.00  0.00    +0.000 OA
BRANCH  16  20
ATOM     17  C   UNL     1      44.808   5.767  12.341  0.00  0.00    +0.000 A 
ATOM     18  C   UNL     1      45.572   6.718  11.656  0.00  0.00    +0.000 A 
ATOM     19  C   UNL     1      46.926   6.890  11.965  0.00  0.00    +0.000 A 
ATOM     20  C   UNL     1      47.525   6.111  12.958  0.00  0.00    +0.000 A 
ATOM     21  C   UNL     1      46.752   5.166  13.642  0.00  0.00    +0.000 A 
ATOM     22  C   UNL     1      45.401   4.989  13.336  0.00  0.00    +0.000 A 
BRANCH  17  24
ATOM     23  N   UNL     1      42.307   5.442  11.739  0.00  0.00    +0.000 NA
ATOM     24  C   UNL     1      43.421   5.588  12.013  0.00  0.00    +0.000 C 
ENDBRANCH  17  24
ENDBRANCH  16  20
ENDBRANCH  15  16
ENDBRANCH   1  15
TORSDOF 5
ENDMDL
MODEL 9
REMARK VINA RESULT:    -5.651      3.972      6.748
REMARK INTER + INTRA:          -8.035
REMARK INTER:                  -7.487
REMARK INTRA:                  -0.548
REMARK UNBOUND:                -0.733
REMARK  Name = 
REMARK  5 active torsions:
REMARK  status: ('A' for Active; 'I' for Inactive)
REMARK    1  A    between atoms: C_2  and  C_3
REMARK    2  A    between atoms: C_6  and  O_7
REMARK    3  A    between atoms: O_7  and  C_8
REMARK    4  A    between atoms: C_8  and  C_9
REMARK    5  A    between atoms: C_14  and  C_15
REMARK                            x       y       z     vdW  Elec       q    Type
REMARK                         _______ _______ _______ _____ _____    ______ ____
ROOT
ATOM      1  C   UNL     1      46.527   4.703  13.301  0.00  0.00    +0.000 A 
ATOM      2  C   UNL     1      45.463   4.585  12.395  0.00  0.00    +0.000 A 
ATOM      3  C   UNL     1      45.194   5.618  11.508  0.00  0.00    +0.000 A 
ATOM      4  F   UNL     1      44.188   5.493  10.632  0.00  0.00    +0.000 F 
ATOM      5  C   UNL     1      46.027   6.725  11.434  0.00  0.00    +0.000 A 
ATOM      6  C   UNL     1      47.173   6.803  12.249  0.00  0.00    +0.000 A 
ATOM      7  C   UNL     1      47.335   5.853  13.259  0.00  0.00    +0.000 A 
ENDROOT
BRANCH   6   8
ATOM      8  C   UNL     1      48.296   7.733  11.800  0.00  0.00    +0.000 C 
ATOM      9  C   UNL     1      49.591   7.276  12.516  0.00  0.00    +0.000 C 
ATOM     10  C   UNL     1      49.697   7.819  13.941  0.00  0.00    +0.000 C 
ATOM     11  N   UNL     1      49.657   9.280  13.957  0.00  0.00    +0.000 NA
ATOM     12  C   UNL     1      48.405   9.777  13.393  0.00  0.00    +0.000 C 
ATOM     13  C   UNL     1      48.133   9.256  11.976  0.00  0.00    +0.000 C 
ATOM     14  H   UNL     1      50.439   9.639  13.409  0.00  0.00    +0.000 HD
ENDBRANCH   6   8
BRANCH   1  15
ATOM     15  C   UNL     1      46.932   3.523  14.156  0.00  0.00    +0.000 C 
BRANCH  15  16
ATOM     16  O   UNL     1      46.773   3.830  15.540  0.00  0.00    +0.000 OA
BRANCH  16  20
ATOM     17  C   UNL     1      50.269   3.981  17.806  0.00  0.00    +0.000 A 
ATOM     18  C   UNL     1      49.660   5.187  17.446  0.00  0.00    +0.000 A 
ATOM     19  C   UNL     1      48.485   5.185  16.683  0.00  0.00    +0.000 A 
ATOM     20  C   UNL     1      47.912   3.977  16.280  0.00  0.00    +0.000 A 
ATOM     21  C   UNL     1      48.531   2.774  16.640  0.00  0.00    +0.000 A 
ATOM     22  C   UNL     1      49.701   2.772  17.402  0.00  0.00    +0.000 A 
BRANCH  17  24
ATOM     23  N   UNL     1      52.436   4.004  19.228  0.00  0.00    +0.000 NA
ATOM     24  C   UNL     1      51.468   3.989  18.596  0.00  0.00    +0.000 C 
ENDBRANCH  17  24
ENDBRANCH  16  20
ENDBRANCH  15  16
ENDBRANCH   1  15
TORSDOF 5
ENDMDL
