MODEL 1
REMARK VINA RESULT:    -7.957      0.000      0.000
REMARK INTER + INTRA:         -11.839
REMARK INTER:                 -10.981
REMARK INTRA:                  -0.858
REMARK UNBOUND:                -0.858
REMARK  Name = 
REMARK  8 active torsions:
REMARK  status: ('A' for Active; 'I' for Inactive)
REMARK    1  A    between atoms: C_1  and  C_2
REMARK    2  A    between atoms: C_2  and  C_3
REMARK    3  A    between atoms: C_2  and  C_15
REMARK    4  A    between atoms: C_3  and  O_4
REMARK    5  A    between atoms: O_4  and  C_5
REMARK    6  A    between atoms: C_8  and  C_9
REMARK    7  A    between atoms: C_19  and  C_20
REMARK    8  A    between atoms: C_20  and  N_21
REMARK                            x       y       z     vdW  Elec       q    Type
REMARK                         _______ _______ _______ _____ _____    ______ ____
ROOT
ATOM      1  C   UNL     1      43.626   5.031  10.297  0.00  0.00    +0.000 C 
ENDROOT
BRANCH   1   3
ATOM      2  C   UNL     1      42.860   4.861  12.708  0.00  0.00    +0.000 C 
ATOM      3  C   UNL     1      43.699   5.659  11.702  0.00  0.00    +0.000 C 
BRANCH   3   4
ATOM      4  C   UNL     1      45.168   5.805  12.076  0.00  0.00    +0.000 A 
ATOM      5  C   UNL     1      46.033   6.699  11.431  0.00  0.00    +0.000 A 
ATOM      6  C   UNL     1      47.336   6.892  11.896  0.00  0.00    +0.000 A 
ATOM      7  C   UNL     1      47.790   6.210  13.025  0.00  0.00    +0.000 A 
ATOM      8  C   UNL     1      46.948   5.315  13.694  0.00  0.00    +0.000 A 
ATOM      9  C   UNL     1      45.651   5.105  13.197  0.00  0.00    +0.000 A 
BRANCH   8  10
ATOM     10  C   UNL     1      47.411   4.596  14.936  0.00  0.00    +0.000 C 
BRANCH  10  11
ATOM     11  N   UNL     1      47.457   3.152  14.726  0.00  0.00    +0.000 NA
ATOM     12  H   UNL     1      48.289   2.929  14.181  0.00  0.00    +0.000 HD
ATOM     13  H   UNL     1      46.659   2.870  14.161  0.00  0.00    +0.000 HD
ENDBRANCH  10  11
ENDBRANCH   8  10
ENDBRANCH   3   4
ENDBRANCH   1   3
BRANCH   1  14
ATOM     14  O   UNL     1      44.014   3.652  10.322  0.00  0.00    +0.000 OA
BRANCH  14  15
ATOM     15  C   UNL     1      44.850   3.253   9.316  0.00  0.00    +0.000 A 
ATOM     16  C   UNL     1      45.292   4.239   8.442  0.00  0.00    +0.000 A 
ATOM     17  N   UNL     1      46.115   4.015   7.389  0.00  0.00    +0.000 NA
ATOM     18  C   UNL     1      46.529   2.723   7.188  0.00  0.00    +0.000 A 
ATOM     19  C   UNL     1      46.144   1.668   8.011  0.00  0.00    +0.000 A 
ATOM     20 CL   UNL     1      46.618   0.024   7.816  0.00  0.00    +0.000 Cl
ATOM     21  C   UNL     1      45.294   1.952   9.087  0.00  0.00    +0.000 A 
BRANCH  18  22
ATOM     22  C   UNL     1      47.437   2.546   6.000  0.00  0.00    +0.000 C 
ATOM     23  N   UNL     1      48.777   2.559   6.289  0.00  0.00    +0.000 N 
ATOM     24  O   UNL     1      47.063   2.398   4.844  0.00  0.00    +0.000 OA
ATOM     25  H   UNL     1      49.086   2.677   7.247  0.00  0.00    +0.000 HD
ATOM     26  H   UNL     1      49.445   2.441   5.540  0.00  0.00    +0.000 HD
ENDBRANCH  18  22
ENDBRANCH  14  15
ENDBRANCH   1  14
TORSDOF 7
ENDMDL
MODEL 2
REMARK VINA RESULT:    -6.949      3.246      6.603
REMARK INTER + INTRA:         -10.448
REMARK INTER:                  -9.628
REMARK INTRA:                  -0.819
REMARK UNBOUND:                -0.858
REMARK  Name = 
REMARK  8 active torsions:
REMARK  status: ('A' for Active; 'I' for Inactive)
REMARK    1  A    between atoms: C_1  and  C_2
REMARK    2  A    between atoms: C_2  and  C_3
REMARK    3  A    between atoms: C_2  and  C_15
REMARK    4  A    between atoms: C_3  and  O_4
REMARK    5  A    between atoms: O_4  and  C_5
REMARK    6  A    between atoms: C_8  and  C_9
REMARK    7  A    between atoms: C_19  and  C_20
REMARK    8  A    between atoms: C_20  and  N_21
REMARK                            x       y       z     vdW  Elec       q    Type
REMARK                         _______ _______ _______ _____ _____    ______ ____
ROOT
ATOM      1  C   UNL     1      44.924   3.032  12.220  0.00  0.00    +0.000 C 
ENDROOT
BRANCH   1   3
ATOM      2  C   UNL     1      42.937   4.319  11.318  0.00  0.00    +0.000 C 
ATOM      3  C   UNL     1      43.931   3.182  11.053  0.00  0.00    +0.000 C 
BRANCH   3   4
ATOM      4  C   UNL     1      44.734   3.328   9.767  0.00  0.00    +0.000 A 
ATOM      5  C   UNL     1      45.066   4.573   9.214  0.00  0.00    +0.000 A 
ATOM      6  C   UNL     1      45.914   4.657   8.108  0.00  0.00    +0.000 A 
ATOM      7  C   UNL     1      46.461   3.502   7.548  0.00  0.00    +0.000 A 
ATOM      8  C   UNL     1      46.153   2.247   8.081  0.00  0.00    +0.000 A 
ATOM      9  C   UNL     1      45.272   2.173   9.174  0.00  0.00    +0.000 A 
BRANCH   8  10
ATOM     10  C   UNL     1      46.762   0.991   7.511  0.00  0.00    +0.000 C 
BRANCH  10  11
ATOM     11  N   UNL     1      48.056   1.264   6.892  0.00  0.00    +0.000 NA
ATOM     12  H   UNL     1      47.896   1.685   5.978  0.00  0.00    +0.000 HD
ATOM     13  H   UNL     1      48.538   0.383   6.723  0.00  0.00    +0.000 HD
ENDBRANCH  10  11
ENDBRANCH   8  10
ENDBRANCH   3   4
ENDBRANCH   1   3
BRANCH   1  14
ATOM     14  O   UNL     1      44.726   4.051  13.208  0.00  0.00    +0.000 OA
BRANCH  14  15
ATOM     15  C   UNL     1      45.728   4.976  13.314  0.00  0.00    +0.000 A 
ATOM     16  C   UNL     1      46.845   4.606  14.054  0.00  0.00    +0.000 A 
ATOM     17  N   UNL     1      47.920   5.403  14.266  0.00  0.00    +0.000 NA
ATOM     18  C   UNL     1      47.886   6.654  13.704  0.00  0.00    +0.000 A 
ATOM     19  C   UNL     1      46.814   7.114  12.944  0.00  0.00    +0.000 A 
ATOM     20 CL   UNL     1      46.701   8.672  12.216  0.00  0.00    +0.000 Cl
ATOM     21  C   UNL     1      45.728   6.252  12.753  0.00  0.00    +0.000 A 
BRANCH  18  22
ATOM     22  C   UNL     1      49.110   7.487  13.983  0.00  0.00    +0.000 C 
ATOM     23  N   UNL     1      50.130   7.334  13.080  0.00  0.00    +0.000 N 
ATOM     24  O   UNL     1      49.239   8.256  14.925  0.00  0.00    +0.000 OA
ATOM     25  H   UNL     1      50.022   6.700  12.296  0.00  0.00    +0.000 HD
ATOM     26  H   UNL     1      50.981   7.866  13.202  0.00  0.00    +0.000 HD
ENDBRANCH  18  22
ENDBRANCH  14  15
ENDBRANCH   1  14
TORSDOF 7
ENDMDL
MODEL 3
REMARK VINA RESULT:    -6.787      1.634      2.150
REMARK INTER + INTRA:         -10.223
REMARK INTER:                  -9.596
REMARK INTRA:                  -0.627
REMARK UNBOUND:                -0.858
REMARK  Name = 
REMARK  8 active torsions:
REMARK  status: ('A' for Active; 'I' for Inactive)
REMARK    1  A    between atoms: C_1  and  C_2
REMARK    2  A    between atoms: C_2  and  C_3
REMARK    3  A    between atoms: C_2  and  C_15
REMARK    4  A    between atoms: C_3  and  O_4
REMARK    5  A    between atoms: O_4  and  C_5
REMARK    6  A    between atoms: C_8  and  C_9
REMARK    7  A    between atoms: C_19  and  C_20
REMARK    8  A    between atoms: C_20  and  N_21
REMARK                            x       y       z     vdW  Elec       q    Type
REMARK                         _______ _______ _______ _____ _____    ______ ____
ROOT
ATOM      1  C   UNL     1      43.922   3.573  11.438  0.00  0.00    +0.000 C 
ENDROOT
BRANCH   1   3
ATOM      2  C   UNL     1      42.630   5.545  12.371  0.00  0.00    +0.000 C 
ATOM      3  C   UNL     1      43.916   5.097  11.665  0.00  0.00    +0.000 C 
BRANCH   3   4
ATOM      4  C   UNL     1      45.202   5.470  12.393  0.00  0.00    +0.000 A 
ATOM      5  C   UNL     1      45.683   4.758  13.500  0.00  0.00    +0.000 A 
ATOM      6  C   UNL     1      46.931   5.057  14.050  0.00  0.00    +0.000 A 
ATOM      7  C   UNL     1      47.728   6.057  13.492  0.00  0.00    +0.000 A 
ATOM      8  C   UNL     1      47.277   6.780  12.383  0.00  0.00    +0.000 A 
ATOM      9  C   UNL     1      46.006   6.493  11.859  0.00  0.00    +0.000 A 
BRANCH   8  10
ATOM     10  C   UNL     1      48.139   7.840  11.745  0.00  0.00    +0.000 C 
BRANCH  10  11
ATOM     11  N   UNL     1      48.170   9.055  12.554  0.00  0.00    +0.000 NA
ATOM     12  H   UNL     1      48.976   9.613  12.272  0.00  0.00    +0.000 HD
ATOM     13  H   UNL     1      48.320   8.804  13.529  0.00  0.00    +0.000 HD
ENDBRANCH  10  11
ENDBRANCH   8  10
ENDBRANCH   3   4
ENDBRANCH   1   3
BRANCH   1  14
ATOM     14  O   UNL     1      43.520   3.244  10.103  0.00  0.00    +0.000 OA
BRANCH  14  15
ATOM     15  C   UNL     1      44.534   2.954   9.232  0.00  0.00    +0.000 A 
ATOM     16  C   UNL     1      45.073   4.021   8.524  0.00  0.00    +0.000 A 
ATOM     17  N   UNL     1      46.074   3.909   7.617  0.00  0.00    +0.000 NA
ATOM     18  C   UNL     1      46.576   2.651   7.399  0.00  0.00    +0.000 A 
ATOM     19  C   UNL     1      46.105   1.522   8.063  0.00  0.00    +0.000 A 
ATOM     20 CL   UNL     1      46.683  -0.085   7.835  0.00  0.00    +0.000 Cl
ATOM     21  C   UNL     1      45.071   1.691   8.991  0.00  0.00    +0.000 A 
BRANCH  18  22
ATOM     22  C   UNL     1      47.682   2.600   6.377  0.00  0.00    +0.000 C 
ATOM     23  N   UNL     1      47.311   2.949   5.105  0.00  0.00    +0.000 N 
ATOM     24  O   UNL     1      48.840   2.279   6.609  0.00  0.00    +0.000 OA
ATOM     25  H   UNL     1      46.353   3.220   4.914  0.00  0.00    +0.000 HD
ATOM     26  H   UNL     1      48.004   2.943   4.369  0.00  0.00    +0.000 HD
ENDBRANCH  18  22
ENDBRANCH  14  15
ENDBRANCH   1  14
TORSDOF 7
ENDMDL
MODEL 4
REMARK VINA RESULT:    -6.355      5.013      8.128
REMARK INTER + INTRA:          -9.628
REMARK INTER:                  -9.036
REMARK INTRA:                  -0.591
REMARK UNBOUND:                -0.858
REMARK  Name = 
REMARK  8 active torsions:
REMARK  status: ('A' for Active; 'I' for Inactive)
REMARK    1  A    between atoms: C_1  and  C_2
REMARK    2  A    between atoms: C_2  and  C_3
REMARK    3  A    between atoms: C_2  and  C_15
REMARK    4  A    between atoms: C_3  and  O_4
REMARK    5  A    between atoms: O_4  and  C_5
REMARK    6  A    between atoms: C_8  and  C_9
REMARK    7  A    between atoms: C_19  and  C_20
REMARK    8  A    between atoms: C_20  and  N_21
REMARK                            x       y       z     vdW  Elec       q    Type
REMARK                         _______ _______ _______ _____ _____    ______ ____
ROOT
ATOM      1  C   UNL     1      46.968   4.212  14.752  0.00  0.00    +0.000 C 
ENDROOT
BRANCH   1   3
ATOM      2  C   UNL     1      48.113   6.360  14.045  0.00  0.00    +0.000 C 
ATOM      3  C   UNL     1      46.777   5.614  14.142  0.00  0.00    +0.000 C 
BRANCH   3   4
ATOM      4  C   UNL     1      46.041   5.455  12.818  0.00  0.00    +0.000 A 
ATOM      5  C   UNL     1      46.429   6.121  11.647  0.00  0.00    +0.000 A 
ATOM      6  C   UNL     1      45.805   5.842  10.430  0.00  0.00    +0.000 A 
ATOM      7  C   UNL     1      44.798   4.880  10.357  0.00  0.00    +0.000 A 
ATOM      8  C   UNL     1      44.394   4.194  11.506  0.00  0.00    +0.000 A 
ATOM      9  C   UNL     1      45.006   4.507  12.731  0.00  0.00    +0.000 A 
BRANCH   8  10
ATOM     10  C   UNL     1      43.332   3.126  11.439  0.00  0.00    +0.000 C 
BRANCH  10  11
ATOM     11  N   UNL     1      43.553   2.095  12.449  0.00  0.00    +0.000 NA
ATOM     12  H   UNL     1      42.964   2.298  13.256  0.00  0.00    +0.000 HD
ATOM     13  H   UNL     1      44.516   2.147  12.775  0.00  0.00    +0.000 HD
ENDBRANCH  10  11
ENDBRANCH   8  10
ENDBRANCH   3   4
ENDBRANCH   1   3
BRANCH   1  14
ATOM     14  O   UNL     1      47.226   4.287  16.159  0.00  0.00    +0.000 OA
BRANCH  14  15
ATOM     15  C   UNL     1      48.397   3.718  16.579  0.00  0.00    +0.000 A 
ATOM     16  C   UNL     1      48.658   2.427  16.135  0.00  0.00    +0.000 A 
ATOM     17  N   UNL     1      49.765   1.716  16.462  0.00  0.00    +0.000 NA
ATOM     18  C   UNL     1      50.676   2.327  17.285  0.00  0.00    +0.000 A 
ATOM     19  C   UNL     1      50.505   3.619  17.777  0.00  0.00    +0.000 A 
ATOM     20 CL   UNL     1      51.601   4.445  18.818  0.00  0.00    +0.000 Cl
ATOM     21  C   UNL     1      49.346   4.312  17.409  0.00  0.00    +0.000 A 
BRANCH  18  22
ATOM     22  C   UNL     1      51.877   1.479  17.610  0.00  0.00    +0.000 C 
ATOM     23  N   UNL     1      51.589   0.231  18.097  0.00  0.00    +0.000 N 
ATOM     24  O   UNL     1      53.042   1.826  17.470  0.00  0.00    +0.000 OA
ATOM     25  H   UNL     1      50.624  -0.059  18.209  0.00  0.00    +0.000 HD
ATOM     26  H   UNL     1      52.347  -0.395  18.331  0.00  0.00    +0.000 HD
ENDBRANCH  18  22
ENDBRANCH  14  15
ENDBRANCH   1  14
TORSDOF 7
ENDMDL
MODEL 5
REMARK VINA RESULT:    -6.137      4.108      6.573
REMARK INTER + INTRA:          -9.327
REMARK INTER:                  -8.718
REMARK INTRA:                  -0.609
REMARK UNBOUND:                -0.858
REMARK  Name = 
REMARK  8 active torsions:
REMARK  status: ('A' for Active; 'I' for Inactive)
REMARK    1  A    between atoms: C_1  and  C_2
REMARK    2  A    between atoms: C_2  and  C_3
REMARK    3  A    between atoms: C_2  and  C_15
REMARK    4  A    between atoms: C_3  and  O_4
REMARK    5  A    between atoms: O_4  and  C_5
REMARK    6  A    between atoms: C_8  and  C_9
REMARK    7  A    between atoms: C_19  and  C_20
REMARK    8  A    between atoms: C_20  and  N_21
REMARK                            x       y       z     vdW  Elec       q    Type
REMARK                         _______ _______ _______ _____ _____    ______ ____
ROOT
ATOM      1  C   UNL     1      47.637   4.701  16.036  0.00  0.00    +0.000 C 
ENDROOT
BRANCH   1   3
ATOM      2  C   UNL     1      47.326   2.618  17.447  0.00  0.00    +0.000 C 
ATOM      3  C   UNL     1      48.024   3.979  17.341  0.00  0.00    +0.000 C 
BRANCH   3   4
ATOM      4  C   UNL     1      49.544   3.920  17.412  0.00  0.00    +0.000 A 
ATOM      5  C   UNL     1      50.337   5.039  17.704  0.00  0.00    +0.000 A 
ATOM      6  C   UNL     1      51.715   4.907  17.888  0.00  0.00    +0.000 A 
ATOM      7  C   UNL     1      52.321   3.653  17.804  0.00  0.00    +0.000 A 
ATOM      8  C   UNL     1      51.556   2.518  17.521  0.00  0.00    +0.000 A 
ATOM      9  C   UNL     1      50.176   2.668  17.305  0.00  0.00    +0.000 A 
BRANCH   8  10
ATOM     10  C   UNL     1      52.189   1.150  17.462  0.00  0.00    +0.000 C 
BRANCH  10  11
ATOM     11  N   UNL     1      51.413   0.174  18.221  0.00  0.00    +0.000 NA
ATOM     12  H   UNL     1      50.424   0.314  18.017  0.00  0.00    +0.000 HD
ATOM     13  H   UNL     1      51.530   0.354  19.216  0.00  0.00    +0.000 HD
ENDBRANCH  10  11
ENDBRANCH   8  10
ENDBRANCH   3   4
ENDBRANCH   1   3
BRANCH   1  14
ATOM     14  O   UNL     1      47.442   3.771  14.964  0.00  0.00    +0.000 OA
BRANCH  14  15
ATOM     15  C   UNL     1      46.633   4.197  13.948  0.00  0.00    +0.000 A 
ATOM     16  C   UNL     1      46.097   3.216  13.122  0.00  0.00    +0.000 A 
ATOM     17  N   UNL     1      45.285   3.465  12.066  0.00  0.00    +0.000 NA
ATOM     18  C   UNL     1      44.982   4.779  11.812  0.00  0.00    +0.000 A 
ATOM     19  C   UNL     1      45.466   5.831  12.585  0.00  0.00    +0.000 A 
ATOM     20 CL   UNL     1      45.133   7.500  12.321  0.00  0.00    +0.000 Cl
ATOM     21  C   UNL     1      46.300   5.521  13.665  0.00  0.00    +0.000 A 
BRANCH  18  22
ATOM     22  C   UNL     1      44.079   4.983  10.623  0.00  0.00    +0.000 C 
ATOM     23  N   UNL     1      44.639   4.669   9.412  0.00  0.00    +0.000 N 
ATOM     24  O   UNL     1      42.928   5.393  10.676  0.00  0.00    +0.000 OA
ATOM     25  H   UNL     1      45.592   4.324   9.368  0.00  0.00    +0.000 HD
ATOM     26  H   UNL     1      44.088   4.776   8.571  0.00  0.00    +0.000 HD
ENDBRANCH  18  22
ENDBRANCH  14  15
ENDBRANCH   1  14
TORSDOF 7
ENDMDL
MODEL 6
REMARK VINA RESULT:    -6.056      4.543      6.852
REMARK INTER + INTRA:          -9.215
REMARK INTER:                  -8.350
REMARK INTRA:                  -0.865
REMARK UNBOUND:                -0.858
REMARK  Name = 
REMARK  8 active torsions:
REMARK  status: ('A' for Active; 'I' for Inactive)
REMARK    1  A    between atoms: C_1  and  C_2
REMARK    2  A    between atoms: C_2  and  C_3
REMARK    3  A    between atoms: C_2  and  C_15
REMARK    4  A    between atoms: C_3  and  O_4
REMARK    5  A    between atoms: O_4  and  C_5
REMARK    6  A    between atoms: C_8  and  C_9
REMARK    7  A    between atoms: C_19  and  C_20
REMARK    8  A    between atoms: C_20  and  N_21
REMARK                            x       y       z     vdW  Elec       q    Type
REMARK                         _______ _______ _______ _____ _____    ______ ____
ROOT
ATOM      1  C   UNL     1      48.858   7.488  15.263  0.00  0.00    +0.000 C 
ENDROOT
BRANCH   1   3
ATOM      2  C   UNL     1      50.195   8.485  17.172  0.00  0.00    +0.000 C 
ATOM      3  C   UNL     1      49.913   7.219  16.353  0.00  0.00    +0.000 C 
BRANCH   3   4
ATOM      4  C   UNL     1      49.446   6.024  17.174  0.00  0.00    +0.000 A 
ATOM      5  C   UNL     1      48.307   6.059  17.990  0.00  0.00    +0.000 A 
ATOM      6  C   UNL     1      47.846   4.900  18.619  0.00  0.00    +0.000 A 
ATOM      7  C   UNL     1      48.503   3.685  18.429  0.00  0.00    +0.000 A 
ATOM      8  C   UNL     1      49.639   3.617  17.616  0.00  0.00    +0.000 A 
ATOM      9  C   UNL     1      50.112   4.796  17.015  0.00  0.00    +0.000 A 
BRANCH   8  10
ATOM     10  C   UNL     1      50.341   2.305  17.370  0.00  0.00    +0.000 C 
BRANCH  10  11
ATOM     11  N   UNL     1      49.840   1.654  16.164  0.00  0.00    +0.000 NA
ATOM     12  H   UNL     1      49.267   0.856  16.439  0.00  0.00    +0.000 HD
ATOM     13  H   UNL     1      50.625   1.277  15.637  0.00  0.00    +0.000 HD
ENDBRANCH  10  11
ENDBRANCH   8  10
ENDBRANCH   3   4
ENDBRANCH   1   3
BRANCH   1  14
ATOM     14  O   UNL     1      48.911   6.496  14.231  0.00  0.00    +0.000 OA
BRANCH  14  15
ATOM     15  C   UNL     1      47.704   5.999  13.823  0.00  0.00    +0.000 A 
ATOM     16  C   UNL     1      47.191   4.930  14.548  0.00  0.00    +0.000 A 
ATOM     17  N   UNL     1      46.015   4.315  14.275  0.00  0.00    +0.000 NA
ATOM     18  C   UNL     1      45.298   4.793  13.208  0.00  0.00    +0.000 A 
ATOM     19  C   UNL     1      45.726   5.861  12.424  0.00  0.00    +0.000 A 
ATOM     20 CL   UNL     1      44.882   6.509  11.069  0.00  0.00    +0.000 Cl
ATOM     21  C   UNL     1      46.947   6.464  12.749  0.00  0.00    +0.000 A 
BRANCH  18  22
ATOM     22  C   UNL     1      44.005   4.061  12.959  0.00  0.00    +0.000 C 
ATOM     23  N   UNL     1      44.146   2.765  12.535  0.00  0.00    +0.000 N 
ATOM     24  O   UNL     1      42.887   4.536  13.107  0.00  0.00    +0.000 OA
ATOM     25  H   UNL     1      45.072   2.370  12.417  0.00  0.00    +0.000 HD
ATOM     26  H   UNL     1      43.320   2.212  12.354  0.00  0.00    +0.000 HD
ENDBRANCH  18  22
ENDBRANCH  14  15
ENDBRANCH   1  14
TORSDOF 7
ENDMDL
MODEL 7
REMARK VINA RESULT:    -5.957      3.757      7.665
REMARK INTER + INTRA:          -9.079
REMARK INTER:                  -8.483
REMARK INTRA:                  -0.596
REMARK UNBOUND:                -0.858
REMARK  Name = 
REMARK  8 active torsions:
REMARK  status: ('A' for Active; 'I' for Inactive)
REMARK    1  A    between atoms: C_1  and  C_2
REMARK    2  A    between atoms: C_2  and  C_3
REMARK    3  A    between atoms: C_2  and  C_15
REMARK    4  A    between atoms: C_3  and  O_4
REMARK    5  A    between atoms: O_4  and  C_5
REMARK    6  A    between atoms: C_8  and  C_9
REMARK    7  A    between atoms: C_19  and  C_20
REMARK    8  A    between atoms: C_20  and  N_21
REMARK                            x       y       z     vdW  Elec       q    Type
REMARK                         _______ _______ _______ _____ _____    ______ ____
ROOT
ATOM      1  C   UNL     1      46.663   6.915  12.271  0.00  0.00    +0.000 C 
ENDROOT
BRANCH   1   3
ATOM      2  C   UNL     1      44.538   7.985  11.397  0.00  0.00    +0.000 C 
ATOM      3  C   UNL     1      45.131   6.794  12.159  0.00  0.00    +0.000 C 
BRANCH   3   4
ATOM      4  C   UNL     1      44.809   5.432  11.559  0.00  0.00    +0.000 A 
ATOM      5  C   UNL     1      44.018   4.479  12.215  0.00  0.00    +0.000 A 
ATOM      6  C   UNL     1      43.643   3.299  11.569  0.00  0.00    +0.000 A 
ATOM      7  C   UNL     1      44.033   3.060  10.252  0.00  0.00    +0.000 A 
ATOM      8  C   UNL     1      44.817   3.995   9.569  0.00  0.00    +0.000 A 
ATOM      9  C   UNL     1      45.216   5.163  10.240  0.00  0.00    +0.000 A 
BRANCH   8  10
ATOM     10  C   UNL     1      45.219   3.770   8.133  0.00  0.00    +0.000 C 
BRANCH  10  11
ATOM     11  N   UNL     1      46.358   4.605   7.764  0.00  0.00    +0.000 NA
ATOM     12  H   UNL     1      46.767   4.991   8.614  0.00  0.00    +0.000 HD
ATOM     13  H   UNL     1      46.029   5.397   7.217  0.00  0.00    +0.000 HD
ENDBRANCH  10  11
ENDBRANCH   8  10
ENDBRANCH   3   4
ENDBRANCH   1   3
BRANCH   1  14
ATOM     14  O   UNL     1      47.262   5.657  12.604  0.00  0.00    +0.000 OA
BRANCH  14  15
ATOM     15  C   UNL     1      47.496   5.445  13.935  0.00  0.00    +0.000 A 
ATOM     16  C   UNL     1      46.898   4.326  14.503  0.00  0.00    +0.000 A 
ATOM     17  N   UNL     1      47.018   3.974  15.807  0.00  0.00    +0.000 NA
ATOM     18  C   UNL     1      47.786   4.787  16.601  0.00  0.00    +0.000 A 
ATOM     19  C   UNL     1      48.428   5.926  16.123  0.00  0.00    +0.000 A 
ATOM     20 CL   UNL     1      49.400   6.994  17.062  0.00  0.00    +0.000 Cl
ATOM     21  C   UNL     1      48.274   6.245  14.769  0.00  0.00    +0.000 A 
BRANCH  18  22
ATOM     22  C   UNL     1      47.874   4.339  18.037  0.00  0.00    +0.000 C 
ATOM     23  N   UNL     1      47.096   5.051  18.913  0.00  0.00    +0.000 N 
ATOM     24  O   UNL     1      48.567   3.418  18.446  0.00  0.00    +0.000 OA
ATOM     25  H   UNL     1      46.518   5.812  18.573  0.00  0.00    +0.000 HD
ATOM     26  H   UNL     1      47.101   4.802  19.892  0.00  0.00    +0.000 HD
ENDBRANCH  18  22
ENDBRANCH  14  15
ENDBRANCH   1  14
TORSDOF 7
ENDMDL
MODEL 8
REMARK VINA RESULT:    -5.937      3.623      7.645
REMARK INTER + INTRA:          -9.051
REMARK INTER:                  -8.435
REMARK INTRA:                  -0.617
REMARK UNBOUND:                -0.858
REMARK  Name = 
REMARK  8 active torsions:
REMARK  status: ('A' for Active; 'I' for Inactive)
REMARK    1  A    between atoms: C_1  and  C_2
REMARK    2  A    between atoms: C_2  and  C_3
REMARK    3  A    between atoms: C_2  and  C_15
REMARK    4  A    between atoms: C_3  and  O_4
REMARK    5  A    between atoms: O_4  and  C_5
REMARK    6  A    between atoms: C_8  and  C_9
REMARK    7  A    between atoms: C_19  and  C_20
REMARK    8  A    between atoms: C_20  and  N_21
REMARK                            x       y       z     vdW  Elec       q    Type
REMARK                         _______ _______ _______ _____ _____    ______ ____
ROOT
ATOM      1  C   UNL     1      45.128   5.186  12.891  0.00  0.00    +0.000 C 
ENDROOT
BRANCH   1   3
ATOM      2  C   UNL     1      45.141   6.948  11.069  0.00  0.00    +0.000 C 
ATOM      3  C   UNL     1      44.560   5.603  11.521  0.00  0.00    +0.000 C 
BRANCH   3   4
ATOM      4  C   UNL     1      44.789   4.454  10.547  0.00  0.00    +0.000 A 
ATOM      5  C   UNL     1      44.192   3.195  10.701  0.00  0.00    +0.000 A 
ATOM      6  C   UNL     1      44.327   2.217   9.713  0.00  0.00    +0.000 A 
ATOM      7  C   UNL     1      45.043   2.487   8.547  0.00  0.00    +0.000 A 
ATOM      8  C   UNL     1      45.645   3.735   8.362  0.00  0.00    +0.000 A 
ATOM      9  C   UNL     1      45.530   4.699   9.377  0.00  0.00    +0.000 A 
BRANCH   8  10
ATOM     10  C   UNL     1      46.393   4.055   7.093  0.00  0.00    +0.000 C 
BRANCH  10  11
ATOM     11  N   UNL     1      47.594   3.235   6.964  0.00  0.00    +0.000 NA
ATOM     12  H   UNL     1      48.264   3.525   7.676  0.00  0.00    +0.000 HD
ATOM     13  H   UNL     1      48.032   3.422   6.064  0.00  0.00    +0.000 HD
ENDBRANCH  10  11
ENDBRANCH   8  10
ENDBRANCH   3   4
ENDBRANCH   1   3
BRANCH   1  14
ATOM     14  O   UNL     1      46.561   5.196  12.886  0.00  0.00    +0.000 OA
BRANCH  14  15
ATOM     15  C   UNL     1      47.158   5.145  14.115  0.00  0.00    +0.000 A 
ATOM     16  C   UNL     1      48.094   6.134  14.396  0.00  0.00    +0.000 A 
ATOM     17  N   UNL     1      48.783   6.226  15.560  0.00  0.00    +0.000 NA
ATOM     18  C   UNL     1      48.527   5.271  16.510  0.00  0.00    +0.000 A 
ATOM     19  C   UNL     1      47.605   4.244  16.323  0.00  0.00    +0.000 A 
ATOM     20 CL   UNL     1      47.237   3.011  17.468  0.00  0.00    +0.000 Cl
ATOM     21  C   UNL     1      46.917   4.195  15.105  0.00  0.00    +0.000 A 
BRANCH  18  22
ATOM     22  C   UNL     1      49.329   5.432  17.775  0.00  0.00    +0.000 C 
ATOM     23  N   UNL     1      50.645   5.061  17.675  0.00  0.00    +0.000 N 
ATOM     24  O   UNL     1      48.893   5.855  18.837  0.00  0.00    +0.000 OA
ATOM     25  H   UNL     1      51.008   4.715  16.793  0.00  0.00    +0.000 HD
ATOM     26  H   UNL     1      51.245   5.147  18.483  0.00  0.00    +0.000 HD
ENDBRANCH  18  22
ENDBRANCH  14  15
ENDBRANCH   1  14
TORSDOF 7
ENDMDL
MODEL 9
REMARK VINA RESULT:    -5.931      4.173      6.185
REMARK INTER + INTRA:          -9.043
REMARK INTER:                  -8.169
REMARK INTRA:                  -0.873
REMARK UNBOUND:                -0.858
REMARK  Name = 
REMARK  8 active torsions:
REMARK  status: ('A' for Active; 'I' for Inactive)
REMARK    1  A    between atoms: C_1  and  C_2
REMARK    2  A    between atoms: C_2  and  C_3
REMARK    3  A    between atoms: C_2  and  C_15
REMARK    4  A    between atoms: C_3  and  O_4
REMARK    5  A    between atoms: O_4  and  C_5
REMARK    6  A    between atoms: C_8  and  C_9
REMARK    7  A    between atoms: C_19  and  C_20
REMARK    8  A    between atoms: C_20  and  N_21
REMARK                            x       y       z     vdW  Elec       q    Type
REMARK                         _______ _______ _______ _____ _____    ______ ____
ROOT
ATOM      1  C   UNL     1      48.812   7.168  14.247  0.00  0.00    +0.000 C 
ENDROOT
BRANCH   1   3
ATOM      2  C   UNL     1      48.379   9.230  15.656  0.00  0.00    +0.000 C 
ATOM      3  C   UNL     1      49.113   7.886  15.577  0.00  0.00    +0.000 C 
BRANCH   3   4
ATOM      4  C   UNL     1      48.797   6.923  16.714  0.00  0.00    +0.000 A 
ATOM      5  C   UNL     1      48.639   7.339  18.043  0.00  0.00    +0.000 A 
ATOM      6  C   UNL     1      48.221   6.440  19.026  0.00  0.00    +0.000 A 
ATOM      7  C   UNL     1      47.935   5.116  18.696  0.00  0.00    +0.000 A 
ATOM      8  C   UNL     1      48.077   4.672  17.377  0.00  0.00    +0.000 A 
ATOM      9  C   UNL     1      48.530   5.577  16.403  0.00  0.00    +0.000 A 
BRANCH   8  10
ATOM     10  C   UNL     1      47.737   3.253  16.995  0.00  0.00    +0.000 C 
BRANCH  10  11
ATOM     11  N   UNL     1      46.557   2.779  17.712  0.00  0.00    +0.000 NA
ATOM     12  H   UNL     1      45.874   2.448  17.031  0.00  0.00    +0.000 HD
ATOM     13  H   UNL     1      46.124   3.562  18.197  0.00  0.00    +0.000 HD
ENDBRANCH  10  11
ENDBRANCH   8  10
ENDBRANCH   3   4
ENDBRANCH   1   3
BRANCH   1  14
ATOM     14  O   UNL     1      47.918   7.934  13.432  0.00  0.00    +0.000 OA
BRANCH  14  15
ATOM     15  C   UNL     1      46.852   7.250  12.915  0.00  0.00    +0.000 A 
ATOM     16  C   UNL     1      45.860   8.008  12.305  0.00  0.00    +0.000 A 
ATOM     17  N   UNL     1      44.736   7.492  11.750  0.00  0.00    +0.000 NA
ATOM     18  C   UNL     1      44.586   6.130  11.804  0.00  0.00    +0.000 A 
ATOM     19  C   UNL     1      45.527   5.287  12.390  0.00  0.00    +0.000 A 
ATOM     20 CL   UNL     1      45.402   3.572  12.498  0.00  0.00    +0.000 Cl
ATOM     21  C   UNL     1      46.672   5.869  12.947  0.00  0.00    +0.000 A 
BRANCH  18  22
ATOM     22  C   UNL     1      43.315   5.626  11.173  0.00  0.00    +0.000 C 
ATOM     23  N   UNL     1      42.160   6.081  11.755  0.00  0.00    +0.000 N 
ATOM     24  O   UNL     1      43.257   4.868  10.214  0.00  0.00    +0.000 OA
ATOM     25  H   UNL     1      42.208   6.713  12.547  0.00  0.00    +0.000 HD
ATOM     26  H   UNL     1      41.269   5.788  11.380  0.00  0.00    +0.000 HD
ENDBRANCH  18  22
ENDBRANCH  14  15
ENDBRANCH   1  14
TORSDOF 7
ENDMDL
