MODEL 1
REMARK VINA RESULT:    -8.110      0.000      0.000
REMARK INTER + INTRA:         -12.348
REMARK INTER:                 -11.429
REMARK INTRA:                  -0.919
REMARK UNBOUND:                -0.919
REMARK  Name = 
REMARK  7 active torsions:
REMARK  status: ('A' for Active; 'I' for Inactive)
REMARK    1  A    between atoms: C_2  and  C_4
REMARK    2  A    between atoms: C_7  and  O_8
REMARK    3  A    between atoms: O_8  and  C_9
REMARK    4  A    between atoms: C_9  and  C_10
REMARK    5  A    between atoms: C_10  and  C_11
REMARK    6  A    between atoms: C_15  and  O_16
REMARK    7  A    between atoms: O_16  and  C_17
REMARK                            x       y       z     vdW  Elec       q    Type
REMARK                         _______ _______ _______ _____ _____    ______ ____
ROOT
ATOM      1  C   UNL     1      43.823   3.211  11.639  0.00  0.00    +0.000 C 
ENDROOT
BRANCH   1   2
ATOM      2  O   UNL     1      43.587   3.684  10.309  0.00  0.00    +0.000 OA
BRANCH   2   6
ATOM      3  C   UNL     1      46.470   2.417   7.567  0.00  0.00    +0.000 A 
ATOM      4  C   UNL     1      46.138   3.776   7.606  0.00  0.00    +0.000 A 
ATOM      5  C   UNL     1      45.172   4.234   8.508  0.00  0.00    +0.000 A 
ATOM      6  C   UNL     1      44.531   3.345   9.375  0.00  0.00    +0.000 A 
ATOM      7  C   UNL     1      44.848   1.985   9.313  0.00  0.00    +0.000 A 
ATOM      8  C   UNL     1      45.808   1.519   8.409  0.00  0.00    +0.000 A 
BRANCH   3  10
ATOM      9  N   UNL     1      48.601   2.697   6.431  0.00  0.00    +0.000 N 
ATOM     10  C   UNL     1      47.505   1.901   6.636  0.00  0.00    +0.000 C 
ATOM     11  O   UNL     1      47.415   0.803   6.109  0.00  0.00    +0.000 OA
ATOM     12  H   UNL     1      49.351   2.290   5.890  0.00  0.00    +0.000 HD
ATOM     13  H   UNL     1      48.828   3.471   7.040  0.00  0.00    +0.000 HD
ENDBRANCH   3  10
ENDBRANCH   2   6
ENDBRANCH   1   2
BRANCH   1  14
ATOM     14  C   UNL     1      43.826   4.392  12.608  0.00  0.00    +0.000 C 
BRANCH  14  15
ATOM     15  C   UNL     1      45.213   4.972  12.747  0.00  0.00    +0.000 A 
ATOM     16  C   UNL     1      45.706   5.881  11.804  0.00  0.00    +0.000 A 
ATOM     17  C   UNL     1      46.965   6.462  11.978  0.00  0.00    +0.000 A 
ATOM     18  C   UNL     1      47.745   6.143  13.093  0.00  0.00    +0.000 A 
ATOM     19  C   UNL     1      47.266   5.233  14.033  0.00  0.00    +0.000 A 
ATOM     20  C   UNL     1      46.003   4.659  13.862  0.00  0.00    +0.000 A 
BRANCH  19  21
ATOM     21  O   UNL     1      47.923   4.867  15.180  0.00  0.00    +0.000 OA
BRANCH  21  22
ATOM     22  C   UNL     1      47.238   4.048  16.155  0.00  0.00    +0.000 C 
ATOM     23  C   UNL     1      47.132   4.578  17.599  0.00  0.00    +0.000 C 
ATOM     24  N   UNL     1      47.745   3.347  18.118  0.00  0.00    +0.000 NA
ATOM     25  C   UNL     1      48.090   2.912  16.759  0.00  0.00    +0.000 C 
ATOM     26  H   UNL     1      47.098   2.727  18.603  0.00  0.00    +0.000 HD
ENDBRANCH  21  22
ENDBRANCH  19  21
ENDBRANCH  14  15
ENDBRANCH   1  14
TORSDOF 7
ENDMDL
MODEL 2
REMARK VINA RESULT:    -7.543      2.986      4.066
REMARK INTER + INTRA:         -11.549
REMARK INTER:                 -10.584
REMARK INTRA:                  -0.965
REMARK UNBOUND:                -0.919
REMARK  Name = 
REMARK  7 active torsions:
REMARK  status: ('A' for Active; 'I' for Inactive)
REMARK    1  A    between atoms: C_2  and  C_4
REMARK    2  A    between atoms: C_7  and  O_8
REMARK    3  A    between atoms: O_8  and  C_9
REMARK    4  A    between atoms: C_9  and  C_10
REMARK    5  A    between atoms: C_10  and  C_11
REMARK    6  A    between atoms: C_15  and  O_16
REMARK    7  A    between atoms: O_16  and  C_17
REMARK                            x       y       z     vdW  Elec       q    Type
REMARK                         _______ _______ _______ _____ _____    ______ ____
ROOT
ATOM      1  C   UNL     1      43.622   2.781  11.749  0.00  0.00    +0.000 C 
ENDROOT
BRANCH   1   2
ATOM      2  O   UNL     1      43.384   3.441  10.502  0.00  0.00    +0.000 OA
BRANCH   2   6
ATOM      3  C   UNL     1      46.379   2.754   7.674  0.00  0.00    +0.000 A 
ATOM      4  C   UNL     1      45.940   4.067   7.875  0.00  0.00    +0.000 A 
ATOM      5  C   UNL     1      44.934   4.333   8.810  0.00  0.00    +0.000 A 
ATOM      6  C   UNL     1      44.359   3.296   9.549  0.00  0.00    +0.000 A 
ATOM      7  C   UNL     1      44.783   1.983   9.325  0.00  0.00    +0.000 A 
ATOM      8  C   UNL     1      45.784   1.709   8.387  0.00  0.00    +0.000 A 
BRANCH   3  10
ATOM      9  N   UNL     1      47.452   3.139   5.527  0.00  0.00    +0.000 N 
ATOM     10  C   UNL     1      47.459   2.440   6.705  0.00  0.00    +0.000 C 
ATOM     11  O   UNL     1      48.341   1.632   6.956  0.00  0.00    +0.000 OA
ATOM     12  H   UNL     1      48.253   3.004   4.926  0.00  0.00    +0.000 HD
ATOM     13  H   UNL     1      46.908   3.981   5.402  0.00  0.00    +0.000 HD
ENDBRANCH   3  10
ENDBRANCH   2   6
ENDBRANCH   1   2
BRANCH   1  14
ATOM     14  C   UNL     1      43.531   3.794  12.889  0.00  0.00    +0.000 C 
BRANCH  14  15
ATOM     15  C   UNL     1      44.642   4.813  12.795  0.00  0.00    +0.000 A 
ATOM     16  C   UNL     1      45.944   4.491  13.194  0.00  0.00    +0.000 A 
ATOM     17  C   UNL     1      46.977   5.419  13.041  0.00  0.00    +0.000 A 
ATOM     18  C   UNL     1      46.722   6.678  12.489  0.00  0.00    +0.000 A 
ATOM     19  C   UNL     1      45.428   7.010  12.097  0.00  0.00    +0.000 A 
ATOM     20  C   UNL     1      44.397   6.077  12.242  0.00  0.00    +0.000 A 
BRANCH  19  21
ATOM     21  O   UNL     1      45.063   8.198  11.514  0.00  0.00    +0.000 OA
BRANCH  21  22
ATOM     22  C   UNL     1      45.005   9.394  12.326  0.00  0.00    +0.000 C 
ATOM     23  C   UNL     1      44.207  10.596  11.786  0.00  0.00    +0.000 C 
ATOM     24  N   UNL     1      45.381  11.468  11.933  0.00  0.00    +0.000 NA
ATOM     25  C   UNL     1      46.240  10.312  12.213  0.00  0.00    +0.000 C 
ATOM     26  H   UNL     1      45.315  12.136  12.700  0.00  0.00    +0.000 HD
ENDBRANCH  21  22
ENDBRANCH  19  21
ENDBRANCH  14  15
ENDBRANCH   1  14
TORSDOF 7
ENDMDL
MODEL 3
REMARK VINA RESULT:    -7.057      2.556      3.673
REMARK INTER + INTRA:         -10.864
REMARK INTER:                  -9.917
REMARK INTRA:                  -0.947
REMARK UNBOUND:                -0.919
REMARK  Name = 
REMARK  7 active torsions:
REMARK  status: ('A' for Active; 'I' for Inactive)
REMARK    1  A    between atoms: C_2  and  C_4
REMARK    2  A    between atoms: C_7  and  O_8
REMARK    3  A    between atoms: O_8  and  C_9
REMARK    4  A    between atoms: C_9  and  C_10
REMARK    5  A    between atoms: C_10  and  C_11
REMARK    6  A    between atoms: C_15  and  O_16
REMARK    7  A    between atoms: O_16  and  C_17
REMARK                            x       y       z     vdW  Elec       q    Type
REMARK                         _______ _______ _______ _____ _____    ______ ____
ROOT
ATOM      1  C   UNL     1      43.400   5.111  10.581  0.00  0.00    +0.000 C 
ENDROOT
BRANCH   1   2
ATOM      2  O   UNL     1      43.448   3.706  10.318  0.00  0.00    +0.000 OA
BRANCH   2   6
ATOM      3  C   UNL     1      46.478   2.660   7.642  0.00  0.00    +0.000 A 
ATOM      4  C   UNL     1      45.917   1.657   8.439  0.00  0.00    +0.000 A 
ATOM      5  C   UNL     1      44.904   1.973   9.351  0.00  0.00    +0.000 A 
ATOM      6  C   UNL     1      44.445   3.286   9.475  0.00  0.00    +0.000 A 
ATOM      7  C   UNL     1      45.028   4.289   8.695  0.00  0.00    +0.000 A 
ATOM      8  C   UNL     1      46.046   3.981   7.786  0.00  0.00    +0.000 A 
BRANCH   3  10
ATOM      9  N   UNL     1      47.583   3.144   5.530  0.00  0.00    +0.000 N 
ATOM     10  C   UNL     1      47.540   2.355   6.650  0.00  0.00    +0.000 C 
ATOM     11  O   UNL     1      48.367   1.475   6.834  0.00  0.00    +0.000 OA
ATOM     12  H   UNL     1      48.375   3.005   4.920  0.00  0.00    +0.000 HD
ATOM     13  H   UNL     1      47.094   4.027   5.473  0.00  0.00    +0.000 HD
ENDBRANCH   3  10
ENDBRANCH   2   6
ENDBRANCH   1   2
BRANCH   1  14
ATOM     14  C   UNL     1      43.324   5.347  12.088  0.00  0.00    +0.000 C 
BRANCH  14  15
ATOM     15  C   UNL     1      44.705   5.401  12.696  0.00  0.00    +0.000 A 
ATOM     16  C   UNL     1      45.353   4.230  13.103  0.00  0.00    +0.000 A 
ATOM     17  C   UNL     1      46.657   4.284  13.602  0.00  0.00    +0.000 A 
ATOM     18  C   UNL     1      47.327   5.507  13.702  0.00  0.00    +0.000 A 
ATOM     19  C   UNL     1      46.687   6.679  13.307  0.00  0.00    +0.000 A 
ATOM     20  C   UNL     1      45.385   6.621  12.799  0.00  0.00    +0.000 A 
BRANCH  19  21
ATOM     21  O   UNL     1      47.252   7.929  13.327  0.00  0.00    +0.000 OA
BRANCH  21  22
ATOM     22  C   UNL     1      47.722   8.510  12.088  0.00  0.00    +0.000 C 
ATOM     23  C   UNL     1      49.042   7.978  11.496  0.00  0.00    +0.000 C 
ATOM     24  N   UNL     1      49.598   9.338  11.461  0.00  0.00    +0.000 NA
ATOM     25  C   UNL     1      48.468   9.851  12.245  0.00  0.00    +0.000 C 
ATOM     26  H   UNL     1      49.674   9.737  10.527  0.00  0.00    +0.000 HD
ENDBRANCH  21  22
ENDBRANCH  19  21
ENDBRANCH  14  15
ENDBRANCH   1  14
TORSDOF 7
ENDMDL
MODEL 4
REMARK VINA RESULT:    -6.791      2.410      7.113
REMARK INTER + INTRA:         -10.488
REMARK INTER:                 -10.447
REMARK INTRA:                  -0.041
REMARK UNBOUND:                -0.919
REMARK  Name = 
REMARK  7 active torsions:
REMARK  status: ('A' for Active; 'I' for Inactive)
REMARK    1  A    between atoms: C_2  and  C_4
REMARK    2  A    between atoms: C_7  and  O_8
REMARK    3  A    between atoms: O_8  and  C_9
REMARK    4  A    between atoms: C_9  and  C_10
REMARK    5  A    between atoms: C_10  and  C_11
REMARK    6  A    between atoms: C_15  and  O_16
REMARK    7  A    between atoms: O_16  and  C_17
REMARK                            x       y       z     vdW  Elec       q    Type
REMARK                         _______ _______ _______ _____ _____    ______ ____
ROOT
ATOM      1  C   UNL     1      43.178   4.278  12.255  0.00  0.00    +0.000 C 
ENDROOT
BRANCH   1   2
ATOM      2  O   UNL     1      44.049   4.348  13.388  0.00  0.00    +0.000 OA
BRANCH   2   6
ATOM      3  C   UNL     1      47.369   6.803  12.768  0.00  0.00    +0.000 A 
ATOM      4  C   UNL     1      47.573   5.530  13.313  0.00  0.00    +0.000 A 
ATOM      5  C   UNL     1      46.483   4.684  13.539  0.00  0.00    +0.000 A 
ATOM      6  C   UNL     1      45.185   5.098  13.227  0.00  0.00    +0.000 A 
ATOM      7  C   UNL     1      44.985   6.381  12.708  0.00  0.00    +0.000 A 
ATOM      8  C   UNL     1      46.071   7.234  12.484  0.00  0.00    +0.000 A 
BRANCH   3  10
ATOM      9  N   UNL     1      49.763   7.230  12.742  0.00  0.00    +0.000 N 
ATOM     10  C   UNL     1      48.507   7.717  12.495  0.00  0.00    +0.000 C 
ATOM     11  O   UNL     1      48.343   8.836  12.031  0.00  0.00    +0.000 OA
ATOM     12  H   UNL     1      50.532   7.813  12.445  0.00  0.00    +0.000 HD
ATOM     13  H   UNL     1      49.944   6.243  12.870  0.00  0.00    +0.000 HD
ENDBRANCH   3  10
ENDBRANCH   2   6
ENDBRANCH   1   2
BRANCH   1  14
ATOM     14  C   UNL     1      43.418   2.968  11.506  0.00  0.00    +0.000 C 
BRANCH  14  15
ATOM     15  C   UNL     1      44.251   3.200  10.269  0.00  0.00    +0.000 A 
ATOM     16  C   UNL     1      44.577   4.497   9.857  0.00  0.00    +0.000 A 
ATOM     17  C   UNL     1      45.404   4.697   8.748  0.00  0.00    +0.000 A 
ATOM     18  C   UNL     1      45.914   3.606   8.039  0.00  0.00    +0.000 A 
ATOM     19  C   UNL     1      45.589   2.311   8.437  0.00  0.00    +0.000 A 
ATOM     20  C   UNL     1      44.769   2.113   9.552  0.00  0.00    +0.000 A 
BRANCH  19  21
ATOM     21  O   UNL     1      46.055   1.165   7.842  0.00  0.00    +0.000 OA
BRANCH  21  22
ATOM     22  C   UNL     1      47.385   1.157   7.274  0.00  0.00    +0.000 C 
ATOM     23  C   UNL     1      47.968   2.495   6.779  0.00  0.00    +0.000 C 
ATOM     24  N   UNL     1      48.219   1.918   5.451  0.00  0.00    +0.000 NA
ATOM     25  C   UNL     1      47.453   0.714   5.797  0.00  0.00    +0.000 C 
ATOM     26  H   UNL     1      49.202   1.743   5.246  0.00  0.00    +0.000 HD
ENDBRANCH  21  22
ENDBRANCH  19  21
ENDBRANCH  14  15
ENDBRANCH   1  14
TORSDOF 7
ENDMDL
MODEL 5
REMARK VINA RESULT:    -6.739      2.162      2.369
REMARK INTER + INTRA:         -10.415
REMARK INTER:                  -9.799
REMARK INTRA:                  -0.617
REMARK UNBOUND:                -0.919
REMARK  Name = 
REMARK  7 active torsions:
REMARK  status: ('A' for Active; 'I' for Inactive)
REMARK    1  A    between atoms: C_2  and  C_4
REMARK    2  A    between atoms: C_7  and  O_8
REMARK    3  A    between atoms: O_8  and  C_9
REMARK    4  A    between atoms: C_9  and  C_10
REMARK    5  A    between atoms: C_10  and  C_11
REMARK    6  A    between atoms: C_15  and  O_16
REMARK    7  A    between atoms: O_16  and  C_17
REMARK                            x       y       z     vdW  Elec       q    Type
REMARK                         _______ _______ _______ _____ _____    ______ ____
ROOT
ATOM      1  C   UNL     1      43.975   2.998  11.945  0.00  0.00    +0.000 C 
ENDROOT
BRANCH   1   2
ATOM      2  O   UNL     1      43.499   3.377  10.650  0.00  0.00    +0.000 OA
BRANCH   2   6
ATOM      3  C   UNL     1      46.218   2.647   7.566  0.00  0.00    +0.000 A 
ATOM      4  C   UNL     1      45.829   3.969   7.814  0.00  0.00    +0.000 A 
ATOM      5  C   UNL     1      44.915   4.248   8.835  0.00  0.00    +0.000 A 
ATOM      6  C   UNL     1      44.383   3.218   9.614  0.00  0.00    +0.000 A 
ATOM      7  C   UNL     1      44.755   1.898   9.344  0.00  0.00    +0.000 A 
ATOM      8  C   UNL     1      45.664   1.610   8.321  0.00  0.00    +0.000 A 
BRANCH   3  10
ATOM      9  N   UNL     1      48.396   1.787   6.913  0.00  0.00    +0.000 N 
ATOM     10  C   UNL     1      47.202   2.318   6.504  0.00  0.00    +0.000 C 
ATOM     11  O   UNL     1      46.950   2.469   5.317  0.00  0.00    +0.000 OA
ATOM     12  H   UNL     1      49.011   1.459   6.181  0.00  0.00    +0.000 HD
ATOM     13  H   UNL     1      48.530   1.411   7.842  0.00  0.00    +0.000 HD
ENDBRANCH   3  10
ENDBRANCH   2   6
ENDBRANCH   1   2
BRANCH   1  14
ATOM     14  C   UNL     1      43.849   4.182  12.902  0.00  0.00    +0.000 C 
BRANCH  14  15
ATOM     15  C   UNL     1      44.850   5.260  12.561  0.00  0.00    +0.000 A 
ATOM     16  C   UNL     1      44.480   6.357  11.774  0.00  0.00    +0.000 A 
ATOM     17  C   UNL     1      45.396   7.382  11.521  0.00  0.00    +0.000 A 
ATOM     18  C   UNL     1      46.689   7.323  12.048  0.00  0.00    +0.000 A 
ATOM     19  C   UNL     1      47.068   6.231  12.825  0.00  0.00    +0.000 A 
ATOM     20  C   UNL     1      46.148   5.212  13.086  0.00  0.00    +0.000 A 
BRANCH  19  21
ATOM     21  O   UNL     1      48.294   6.079  13.423  0.00  0.00    +0.000 OA
BRANCH  21  22
ATOM     22  C   UNL     1      48.594   6.834  14.620  0.00  0.00    +0.000 C 
ATOM     23  C   UNL     1      48.118   8.298  14.689  0.00  0.00    +0.000 C 
ATOM     24  N   UNL     1      49.487   8.751  14.975  0.00  0.00    +0.000 NA
ATOM     25  C   UNL     1      50.021   7.417  14.676  0.00  0.00    +0.000 C 
ATOM     26  H   UNL     1      49.637   9.055  15.936  0.00  0.00    +0.000 HD
ENDBRANCH  21  22
ENDBRANCH  19  21
ENDBRANCH  14  15
ENDBRANCH   1  14
TORSDOF 7
ENDMDL
MODEL 6
REMARK VINA RESULT:    -6.725      1.652      8.197
REMARK INTER + INTRA:         -10.396
REMARK INTER:                  -9.706
REMARK INTRA:                  -0.690
REMARK UNBOUND:                -0.919
REMARK  Name = 
REMARK  7 active torsions:
REMARK  status: ('A' for Active; 'I' for Inactive)
REMARK    1  A    between atoms: C_2  and  C_4
REMARK    2  A    between atoms: C_7  and  O_8
REMARK    3  A    between atoms: O_8  and  C_9
REMARK    4  A    between atoms: C_9  and  C_10
REMARK    5  A    between atoms: C_10  and  C_11
REMARK    6  A    between atoms: C_15  and  O_16
REMARK    7  A    between atoms: O_16  and  C_17
REMARK                            x       y       z     vdW  Elec       q    Type
REMARK                         _______ _______ _______ _____ _____    ______ ____
ROOT
ATOM      1  C   UNL     1      45.500   6.278  12.566  0.00  0.00    +0.000 C 
ENDROOT
BRANCH   1   2
ATOM      2  O   UNL     1      46.868   5.864  12.642  0.00  0.00    +0.000 OA
BRANCH   2   6
ATOM      3  C   UNL     1      48.112   4.656  16.441  0.00  0.00    +0.000 A 
ATOM      4  C   UNL     1      48.524   5.909  15.971  0.00  0.00    +0.000 A 
ATOM      5  C   UNL     1      48.130   6.342  14.701  0.00  0.00    +0.000 A 
ATOM      6  C   UNL     1      47.327   5.535  13.891  0.00  0.00    +0.000 A 
ATOM      7  C   UNL     1      46.942   4.274  14.355  0.00  0.00    +0.000 A 
ATOM      8  C   UNL     1      47.336   3.831  15.622  0.00  0.00    +0.000 A 
BRANCH   3  10
ATOM      9  N   UNL     1      47.604   3.350  18.427  0.00  0.00    +0.000 N 
ATOM     10  C   UNL     1      48.494   4.175  17.793  0.00  0.00    +0.000 C 
ATOM     11  O   UNL     1      49.567   4.460  18.303  0.00  0.00    +0.000 OA
ATOM     12  H   UNL     1      47.921   2.935  19.292  0.00  0.00    +0.000 HD
ATOM     13  H   UNL     1      46.848   2.892  17.937  0.00  0.00    +0.000 HD
ENDBRANCH   3  10
ENDBRANCH   2   6
ENDBRANCH   1   2
BRANCH   1  14
ATOM     14  C   UNL     1      45.103   6.463  11.103  0.00  0.00    +0.000 C 
BRANCH  14  15
ATOM     15  C   UNL     1      45.071   5.137  10.381  0.00  0.00    +0.000 A 
ATOM     16  C   UNL     1      44.398   4.040  10.929  0.00  0.00    +0.000 A 
ATOM     17  C   UNL     1      44.319   2.837  10.221  0.00  0.00    +0.000 A 
ATOM     18  C   UNL     1      44.910   2.717   8.961  0.00  0.00    +0.000 A 
ATOM     19  C   UNL     1      45.590   3.801   8.411  0.00  0.00    +0.000 A 
ATOM     20  C   UNL     1      45.660   5.006   9.116  0.00  0.00    +0.000 A 
BRANCH  19  21
ATOM     21  O   UNL     1      46.180   3.814   7.172  0.00  0.00    +0.000 OA
BRANCH  21  22
ATOM     22  C   UNL     1      46.562   2.560   6.561  0.00  0.00    +0.000 C 
ATOM     23  C   UNL     1      47.953   1.986   6.898  0.00  0.00    +0.000 C 
ATOM     24  N   UNL     1      48.291   1.913   5.469  0.00  0.00    +0.000 NA
ATOM     25  C   UNL     1      47.091   2.680   5.116  0.00  0.00    +0.000 C 
ATOM     26  H   UNL     1      48.310   0.968   5.089  0.00  0.00    +0.000 HD
ENDBRANCH  21  22
ENDBRANCH  19  21
ENDBRANCH  14  15
ENDBRANCH   1  14
TORSDOF 7
ENDMDL
MODEL 7
REMARK VINA RESULT:    -6.233      3.401      7.662
REMARK INTER + INTRA:          -9.702
REMARK INTER:                  -8.880
REMARK INTRA:                  -0.823
REMARK UNBOUND:                -0.919
REMARK  Name = 
REMARK  7 active torsions:
REMARK  status: ('A' for Active; 'I' for Inactive)
REMARK    1  A    between atoms: C_2  and  C_4
REMARK    2  A    between atoms: C_7  and  O_8
REMARK    3  A    between atoms: O_8  and  C_9
REMARK    4  A    between atoms: C_9  and  C_10
REMARK    5  A    between atoms: C_10  and  C_11
REMARK    6  A    between atoms: C_15  and  O_16
REMARK    7  A    between atoms: O_16  and  C_17
REMARK                            x       y       z     vdW  Elec       q    Type
REMARK                         _______ _______ _______ _____ _____    ______ ____
ROOT
ATOM      1  C   UNL     1      44.235   5.781  12.572  0.00  0.00    +0.000 C 
ENDROOT
BRANCH   1   2
ATOM      2  O   UNL     1      45.635   5.710  12.855  0.00  0.00    +0.000 OA
BRANCH   2   6
ATOM      3  C   UNL     1      48.024   9.045  12.072  0.00  0.00    +0.000 A 
ATOM      4  C   UNL     1      46.781   9.243  12.683  0.00  0.00    +0.000 A 
ATOM      5  C   UNL     1      45.953   8.149  12.954  0.00  0.00    +0.000 A 
ATOM      6  C   UNL     1      46.354   6.854  12.620  0.00  0.00    +0.000 A 
ATOM      7  C   UNL     1      47.586   6.664  11.985  0.00  0.00    +0.000 A 
ATOM      8  C   UNL     1      48.416   7.754  11.705  0.00  0.00    +0.000 A 
BRANCH   3  10
ATOM      9  N   UNL     1      48.541  11.062  10.817  0.00  0.00    +0.000 N 
ATOM     10  C   UNL     1      48.936  10.182  11.790  0.00  0.00    +0.000 C 
ATOM     11  O   UNL     1      49.969  10.357  12.419  0.00  0.00    +0.000 OA
ATOM     12  H   UNL     1      49.107  11.892  10.713  0.00  0.00    +0.000 HD
ATOM     13  H   UNL     1      47.592  11.095  10.472  0.00  0.00    +0.000 HD
ENDBRANCH   3  10
ENDBRANCH   2   6
ENDBRANCH   1   2
BRANCH   1  14
ATOM     14  C   UNL     1      44.024   5.913  11.065  0.00  0.00    +0.000 C 
BRANCH  14  15
ATOM     15  C   UNL     1      44.402   4.636  10.353  0.00  0.00    +0.000 A 
ATOM     16  C   UNL     1      43.945   3.397  10.816  0.00  0.00    +0.000 A 
ATOM     17  C   UNL     1      44.246   2.228  10.112  0.00  0.00    +0.000 A 
ATOM     18  C   UNL     1      45.004   2.283   8.939  0.00  0.00    +0.000 A 
ATOM     19  C   UNL     1      45.470   3.510   8.475  0.00  0.00    +0.000 A 
ATOM     20  C   UNL     1      45.161   4.680   9.176  0.00  0.00    +0.000 A 
BRANCH  19  21
ATOM     21  O   UNL     1      46.192   3.693   7.323  0.00  0.00    +0.000 OA
BRANCH  21  22
ATOM     22  C   UNL     1      46.641   2.536   6.581  0.00  0.00    +0.000 C 
ATOM     23  C   UNL     1      48.019   1.940   6.934  0.00  0.00    +0.000 C 
ATOM     24  N   UNL     1      48.452   2.060   5.535  0.00  0.00    +0.000 NA
ATOM     25  C   UNL     1      47.261   2.851   5.204  0.00  0.00    +0.000 C 
ATOM     26  H   UNL     1      48.517   1.173   5.037  0.00  0.00    +0.000 HD
ENDBRANCH  21  22
ENDBRANCH  19  21
ENDBRANCH  14  15
ENDBRANCH   1  14
TORSDOF 7
ENDMDL
MODEL 8
REMARK VINA RESULT:    -6.202      3.856      5.494
REMARK INTER + INTRA:          -9.659
REMARK INTER:                  -9.142
REMARK INTRA:                  -0.517
REMARK UNBOUND:                -0.919
REMARK  Name = 
REMARK  7 active torsions:
REMARK  status: ('A' for Active; 'I' for Inactive)
REMARK    1  A    between atoms: C_2  and  C_4
REMARK    2  A    between atoms: C_7  and  O_8
REMARK    3  A    between atoms: O_8  and  C_9
REMARK    4  A    between atoms: C_9  and  C_10
REMARK    5  A    between atoms: C_10  and  C_11
REMARK    6  A    between atoms: C_15  and  O_16
REMARK    7  A    between atoms: O_16  and  C_17
REMARK                            x       y       z     vdW  Elec       q    Type
REMARK                         _______ _______ _______ _____ _____    ______ ____
ROOT
ATOM      1  C   UNL     1      48.896   7.471  13.195  0.00  0.00    +0.000 C 
ENDROOT
BRANCH   1   2
ATOM      2  O   UNL     1      48.454   6.116  13.060  0.00  0.00    +0.000 OA
BRANCH   2   6
ATOM      3  C   UNL     1      44.483   5.397  11.988  0.00  0.00    +0.000 A 
ATOM      4  C   UNL     1      45.217   6.328  11.245  0.00  0.00    +0.000 A 
ATOM      5  C   UNL     1      46.548   6.598  11.580  0.00  0.00    +0.000 A 
ATOM      6  C   UNL     1      47.156   5.945  12.655  0.00  0.00    +0.000 A 
ATOM      7  C   UNL     1      46.410   5.036  13.411  0.00  0.00    +0.000 A 
ATOM      8  C   UNL     1      45.077   4.766  13.085  0.00  0.00    +0.000 A 
BRANCH   3  10
ATOM      9  N   UNL     1      42.172   6.099  11.712  0.00  0.00    +0.000 N 
ATOM     10  C   UNL     1      43.075   5.072  11.646  0.00  0.00    +0.000 C 
ATOM     11  O   UNL     1      42.738   3.956  11.279  0.00  0.00    +0.000 OA
ATOM     12  H   UNL     1      41.244   5.897  11.367  0.00  0.00    +0.000 HD
ATOM     13  H   UNL     1      42.457   7.068  11.753  0.00  0.00    +0.000 HD
ENDBRANCH   3  10
ENDBRANCH   2   6
ENDBRANCH   1   2
BRANCH   1  14
ATOM     14  C   UNL     1      48.751   7.912  14.651  0.00  0.00    +0.000 C 
BRANCH  14  15
ATOM     15  C   UNL     1      49.550   7.018  15.568  0.00  0.00    +0.000 A 
ATOM     16  C   UNL     1      50.942   7.136  15.649  0.00  0.00    +0.000 A 
ATOM     17  C   UNL     1      51.664   6.349  16.550  0.00  0.00    +0.000 A 
ATOM     18  C   UNL     1      51.005   5.436  17.379  0.00  0.00    +0.000 A 
ATOM     19  C   UNL     1      49.621   5.306  17.299  0.00  0.00    +0.000 A 
ATOM     20  C   UNL     1      48.899   6.101  16.404  0.00  0.00    +0.000 A 
BRANCH  19  21
ATOM     21  O   UNL     1      48.863   4.471  18.082  0.00  0.00    +0.000 OA
BRANCH  21  22
ATOM     22  C   UNL     1      48.918   3.044  17.850  0.00  0.00    +0.000 C 
ATOM     23  C   UNL     1      50.227   2.453  17.291  0.00  0.00    +0.000 C 
ATOM     24  N   UNL     1      49.497   1.840  16.172  0.00  0.00    +0.000 NA
ATOM     25  C   UNL     1      48.279   2.580  16.525  0.00  0.00    +0.000 C 
ATOM     26  H   UNL     1      49.403   0.827  16.236  0.00  0.00    +0.000 HD
ENDBRANCH  21  22
ENDBRANCH  19  21
ENDBRANCH  14  15
ENDBRANCH   1  14
TORSDOF 7
ENDMDL
MODEL 9
REMARK VINA RESULT:    -6.046      3.424      7.362
REMARK INTER + INTRA:          -9.439
REMARK INTER:                  -8.533
REMARK INTRA:                  -0.907
REMARK UNBOUND:                -0.919
REMARK  Name = 
REMARK  7 active torsions:
REMARK  status: ('A' for Active; 'I' for Inactive)
REMARK    1  A    between atoms: C_2  and  C_4
REMARK    2  A    between atoms: C_7  and  O_8
REMARK    3  A    between atoms: O_8  and  C_9
REMARK    4  A    between atoms: C_9  and  C_10
REMARK    5  A    between atoms: C_10  and  C_11
REMARK    6  A    between atoms: C_15  and  O_16
REMARK    7  A    between atoms: O_16  and  C_17
REMARK                            x       y       z     vdW  Elec       q    Type
REMARK                         _______ _______ _______ _____ _____    ______ ____
ROOT
ATOM      1  C   UNL     1      47.226   5.385  13.967  0.00  0.00    +0.000 C 
ENDROOT
BRANCH   1   2
ATOM      2  O   UNL     1      47.690   5.841  12.693  0.00  0.00    +0.000 OA
BRANCH   2   6
ATOM      3  C   UNL     1      46.810   9.832  11.833  0.00  0.00    +0.000 A 
ATOM      4  C   UNL     1      48.153   9.443  11.895  0.00  0.00    +0.000 A 
ATOM      5  C   UNL     1      48.484   8.116  12.186  0.00  0.00    +0.000 A 
ATOM      6  C   UNL     1      47.483   7.169  12.418  0.00  0.00    +0.000 A 
ATOM      7  C   UNL     1      46.144   7.569  12.382  0.00  0.00    +0.000 A 
ATOM      8  C   UNL     1      45.806   8.896  12.097  0.00  0.00    +0.000 A 
BRANCH   3  10
ATOM      9  N   UNL     1      45.362  11.751  12.192  0.00  0.00    +0.000 N 
ATOM     10  C   UNL     1      46.424  11.227  11.505  0.00  0.00    +0.000 C 
ATOM     11  O   UNL     1      47.046  11.899  10.694  0.00  0.00    +0.000 OA
ATOM     12  H   UNL     1      45.180  12.734  12.048  0.00  0.00    +0.000 HD
ATOM     13  H   UNL     1      45.003  11.327  13.036  0.00  0.00    +0.000 HD
ENDBRANCH   3  10
ENDBRANCH   2   6
ENDBRANCH   1   2
BRANCH   1  14
ATOM     14  C   UNL     1      46.573   4.013  13.811  0.00  0.00    +0.000 C 
BRANCH  14  15
ATOM     15  C   UNL     1      45.383   4.084  12.885  0.00  0.00    +0.000 A 
ATOM     16  C   UNL     1      44.243   4.814  13.239  0.00  0.00    +0.000 A 
ATOM     17  C   UNL     1      43.174   4.927  12.346  0.00  0.00    +0.000 A 
ATOM     18  C   UNL     1      43.231   4.314  11.091  0.00  0.00    +0.000 A 
ATOM     19  C   UNL     1      44.358   3.578  10.733  0.00  0.00    +0.000 A 
ATOM     20  C   UNL     1      45.430   3.473  11.624  0.00  0.00    +0.000 A 
BRANCH  19  21
ATOM     21  O   UNL     1      44.542   2.961   9.522  0.00  0.00    +0.000 OA
BRANCH  21  22
ATOM     22  C   UNL     1      44.828   3.767   8.356  0.00  0.00    +0.000 C 
ATOM     23  C   UNL     1      45.780   3.188   7.291  0.00  0.00    +0.000 C 
ATOM     24  N   UNL     1      46.641   4.376   7.385  0.00  0.00    +0.000 NA
ATOM     25  C   UNL     1      45.908   4.849   8.566  0.00  0.00    +0.000 C 
ATOM     26  H   UNL     1      46.585   5.001   6.582  0.00  0.00    +0.000 HD
ENDBRANCH  21  22
ENDBRANCH  19  21
ENDBRANCH  14  15
ENDBRANCH   1  14
TORSDOF 7
ENDMDL
