MODEL 1
REMARK VINA RESULT:    -7.625      0.000      0.000
REMARK INTER + INTRA:         -11.772
REMARK INTER:                 -10.745
REMARK INTRA:                  -1.027
REMARK UNBOUND:                -1.027
REMARK  Name = 
REMARK  8 active torsions:
REMARK  status: ('A' for Active; 'I' for Inactive)
REMARK    1  A    between atoms: C_1  and  C_2
REMARK    2  A    between atoms: C_2  and  N_3
REMARK    3  A    between atoms: C_2  and  C_25
REMARK    4  A    between atoms: N_3  and  C_4
REMARK    5  A    between atoms: C_4  and  C_5
REMARK    6  A    between atoms: C_8  and  C_9
REMARK    7  A    between atoms: C_9  and  N_10
REMARK    8  A    between atoms: C_11  and  C_13
REMARK                            x       y       z     vdW  Elec       q    Type
REMARK                         _______ _______ _______ _____ _____    ______ ____
ROOT
ATOM      1  C   UNL     1      46.710   2.281   6.552  0.00  0.00    +0.000 A 
ATOM      2  C   UNL     1      46.441   1.321   7.539  0.00  0.00    +0.000 A 
ATOM      3  C   UNL     1      45.745   1.667   8.701  0.00  0.00    +0.000 A 
ATOM      4  C   UNL     1      45.303   2.982   8.904  0.00  0.00    +0.000 A 
ATOM      5  C   UNL     1      45.587   3.945   7.928  0.00  0.00    +0.000 A 
ATOM      6  C   UNL     1      46.275   3.597   6.763  0.00  0.00    +0.000 A 
ENDROOT
BRANCH   1   7
ATOM      7  C   UNL     1      47.514   1.936   5.316  0.00  0.00    +0.000 C 
BRANCH   7   8
ATOM      8  N   UNL     1      47.489   0.503   5.014  0.00  0.00    +0.000 NA
ATOM      9  H   UNL     1      48.405   0.114   5.241  0.00  0.00    +0.000 HD
BRANCH   8  11
ATOM     10  C   UNL     1      45.866   0.721   3.108  0.00  0.00    +0.000 C 
ATOM     11  C   UNL     1      47.240   0.222   3.587  0.00  0.00    +0.000 C 
BRANCH  11  12
ATOM     12  C   UNL     1      47.349  -1.269   3.291  0.00  0.00    +0.000 A 
ATOM     13  C   UNL     1      46.570  -2.194   3.988  0.00  0.00    +0.000 A 
ATOM     14  N   UNL     1      46.572  -3.521   3.715  0.00  0.00    +0.000 NA
ATOM     15  C   UNL     1      47.398  -3.898   2.718  0.00  0.00    +0.000 A 
ATOM     16  C   UNL     1      48.197  -2.997   2.035  0.00  0.00    +0.000 A 
ATOM     17  N   UNL     1      48.190  -1.670   2.300  0.00  0.00    +0.000 NA
ENDBRANCH  11  12
ENDBRANCH   8  11
ENDBRANCH   7   8
ENDBRANCH   1   7
BRANCH   4  18
ATOM     18  C   UNL     1      44.586   3.379  10.167  0.00  0.00    +0.000 C 
BRANCH  18  19
ATOM     19  N   UNL     1      45.134   4.592  10.716  0.00  0.00    +0.000 N 
ATOM     20  C   UNL     1      44.341   5.512  11.350  0.00  0.00    +0.000 C 
ATOM     21  O   UNL     1      43.137   5.327  11.519  0.00  0.00    +0.000 OA
ATOM     22  H   UNL     1      46.050   4.873  10.376  0.00  0.00    +0.000 HD
BRANCH  20  23
ATOM     23  C   UNL     1      45.014   6.708  11.872  0.00  0.00    +0.000 A 
ATOM     24  C   UNL     1      44.629   7.963  11.423  0.00  0.00    +0.000 A 
ATOM     25  S   UNL     1      45.483   9.243  12.156  0.00  0.00    +0.000 S 
ATOM     26  C   UNL     1      46.429   8.162  13.067  0.00  0.00    +0.000 A 
ATOM     27  N   UNL     1      47.405   8.616  13.900  0.00  0.00    +0.000 NA
ATOM     28  C   UNL     1      48.057   7.688  14.515  0.00  0.00    +0.000 A 
ATOM     29  N   UNL     1      47.827   6.344  14.370  0.00  0.00    +0.000 N 
ATOM     30  C   UNL     1      46.835   5.839  13.563  0.00  0.00    +0.000 A 
ATOM     31  O   UNL     1      46.626   4.633  13.491  0.00  0.00    +0.000 OA
ATOM     32  C   UNL     1      46.081   6.843  12.835  0.00  0.00    +0.000 A 
ATOM     33  H   UNL     1      48.364   5.667  14.891  0.00  0.00    +0.000 HD
ENDBRANCH  20  23
ENDBRANCH  18  19
ENDBRANCH   4  18
TORSDOF 7
ENDMDL
MODEL 2
REMARK VINA RESULT:    -7.622      3.638      6.467
REMARK INTER + INTRA:         -11.768
REMARK INTER:                 -10.592
REMARK INTRA:                  -1.175
REMARK UNBOUND:                -1.027
REMARK  Name = 
REMARK  8 active torsions:
REMARK  status: ('A' for Active; 'I' for Inactive)
REMARK    1  A    between atoms: C_1  and  C_2
REMARK    2  A    between atoms: C_2  and  N_3
REMARK    3  A    between atoms: C_2  and  C_25
REMARK    4  A    between atoms: N_3  and  C_4
REMARK    5  A    between atoms: C_4  and  C_5
REMARK    6  A    between atoms: C_8  and  C_9
REMARK    7  A    between atoms: C_9  and  N_10
REMARK    8  A    between atoms: C_11  and  C_13
REMARK                            x       y       z     vdW  Elec       q    Type
REMARK                         _______ _______ _______ _____ _____    ______ ____
ROOT
ATOM      1  C   UNL     1      44.737   5.813  11.226  0.00  0.00    +0.000 A 
ATOM      2  C   UNL     1      44.441   7.164  11.458  0.00  0.00    +0.000 A 
ATOM      3  C   UNL     1      45.313   7.971  12.193  0.00  0.00    +0.000 A 
ATOM      4  C   UNL     1      46.503   7.444  12.716  0.00  0.00    +0.000 A 
ATOM      5  C   UNL     1      46.791   6.091  12.500  0.00  0.00    +0.000 A 
ATOM      6  C   UNL     1      45.923   5.288  11.758  0.00  0.00    +0.000 A 
ENDROOT
BRANCH   1   7
ATOM      7  C   UNL     1      43.774   4.912  10.482  0.00  0.00    +0.000 C 
BRANCH   7   8
ATOM      8  N   UNL     1      44.238   4.591   9.130  0.00  0.00    +0.000 NA
ATOM      9  H   UNL     1      43.552   4.951   8.465  0.00  0.00    +0.000 HD
BRANCH   8  11
ATOM     10  C   UNL     1      44.288   2.312  10.188  0.00  0.00    +0.000 C 
ATOM     11  C   UNL     1      44.351   3.139   8.893  0.00  0.00    +0.000 C 
BRANCH  11  12
ATOM     12  C   UNL     1      45.643   2.799   8.159  0.00  0.00    +0.000 A 
ATOM     13  C   UNL     1      46.157   1.502   8.184  0.00  0.00    +0.000 A 
ATOM     14  N   UNL     1      47.259   1.127   7.490  0.00  0.00    +0.000 NA
ATOM     15  C   UNL     1      47.843   2.107   6.771  0.00  0.00    +0.000 A 
ATOM     16  C   UNL     1      47.360   3.405   6.757  0.00  0.00    +0.000 A 
ATOM     17  N   UNL     1      46.254   3.780   7.442  0.00  0.00    +0.000 NA
ENDBRANCH  11  12
ENDBRANCH   8  11
ENDBRANCH   7   8
ENDBRANCH   1   7
BRANCH   4  18
ATOM     18  C   UNL     1      47.435   8.291  13.543  0.00  0.00    +0.000 C 
BRANCH  18  19
ATOM     19  N   UNL     1      47.719   7.665  14.808  0.00  0.00    +0.000 N 
ATOM     20  C   UNL     1      49.000   7.345  15.175  0.00  0.00    +0.000 C 
ATOM     21  O   UNL     1      49.967   7.613  14.465  0.00  0.00    +0.000 OA
ATOM     22  H   UNL     1      46.938   7.220  15.282  0.00  0.00    +0.000 HD
BRANCH  20  23
ATOM     23  C   UNL     1      49.166   6.714  16.490  0.00  0.00    +0.000 A 
ATOM     24  C   UNL     1      49.887   7.367  17.480  0.00  0.00    +0.000 A 
ATOM     25  S   UNL     1      49.951   6.514  18.954  0.00  0.00    +0.000 S 
ATOM     26  C   UNL     1      49.055   5.220  18.307  0.00  0.00    +0.000 A 
ATOM     27  N   UNL     1      48.778   4.118  19.056  0.00  0.00    +0.000 NA
ATOM     28  C   UNL     1      48.108   3.206  18.435  0.00  0.00    +0.000 A 
ATOM     29  N   UNL     1      47.692   3.292  17.132  0.00  0.00    +0.000 N 
ATOM     30  C   UNL     1      47.923   4.396  16.346  0.00  0.00    +0.000 A 
ATOM     31  O   UNL     1      47.499   4.460  15.198  0.00  0.00    +0.000 OA
ATOM     32  C   UNL     1      48.690   5.446  16.992  0.00  0.00    +0.000 A 
ATOM     33  H   UNL     1      47.158   2.549  16.708  0.00  0.00    +0.000 HD
ENDBRANCH  20  23
ENDBRANCH  18  19
ENDBRANCH   4  18
TORSDOF 7
ENDMDL
MODEL 3
REMARK VINA RESULT:    -7.399      3.996      6.766
REMARK INTER + INTRA:         -11.454
REMARK INTER:                 -10.377
REMARK INTRA:                  -1.077
REMARK UNBOUND:                -1.027
REMARK  Name = 
REMARK  8 active torsions:
REMARK  status: ('A' for Active; 'I' for Inactive)
REMARK    1  A    between atoms: C_1  and  C_2
REMARK    2  A    between atoms: C_2  and  N_3
REMARK    3  A    between atoms: C_2  and  C_25
REMARK    4  A    between atoms: N_3  and  C_4
REMARK    5  A    between atoms: C_4  and  C_5
REMARK    6  A    between atoms: C_8  and  C_9
REMARK    7  A    between atoms: C_9  and  N_10
REMARK    8  A    between atoms: C_11  and  C_13
REMARK                            x       y       z     vdW  Elec       q    Type
REMARK                         _______ _______ _______ _____ _____    ______ ____
ROOT
ATOM      1  C   UNL     1      45.108   5.323  11.535  0.00  0.00    +0.000 A 
ATOM      2  C   UNL     1      45.301   4.834  12.836  0.00  0.00    +0.000 A 
ATOM      3  C   UNL     1      46.350   5.307  13.629  0.00  0.00    +0.000 A 
ATOM      4  C   UNL     1      47.233   6.280  13.139  0.00  0.00    +0.000 A 
ATOM      5  C   UNL     1      47.052   6.756  11.834  0.00  0.00    +0.000 A 
ATOM      6  C   UNL     1      45.999   6.289  11.046  0.00  0.00    +0.000 A 
ENDROOT
BRANCH   1   7
ATOM      7  C   UNL     1      44.013   4.778  10.643  0.00  0.00    +0.000 C 
BRANCH   7   8
ATOM      8  N   UNL     1      44.448   4.622   9.254  0.00  0.00    +0.000 NA
ATOM      9  H   UNL     1      43.794   5.130   8.657  0.00  0.00    +0.000 HD
BRANCH   8  11
ATOM     10  C   UNL     1      44.294   2.217   9.965  0.00  0.00    +0.000 C 
ATOM     11  C   UNL     1      44.442   3.216   8.806  0.00  0.00    +0.000 C 
BRANCH  11  12
ATOM     12  C   UNL     1      45.709   2.879   8.029  0.00  0.00    +0.000 A 
ATOM     13  C   UNL     1      46.257   1.596   8.081  0.00  0.00    +0.000 A 
ATOM     14  N   UNL     1      47.338   1.222   7.354  0.00  0.00    +0.000 NA
ATOM     15  C   UNL     1      47.865   2.186   6.574  0.00  0.00    +0.000 A 
ATOM     16  C   UNL     1      47.348   3.471   6.531  0.00  0.00    +0.000 A 
ATOM     17  N   UNL     1      46.264   3.845   7.250  0.00  0.00    +0.000 NA
ENDBRANCH  11  12
ENDBRANCH   8  11
ENDBRANCH   7   8
ENDBRANCH   1   7
BRANCH   4  18
ATOM     18  C   UNL     1      48.391   6.772  13.966  0.00  0.00    +0.000 C 
BRANCH  18  19
ATOM     19  N   UNL     1      48.186   6.492  15.364  0.00  0.00    +0.000 N 
ATOM     20  C   UNL     1      49.241   6.306  16.218  0.00  0.00    +0.000 C 
ATOM     21  O   UNL     1      50.407   6.410  15.843  0.00  0.00    +0.000 OA
ATOM     22  H   UNL     1      47.263   6.163  15.632  0.00  0.00    +0.000 HD
BRANCH  20  23
ATOM     23  C   UNL     1      48.908   6.031  17.621  0.00  0.00    +0.000 A 
ATOM     24  C   UNL     1      49.157   4.774  18.152  0.00  0.00    +0.000 A 
ATOM     25  S   UNL     1      48.747   4.635  19.801  0.00  0.00    +0.000 S 
ATOM     26  C   UNL     1      48.179   6.239  19.851  0.00  0.00    +0.000 A 
ATOM     27  N   UNL     1      47.648   6.757  20.991  0.00  0.00    +0.000 NA
ATOM     28  C   UNL     1      47.240   7.977  20.883  0.00  0.00    +0.000 A 
ATOM     29  N   UNL     1      47.310   8.726  19.736  0.00  0.00    +0.000 N 
ATOM     30  C   UNL     1      47.864   8.255  18.570  0.00  0.00    +0.000 A 
ATOM     31  O   UNL     1      47.952   8.965  17.575  0.00  0.00    +0.000 OA
ATOM     32  C   UNL     1      48.324   6.879  18.633  0.00  0.00    +0.000 A 
ATOM     33  H   UNL     1      46.985   9.680  19.720  0.00  0.00    +0.000 HD
ENDBRANCH  20  23
ENDBRANCH  18  19
ENDBRANCH   4  18
TORSDOF 7
ENDMDL
MODEL 4
REMARK VINA RESULT:    -7.183      5.461      9.316
REMARK INTER + INTRA:         -11.150
REMARK INTER:                  -9.986
REMARK INTRA:                  -1.164
REMARK UNBOUND:                -1.027
REMARK  Name = 
REMARK  8 active torsions:
REMARK  status: ('A' for Active; 'I' for Inactive)
REMARK    1  A    between atoms: C_1  and  C_2
REMARK    2  A    between atoms: C_2  and  N_3
REMARK    3  A    between atoms: C_2  and  C_25
REMARK    4  A    between atoms: N_3  and  C_4
REMARK    5  A    between atoms: C_4  and  C_5
REMARK    6  A    between atoms: C_8  and  C_9
REMARK    7  A    between atoms: C_9  and  N_10
REMARK    8  A    between atoms: C_11  and  C_13
REMARK                            x       y       z     vdW  Elec       q    Type
REMARK                         _______ _______ _______ _____ _____    ______ ____
ROOT
ATOM      1  C   UNL     1      47.029   4.920  14.075  0.00  0.00    +0.000 A 
ATOM      2  C   UNL     1      47.794   6.094  14.004  0.00  0.00    +0.000 A 
ATOM      3  C   UNL     1      48.521   6.542  15.110  0.00  0.00    +0.000 A 
ATOM      4  C   UNL     1      48.498   5.827  16.317  0.00  0.00    +0.000 A 
ATOM      5  C   UNL     1      47.721   4.666  16.395  0.00  0.00    +0.000 A 
ATOM      6  C   UNL     1      47.002   4.214  15.287  0.00  0.00    +0.000 A 
ENDROOT
BRANCH   1   7
ATOM      7  C   UNL     1      46.190   4.454  12.905  0.00  0.00    +0.000 C 
BRANCH   7   8
ATOM      8  N   UNL     1      45.289   5.497  12.411  0.00  0.00    +0.000 NA
ATOM      9  H   UNL     1      44.903   5.992  13.216  0.00  0.00    +0.000 HD
BRANCH   8  11
ATOM     10  C   UNL     1      43.376   3.868  12.413  0.00  0.00    +0.000 C 
ATOM     11  C   UNL     1      44.149   4.954  11.648  0.00  0.00    +0.000 C 
BRANCH  11  12
ATOM     12  C   UNL     1      44.603   4.380  10.310  0.00  0.00    +0.000 A 
ATOM     13  C   UNL     1      45.407   5.129   9.449  0.00  0.00    +0.000 A 
ATOM     14  N   UNL     1      45.900   4.642   8.284  0.00  0.00    +0.000 NA
ATOM     15  C   UNL     1      45.547   3.372   8.000  0.00  0.00    +0.000 A 
ATOM     16  C   UNL     1      44.728   2.626   8.831  0.00  0.00    +0.000 A 
ATOM     17  N   UNL     1      44.242   3.107   9.999  0.00  0.00    +0.000 NA
ENDBRANCH  11  12
ENDBRANCH   8  11
ENDBRANCH   7   8
ENDBRANCH   1   7
BRANCH   4  18
ATOM     18  C   UNL     1      49.245   6.318  17.529  0.00  0.00    +0.000 C 
BRANCH  18  19
ATOM     19  N   UNL     1      50.238   5.363  17.948  0.00  0.00    +0.000 N 
ATOM     20  C   UNL     1      51.495   5.354  17.401  0.00  0.00    +0.000 C 
ATOM     21  O   UNL     1      51.846   6.182  16.563  0.00  0.00    +0.000 OA
ATOM     22  H   UNL     1      49.901   4.539  18.437  0.00  0.00    +0.000 HD
BRANCH  20  23
ATOM     23  C   UNL     1      52.423   4.337  17.910  0.00  0.00    +0.000 A 
ATOM     24  C   UNL     1      53.597   4.730  18.536  0.00  0.00    +0.000 A 
ATOM     25  S   UNL     1      54.541   3.427  19.100  0.00  0.00    +0.000 S 
ATOM     26  C   UNL     1      53.435   2.289  18.485  0.00  0.00    +0.000 A 
ATOM     27  N   UNL     1      53.667   0.954  18.602  0.00  0.00    +0.000 NA
ATOM     28  C   UNL     1      52.757   0.206  18.076  0.00  0.00    +0.000 A 
ATOM     29  N   UNL     1      51.636   0.670  17.437  0.00  0.00    +0.000 N 
ATOM     30  C   UNL     1      51.345   2.008  17.318  0.00  0.00    +0.000 A 
ATOM     31  O   UNL     1      50.312   2.390  16.781  0.00  0.00    +0.000 OA
ATOM     32  C   UNL     1      52.347   2.895  17.881  0.00  0.00    +0.000 A 
ATOM     33  H   UNL     1      50.954   0.032  17.057  0.00  0.00    +0.000 HD
ENDBRANCH  20  23
ENDBRANCH  18  19
ENDBRANCH   4  18
TORSDOF 7
ENDMDL
MODEL 5
REMARK VINA RESULT:    -7.052      4.559     10.551
REMARK INTER + INTRA:         -10.965
REMARK INTER:                  -9.635
REMARK INTRA:                  -1.331
REMARK UNBOUND:                -1.027
REMARK  Name = 
REMARK  8 active torsions:
REMARK  status: ('A' for Active; 'I' for Inactive)
REMARK    1  A    between atoms: C_1  and  C_2
REMARK    2  A    between atoms: C_2  and  N_3
REMARK    3  A    between atoms: C_2  and  C_25
REMARK    4  A    between atoms: N_3  and  C_4
REMARK    5  A    between atoms: C_4  and  C_5
REMARK    6  A    between atoms: C_8  and  C_9
REMARK    7  A    between atoms: C_9  and  N_10
REMARK    8  A    between atoms: C_11  and  C_13
REMARK                            x       y       z     vdW  Elec       q    Type
REMARK                         _______ _______ _______ _____ _____    ______ ____
ROOT
ATOM      1  C   UNL     1      50.354   7.458  15.169  0.00  0.00    +0.000 A 
ATOM      2  C   UNL     1      50.817   8.012  13.967  0.00  0.00    +0.000 A 
ATOM      3  C   UNL     1      49.971   8.129  12.861  0.00  0.00    +0.000 A 
ATOM      4  C   UNL     1      48.640   7.692  12.931  0.00  0.00    +0.000 A 
ATOM      5  C   UNL     1      48.182   7.121  14.125  0.00  0.00    +0.000 A 
ATOM      6  C   UNL     1      49.026   7.013  15.232  0.00  0.00    +0.000 A 
ENDROOT
BRANCH   1   7
ATOM      7  C   UNL     1      51.275   7.270  16.356  0.00  0.00    +0.000 C 
BRANCH   7   8
ATOM      8  N   UNL     1      50.543   7.001  17.596  0.00  0.00    +0.000 NA
ATOM      9  H   UNL     1      50.908   7.619  18.322  0.00  0.00    +0.000 HD
BRANCH   8  11
ATOM     10  C   UNL     1      51.923   4.907  17.435  0.00  0.00    +0.000 C 
ATOM     11  C   UNL     1      50.719   5.617  18.076  0.00  0.00    +0.000 C 
BRANCH  11  12
ATOM     12  C   UNL     1      49.469   4.782  17.823  0.00  0.00    +0.000 A 
ATOM     13  C   UNL     1      48.232   5.177  18.335  0.00  0.00    +0.000 A 
ATOM     14  N   UNL     1      47.078   4.514  18.080  0.00  0.00    +0.000 NA
ATOM     15  C   UNL     1      47.206   3.423  17.298  0.00  0.00    +0.000 A 
ATOM     16  C   UNL     1      48.430   3.003  16.804  0.00  0.00    +0.000 A 
ATOM     17  N   UNL     1      49.583   3.668  17.050  0.00  0.00    +0.000 NA
ENDBRANCH  11  12
ENDBRANCH   8  11
ENDBRANCH   7   8
ENDBRANCH   1   7
BRANCH   4  18
ATOM     18  C   UNL     1      47.726   7.775  11.737  0.00  0.00    +0.000 C 
BRANCH  18  19
ATOM     19  N   UNL     1      46.989   6.551  11.562  0.00  0.00    +0.000 N 
ATOM     20  C   UNL     1      45.619   6.532  11.590  0.00  0.00    +0.000 C 
ATOM     21  O   UNL     1      44.956   7.559  11.725  0.00  0.00    +0.000 OA
ATOM     22  H   UNL     1      47.503   5.686  11.699  0.00  0.00    +0.000 HD
BRANCH  20  23
ATOM     23  C   UNL     1      44.977   5.226  11.396  0.00  0.00    +0.000 A 
ATOM     24  C   UNL     1      44.238   4.663  12.427  0.00  0.00    +0.000 A 
ATOM     25  S   UNL     1      43.531   3.166  12.023  0.00  0.00    +0.000 S 
ATOM     26  C   UNL     1      44.227   3.195  10.470  0.00  0.00    +0.000 A 
ATOM     27  N   UNL     1      44.040   2.165   9.600  0.00  0.00    +0.000 NA
ATOM     28  C   UNL     1      44.639   2.309   8.466  0.00  0.00    +0.000 A 
ATOM     29  N   UNL     1      45.412   3.387   8.122  0.00  0.00    +0.000 N 
ATOM     30  C   UNL     1      45.607   4.463   8.955  0.00  0.00    +0.000 A 
ATOM     31  O   UNL     1      46.268   5.432   8.600  0.00  0.00    +0.000 OA
ATOM     32  C   UNL     1      44.967   4.343  10.253  0.00  0.00    +0.000 A 
ATOM     33  H   UNL     1      45.844   3.447   7.212  0.00  0.00    +0.000 HD
ENDBRANCH  20  23
ENDBRANCH  18  19
ENDBRANCH   4  18
TORSDOF 7
ENDMDL
MODEL 6
REMARK VINA RESULT:    -6.963      7.846     10.565
REMARK INTER + INTRA:         -10.839
REMARK INTER:                  -9.999
REMARK INTRA:                  -0.841
REMARK UNBOUND:                -1.027
REMARK  Name = 
REMARK  8 active torsions:
REMARK  status: ('A' for Active; 'I' for Inactive)
REMARK    1  A    between atoms: C_1  and  C_2
REMARK    2  A    between atoms: C_2  and  N_3
REMARK    3  A    between atoms: C_2  and  C_25
REMARK    4  A    between atoms: N_3  and  C_4
REMARK    5  A    between atoms: C_4  and  C_5
REMARK    6  A    between atoms: C_8  and  C_9
REMARK    7  A    between atoms: C_9  and  N_10
REMARK    8  A    between atoms: C_11  and  C_13
REMARK                            x       y       z     vdW  Elec       q    Type
REMARK                         _______ _______ _______ _____ _____    ______ ____
ROOT
ATOM      1  C   UNL     1      44.908   7.536  11.813  0.00  0.00    +0.000 A 
ATOM      2  C   UNL     1      46.099   7.603  12.551  0.00  0.00    +0.000 A 
ATOM      3  C   UNL     1      46.545   6.503  13.290  0.00  0.00    +0.000 A 
ATOM      4  C   UNL     1      45.808   5.309  13.308  0.00  0.00    +0.000 A 
ATOM      5  C   UNL     1      44.610   5.248  12.586  0.00  0.00    +0.000 A 
ATOM      6  C   UNL     1      44.170   6.344  11.842  0.00  0.00    +0.000 A 
ENDROOT
BRANCH   1   7
ATOM      7  C   UNL     1      44.382   8.737  11.056  0.00  0.00    +0.000 C 
BRANCH   7   8
ATOM      8  N   UNL     1      42.919   8.767  11.001  0.00  0.00    +0.000 NA
ATOM      9  H   UNL     1      42.605   7.974  10.439  0.00  0.00    +0.000 HD
BRANCH   8  11
ATOM     10  C   UNL     1      43.487  11.029  10.066  0.00  0.00    +0.000 C 
ATOM     11  C   UNL     1      42.395   9.987  10.358  0.00  0.00    +0.000 C 
BRANCH  11  12
ATOM     12  C   UNL     1      41.313  10.640  11.212  0.00  0.00    +0.000 A 
ATOM     13  C   UNL     1      39.964  10.367  10.984  0.00  0.00    +0.000 A 
ATOM     14  N   UNL     1      38.967  10.860  11.759  0.00  0.00    +0.000 NA
ATOM     15  C   UNL     1      39.368  11.655  12.771  0.00  0.00    +0.000 A 
ATOM     16  C   UNL     1      40.701  11.957  12.993  0.00  0.00    +0.000 A 
ATOM     17  N   UNL     1      41.700  11.458  12.227  0.00  0.00    +0.000 NA
ENDBRANCH  11  12
ENDBRANCH   8  11
ENDBRANCH   7   8
ENDBRANCH   1   7
BRANCH   4  18
ATOM     18  C   UNL     1      46.255   4.128  14.129  0.00  0.00    +0.000 C 
BRANCH  18  19
ATOM     19  N   UNL     1      47.357   4.480  14.986  0.00  0.00    +0.000 N 
ATOM     20  C   UNL     1      47.402   4.076  16.295  0.00  0.00    +0.000 C 
ATOM     21  O   UNL     1      46.529   3.364  16.786  0.00  0.00    +0.000 OA
ATOM     22  H   UNL     1      47.942   5.253  14.682  0.00  0.00    +0.000 HD
BRANCH  20  23
ATOM     23  C   UNL     1      48.578   4.492  17.069  0.00  0.00    +0.000 A 
ATOM     24  C   UNL     1      48.605   5.750  17.655  0.00  0.00    +0.000 A 
ATOM     25  S   UNL     1      50.024   6.058  18.548  0.00  0.00    +0.000 S 
ATOM     26  C   UNL     1      50.673   4.537  18.144  0.00  0.00    +0.000 A 
ATOM     27  N   UNL     1      51.911   4.169  18.572  0.00  0.00    +0.000 NA
ATOM     28  C   UNL     1      52.285   2.999  18.177  0.00  0.00    +0.000 A 
ATOM     29  N   UNL     1      51.537   2.163  17.390  0.00  0.00    +0.000 N 
ATOM     30  C   UNL     1      50.271   2.478  16.957  0.00  0.00    +0.000 A 
ATOM     31  O   UNL     1      49.610   1.690  16.292  0.00  0.00    +0.000 OA
ATOM     32  C   UNL     1      49.808   3.794  17.360  0.00  0.00    +0.000 A 
ATOM     33  H   UNL     1      51.882   1.252  17.126  0.00  0.00    +0.000 HD
ENDBRANCH  20  23
ENDBRANCH  18  19
ENDBRANCH   4  18
TORSDOF 7
ENDMDL
MODEL 7
REMARK VINA RESULT:    -6.896      3.925      6.802
REMARK INTER + INTRA:         -10.745
REMARK INTER:                  -9.728
REMARK INTRA:                  -1.017
REMARK UNBOUND:                -1.027
REMARK  Name = 
REMARK  8 active torsions:
REMARK  status: ('A' for Active; 'I' for Inactive)
REMARK    1  A    between atoms: C_1  and  C_2
REMARK    2  A    between atoms: C_2  and  N_3
REMARK    3  A    between atoms: C_2  and  C_25
REMARK    4  A    between atoms: N_3  and  C_4
REMARK    5  A    between atoms: C_4  and  C_5
REMARK    6  A    between atoms: C_8  and  C_9
REMARK    7  A    between atoms: C_9  and  N_10
REMARK    8  A    between atoms: C_11  and  C_13
REMARK                            x       y       z     vdW  Elec       q    Type
REMARK                         _______ _______ _______ _____ _____    ______ ____
ROOT
ATOM      1  C   UNL     1      45.184   4.130  12.034  0.00  0.00    +0.000 A 
ATOM      2  C   UNL     1      45.075   5.521  11.891  0.00  0.00    +0.000 A 
ATOM      3  C   UNL     1      45.909   6.382  12.610  0.00  0.00    +0.000 A 
ATOM      4  C   UNL     1      46.871   5.871  13.493  0.00  0.00    +0.000 A 
ATOM      5  C   UNL     1      46.969   4.483  13.651  0.00  0.00    +0.000 A 
ATOM      6  C   UNL     1      46.141   3.624  12.925  0.00  0.00    +0.000 A 
ENDROOT
BRANCH   1   7
ATOM      7  C   UNL     1      44.250   3.187  11.307  0.00  0.00    +0.000 C 
BRANCH   7   8
ATOM      8  N   UNL     1      44.926   2.436  10.246  0.00  0.00    +0.000 NA
ATOM      9  H   UNL     1      45.747   1.984  10.650  0.00  0.00    +0.000 HD
BRANCH   8  11
ATOM     10  C   UNL     1      44.281   4.140   8.516  0.00  0.00    +0.000 C 
ATOM     11  C   UNL     1      45.402   3.298   9.148  0.00  0.00    +0.000 C 
BRANCH  11  12
ATOM     12  C   UNL     1      46.073   2.477   8.053  0.00  0.00    +0.000 A 
ATOM     13  C   UNL     1      46.469   3.075   6.855  0.00  0.00    +0.000 A 
ATOM     14  N   UNL     1      47.135   2.409   5.880  0.00  0.00    +0.000 NA
ATOM     15  C   UNL     1      47.382   1.110   6.140  0.00  0.00    +0.000 A 
ATOM     16  C   UNL     1      46.972   0.496   7.311  0.00  0.00    +0.000 A 
ATOM     17  N   UNL     1      46.314   1.160   8.291  0.00  0.00    +0.000 NA
ENDBRANCH  11  12
ENDBRANCH   8  11
ENDBRANCH   7   8
ENDBRANCH   1   7
BRANCH   4  18
ATOM     18  C   UNL     1      47.751   6.785  14.305  0.00  0.00    +0.000 C 
BRANCH  18  19
ATOM     19  N   UNL     1      48.244   6.119  15.482  0.00  0.00    +0.000 N 
ATOM     20  C   UNL     1      49.311   6.612  16.187  0.00  0.00    +0.000 C 
ATOM     21  O   UNL     1      49.869   7.662  15.874  0.00  0.00    +0.000 OA
ATOM     22  H   UNL     1      47.970   5.149  15.606  0.00  0.00    +0.000 HD
BRANCH  20  23
ATOM     23  C   UNL     1      49.722   5.849  17.372  0.00  0.00    +0.000 A 
ATOM     24  C   UNL     1      50.916   5.142  17.354  0.00  0.00    +0.000 A 
ATOM     25  S   UNL     1      51.260   4.345  18.821  0.00  0.00    +0.000 S 
ATOM     26  C   UNL     1      49.802   4.880  19.517  0.00  0.00    +0.000 A 
ATOM     27  N   UNL     1      49.455   4.515  20.781  0.00  0.00    +0.000 NA
ATOM     28  C   UNL     1      48.316   4.976  21.175  0.00  0.00    +0.000 A 
ATOM     29  N   UNL     1      47.488   5.765  20.420  0.00  0.00    +0.000 N 
ATOM     30  C   UNL     1      47.808   6.183  19.150  0.00  0.00    +0.000 A 
ATOM     31  O   UNL     1      47.066   6.925  18.518  0.00  0.00    +0.000 OA
ATOM     32  C   UNL     1      49.075   5.677  18.651  0.00  0.00    +0.000 A 
ATOM     33  H   UNL     1      46.615   6.106  20.792  0.00  0.00    +0.000 HD
ENDBRANCH  20  23
ENDBRANCH  18  19
ENDBRANCH   4  18
TORSDOF 7
ENDMDL
MODEL 8
REMARK VINA RESULT:    -6.641      4.844      8.268
REMARK INTER + INTRA:         -10.385
REMARK INTER:                  -9.381
REMARK INTRA:                  -1.005
REMARK UNBOUND:                -1.027
REMARK  Name = 
REMARK  8 active torsions:
REMARK  status: ('A' for Active; 'I' for Inactive)
REMARK    1  A    between atoms: C_1  and  C_2
REMARK    2  A    between atoms: C_2  and  N_3
REMARK    3  A    between atoms: C_2  and  C_25
REMARK    4  A    between atoms: N_3  and  C_4
REMARK    5  A    between atoms: C_4  and  C_5
REMARK    6  A    between atoms: C_8  and  C_9
REMARK    7  A    between atoms: C_9  and  N_10
REMARK    8  A    between atoms: C_11  and  C_13
REMARK                            x       y       z     vdW  Elec       q    Type
REMARK                         _______ _______ _______ _____ _____    ______ ____
ROOT
ATOM      1  C   UNL     1      50.480   8.862  11.249  0.00  0.00    +0.000 A 
ATOM      2  C   UNL     1      50.111   7.577  11.673  0.00  0.00    +0.000 A 
ATOM      3  C   UNL     1      48.857   7.345  12.244  0.00  0.00    +0.000 A 
ATOM      4  C   UNL     1      47.942   8.396  12.408  0.00  0.00    +0.000 A 
ATOM      5  C   UNL     1      48.316   9.682  12.002  0.00  0.00    +0.000 A 
ATOM      6  C   UNL     1      49.566   9.911  11.423  0.00  0.00    +0.000 A 
ENDROOT
BRANCH   1   7
ATOM      7  C   UNL     1      51.856   9.140  10.683  0.00  0.00    +0.000 C 
BRANCH   7   8
ATOM      8  N   UNL     1      52.618   7.914  10.435  0.00  0.00    +0.000 NA
ATOM      9  H   UNL     1      53.208   7.736  11.249  0.00  0.00    +0.000 HD
BRANCH   8  11
ATOM     10  C   UNL     1      53.135   9.177   8.325  0.00  0.00    +0.000 C 
ATOM     11  C   UNL     1      53.512   8.022   9.267  0.00  0.00    +0.000 C 
BRANCH  11  12
ATOM     12  C   UNL     1      53.532   6.725   8.465  0.00  0.00    +0.000 A 
ATOM     13  C   UNL     1      52.609   6.506   7.441  0.00  0.00    +0.000 A 
ATOM     14  N   UNL     1      52.628   5.406   6.649  0.00  0.00    +0.000 NA
ATOM     15  C   UNL     1      53.602   4.517   6.928  0.00  0.00    +0.000 A 
ATOM     16  C   UNL     1      54.507   4.707   7.958  0.00  0.00    +0.000 A 
ATOM     17  N   UNL     1      54.497   5.809   8.744  0.00  0.00    +0.000 NA
ENDBRANCH  11  12
ENDBRANCH   8  11
ENDBRANCH   7   8
ENDBRANCH   1   7
BRANCH   4  18
ATOM     18  C   UNL     1      46.601   8.170  13.057  0.00  0.00    +0.000 C 
BRANCH  18  19
ATOM     19  N   UNL     1      46.082   6.867  12.733  0.00  0.00    +0.000 N 
ATOM     20  C   UNL     1      45.156   6.695  11.738  0.00  0.00    +0.000 C 
ATOM     21  O   UNL     1      44.757   7.633  11.050  0.00  0.00    +0.000 OA
ATOM     22  H   UNL     1      46.202   6.141  13.433  0.00  0.00    +0.000 HD
BRANCH  20  23
ATOM     23  C   UNL     1      44.702   5.320  11.496  0.00  0.00    +0.000 A 
ATOM     24  C   UNL     1      43.953   4.663  12.463  0.00  0.00    +0.000 A 
ATOM     25  S   UNL     1      43.477   3.091  12.006  0.00  0.00    +0.000 S 
ATOM     26  C   UNL     1      44.294   3.216  10.519  0.00  0.00    +0.000 A 
ATOM     27  N   UNL     1      44.313   2.176   9.641  0.00  0.00    +0.000 NA
ATOM     28  C   UNL     1      44.984   2.401   8.562  0.00  0.00    +0.000 A 
ATOM     29  N   UNL     1      45.643   3.570   8.281  0.00  0.00    +0.000 N 
ATOM     30  C   UNL     1      45.629   4.656   9.122  0.00  0.00    +0.000 A 
ATOM     31  O   UNL     1      46.191   5.703   8.820  0.00  0.00    +0.000 OA
ATOM     32  C   UNL     1      44.900   4.450  10.361  0.00  0.00    +0.000 A 
ATOM     33  H   UNL     1      46.140   3.688   7.411  0.00  0.00    +0.000 HD
ENDBRANCH  20  23
ENDBRANCH  18  19
ENDBRANCH   4  18
TORSDOF 7
ENDMDL
MODEL 9
REMARK VINA RESULT:    -6.335      7.882     10.561
REMARK INTER + INTRA:          -9.955
REMARK INTER:                  -8.947
REMARK INTRA:                  -1.007
REMARK UNBOUND:                -1.027
REMARK  Name = 
REMARK  8 active torsions:
REMARK  status: ('A' for Active; 'I' for Inactive)
REMARK    1  A    between atoms: C_1  and  C_2
REMARK    2  A    between atoms: C_2  and  N_3
REMARK    3  A    between atoms: C_2  and  C_25
REMARK    4  A    between atoms: N_3  and  C_4
REMARK    5  A    between atoms: C_4  and  C_5
REMARK    6  A    between atoms: C_8  and  C_9
REMARK    7  A    between atoms: C_9  and  N_10
REMARK    8  A    between atoms: C_11  and  C_13
REMARK                            x       y       z     vdW  Elec       q    Type
REMARK                         _______ _______ _______ _____ _____    ______ ____
ROOT
ATOM      1  C   UNL     1      44.899   7.710  11.696  0.00  0.00    +0.000 A 
ATOM      2  C   UNL     1      46.058   7.803  12.480  0.00  0.00    +0.000 A 
ATOM      3  C   UNL     1      46.526   6.698  13.198  0.00  0.00    +0.000 A 
ATOM      4  C   UNL     1      45.844   5.474  13.149  0.00  0.00    +0.000 A 
ATOM      5  C   UNL     1      44.677   5.385  12.381  0.00  0.00    +0.000 A 
ATOM      6  C   UNL     1      44.215   6.487  11.657  0.00  0.00    +0.000 A 
ENDROOT
BRANCH   1   7
ATOM      7  C   UNL     1      44.347   8.913  10.960  0.00  0.00    +0.000 C 
BRANCH   7   8
ATOM      8  N   UNL     1      43.907   9.972  11.871  0.00  0.00    +0.000 NA
ATOM      9  H   UNL     1      43.215   9.577  12.508  0.00  0.00    +0.000 HD
BRANCH   8  11
ATOM     10  C   UNL     1      43.927  12.451  11.460  0.00  0.00    +0.000 C 
ATOM     11  C   UNL     1      43.259  11.097  11.170  0.00  0.00    +0.000 C 
BRANCH  11  12
ATOM     12  C   UNL     1      41.781  11.194  11.530  0.00  0.00    +0.000 A 
ATOM     13  C   UNL     1      40.816  10.540  10.763  0.00  0.00    +0.000 A 
ATOM     14  N   UNL     1      39.498  10.531  11.080  0.00  0.00    +0.000 NA
ATOM     15  C   UNL     1      39.173  11.217  12.194  0.00  0.00    +0.000 A 
ATOM     16  C   UNL     1      40.115  11.893  12.950  0.00  0.00    +0.000 A 
ATOM     17  N   UNL     1      41.433  11.896  12.642  0.00  0.00    +0.000 NA
ENDBRANCH  11  12
ENDBRANCH   8  11
ENDBRANCH   7   8
ENDBRANCH   1   7
BRANCH   4  18
ATOM     18  C   UNL     1      46.313   4.285  13.946  0.00  0.00    +0.000 C 
BRANCH  18  19
ATOM     19  N   UNL     1      46.948   4.700  15.170  0.00  0.00    +0.000 N 
ATOM     20  C   UNL     1      47.804   3.872  15.847  0.00  0.00    +0.000 C 
ATOM     21  O   UNL     1      48.103   2.758  15.423  0.00  0.00    +0.000 OA
ATOM     22  H   UNL     1      46.533   5.492  15.653  0.00  0.00    +0.000 HD
BRANCH  20  23
ATOM     23  C   UNL     1      48.394   4.407  17.081  0.00  0.00    +0.000 A 
ATOM     24  C   UNL     1      48.132   3.784  18.293  0.00  0.00    +0.000 A 
ATOM     25  S   UNL     1      48.924   4.508  19.618  0.00  0.00    +0.000 S 
ATOM     26  C   UNL     1      49.609   5.707  18.623  0.00  0.00    +0.000 A 
ATOM     27  N   UNL     1      50.392   6.688  19.148  0.00  0.00    +0.000 NA
ATOM     28  C   UNL     1      50.830   7.541  18.284  0.00  0.00    +0.000 A 
ATOM     29  N   UNL     1      50.553   7.507  16.942  0.00  0.00    +0.000 N 
ATOM     30  C   UNL     1      49.792   6.520  16.362  0.00  0.00    +0.000 A 
ATOM     31  O   UNL     1      49.600   6.493  15.152  0.00  0.00    +0.000 OA
ATOM     32  C   UNL     1      49.260   5.543  17.295  0.00  0.00    +0.000 A 
ATOM     33  H   UNL     1      50.938   8.197  16.316  0.00  0.00    +0.000 HD
ENDBRANCH  20  23
ENDBRANCH  18  19
ENDBRANCH   4  18
TORSDOF 7
ENDMDL
