MODEL 1
REMARK VINA RESULT:    -7.426      0.000      0.000
REMARK INTER + INTRA:         -10.363
REMARK INTER:                  -9.597
REMARK INTRA:                  -0.766
REMARK UNBOUND:                -0.766
REMARK  Name = 
REMARK  5 active torsions:
REMARK  status: ('A' for Active; 'I' for Inactive)
REMARK    1  A    between atoms: C_2  and  C_4
REMARK    2  A    between atoms: C_8  and  S_9
REMARK    3  A    between atoms: S_9  and  C_10
REMARK    4  A    between atoms: C_10  and  C_11
REMARK    5  A    between atoms: C_16  and  N_17
REMARK                            x       y       z     vdW  Elec       q    Type
REMARK                         _______ _______ _______ _____ _____    ______ ____
ROOT
ATOM      1  C   UNL     1      45.293   4.987  12.235  0.00  0.00    +0.000 A 
ATOM      2  C   UNL     1      44.384   5.979  11.854  0.00  0.00    +0.000 A 
ATOM      3  C   UNL     1      44.751   7.326  11.907  0.00  0.00    +0.000 A 
ATOM      4  C   UNL     1      46.024   7.688  12.351  0.00  0.00    +0.000 A 
ATOM      5  F   UNL     1      46.306   8.996  12.467  0.00  0.00    +0.000 F 
ATOM      6  C   UNL     1      46.975   6.724  12.729  0.00  0.00    +0.000 A 
ATOM      7  C   UNL     1      46.592   5.383  12.601  0.00  0.00    +0.000 A 
ENDROOT
BRANCH   6   8
ATOM      8  N   UNL     1      48.191   7.076  13.304  0.00  0.00    +0.000 N 
ATOM      9  C   UNL     1      48.529   6.513  14.622  0.00  0.00    +0.000 C 
ATOM     10  C   UNL     1      49.594   7.399  15.299  0.00  0.00    +0.000 C 
ATOM     11  N   UNL     1      50.813   7.578  14.481  0.00  0.00    +0.000 NA
ATOM     12  C   UNL     1      50.426   8.084  13.140  0.00  0.00    +0.000 C 
ATOM     13  C   UNL     1      49.357   7.219  12.420  0.00  0.00    +0.000 C 
ATOM     14  H   UNL     1      51.243   6.663  14.359  0.00  0.00    +0.000 HD
ENDBRANCH   6   8
BRANCH   1  15
ATOM     15  C   UNL     1      44.885   3.525  12.232  0.00  0.00    +0.000 C 
BRANCH  15  16
ATOM     16  S   UNL     1      43.933   3.055  10.735  0.00  0.00    +0.000 S 
BRANCH  16  21
ATOM     17  C   UNL     1      46.483   2.128   7.760  0.00  0.00    +0.000 A 
ATOM     18  C   UNL     1      46.797   3.357   7.173  0.00  0.00    +0.000 A 
ATOM     19  C   UNL     1      46.265   4.534   7.698  0.00  0.00    +0.000 A 
ATOM     20  C   UNL     1      45.405   4.488   8.801  0.00  0.00    +0.000 A 
ATOM     21  C   UNL     1      45.060   3.264   9.375  0.00  0.00    +0.000 A 
ATOM     22  C   UNL     1      45.613   2.089   8.852  0.00  0.00    +0.000 A 
BRANCH  17  24
ATOM     23  N   UNL     1      47.803   0.924   6.111  0.00  0.00    +0.000 N 
ATOM     24  C   UNL     1      47.026   0.848   7.235  0.00  0.00    +0.000 C 
ATOM     25  O   UNL     1      46.822  -0.218   7.800  0.00  0.00    +0.000 OA
ATOM     26  H   UNL     1      48.250   0.062   5.822  0.00  0.00    +0.000 HD
ATOM     27  H   UNL     1      48.204   1.791   5.791  0.00  0.00    +0.000 HD
ENDBRANCH  17  24
ENDBRANCH  16  21
ENDBRANCH  15  16
ENDBRANCH   1  15
TORSDOF 5
ENDMDL
MODEL 2
REMARK VINA RESULT:    -6.733      3.656      7.569
REMARK INTER + INTRA:          -9.468
REMARK INTER:                  -8.644
REMARK INTRA:                  -0.823
REMARK UNBOUND:                -0.766
REMARK  Name = 
REMARK  5 active torsions:
REMARK  status: ('A' for Active; 'I' for Inactive)
REMARK    1  A    between atoms: C_2  and  C_4
REMARK    2  A    between atoms: C_8  and  S_9
REMARK    3  A    between atoms: S_9  and  C_10
REMARK    4  A    between atoms: C_10  and  C_11
REMARK    5  A    between atoms: C_16  and  N_17
REMARK                            x       y       z     vdW  Elec       q    Type
REMARK                         _______ _______ _______ _____ _____    ______ ____
ROOT
ATOM      1  C   UNL     1      47.706   7.200  12.960  0.00  0.00    +0.000 A 
ATOM      2  C   UNL     1      47.095   8.459  12.978  0.00  0.00    +0.000 A 
ATOM      3  C   UNL     1      45.804   8.620  12.469  0.00  0.00    +0.000 A 
ATOM      4  C   UNL     1      45.123   7.527  11.931  0.00  0.00    +0.000 A 
ATOM      5  F   UNL     1      43.918   7.743  11.376  0.00  0.00    +0.000 F 
ATOM      6  C   UNL     1      45.691   6.242  11.906  0.00  0.00    +0.000 A 
ATOM      7  C   UNL     1      46.959   6.108  12.484  0.00  0.00    +0.000 A 
ENDROOT
BRANCH   6   8
ATOM      8  N   UNL     1      45.081   5.180  11.249  0.00  0.00    +0.000 N 
ATOM      9  C   UNL     1      45.426   4.941   9.837  0.00  0.00    +0.000 C 
ATOM     10  C   UNL     1      44.306   4.120   9.167  0.00  0.00    +0.000 C 
ATOM     11  N   UNL     1      44.025   2.843   9.858  0.00  0.00    +0.000 NA
ATOM     12  C   UNL     1      43.746   3.117  11.290  0.00  0.00    +0.000 C 
ATOM     13  C   UNL     1      44.851   3.939  12.004  0.00  0.00    +0.000 C 
ATOM     14  H   UNL     1      44.864   2.269   9.806  0.00  0.00    +0.000 HD
ENDBRANCH   6   8
BRANCH   1  15
ATOM     15  C   UNL     1      49.128   7.027  13.461  0.00  0.00    +0.000 C 
BRANCH  15  16
ATOM     16  S   UNL     1      49.481   8.024  14.961  0.00  0.00    +0.000 S 
BRANCH  16  21
ATOM     17  C   UNL     1      47.937   4.924  17.015  0.00  0.00    +0.000 A 
ATOM     18  C   UNL     1      47.849   5.386  18.331  0.00  0.00    +0.000 A 
ATOM     19  C   UNL     1      48.226   6.693  18.635  0.00  0.00    +0.000 A 
ATOM     20  C   UNL     1      48.707   7.540  17.630  0.00  0.00    +0.000 A 
ATOM     21  C   UNL     1      48.829   7.079  16.319  0.00  0.00    +0.000 A 
ATOM     22  C   UNL     1      48.431   5.771  16.020  0.00  0.00    +0.000 A 
BRANCH  17  24
ATOM     23  N   UNL     1      46.985   2.773  17.629  0.00  0.00    +0.000 N 
ATOM     24  C   UNL     1      47.547   3.539  16.644  0.00  0.00    +0.000 C 
ATOM     25  O   UNL     1      47.685   3.114  15.505  0.00  0.00    +0.000 OA
ATOM     26  H   UNL     1      46.631   1.868  17.340  0.00  0.00    +0.000 HD
ATOM     27  H   UNL     1      46.617   3.172  18.478  0.00  0.00    +0.000 HD
ENDBRANCH  17  24
ENDBRANCH  16  21
ENDBRANCH  15  16
ENDBRANCH   1  15
TORSDOF 5
ENDMDL
MODEL 3
REMARK VINA RESULT:    -6.517      4.473      7.311
REMARK INTER + INTRA:          -9.187
REMARK INTER:                  -8.365
REMARK INTRA:                  -0.823
REMARK UNBOUND:                -0.766
REMARK  Name = 
REMARK  5 active torsions:
REMARK  status: ('A' for Active; 'I' for Inactive)
REMARK    1  A    between atoms: C_2  and  C_4
REMARK    2  A    between atoms: C_8  and  S_9
REMARK    3  A    between atoms: S_9  and  C_10
REMARK    4  A    between atoms: C_10  and  C_11
REMARK    5  A    between atoms: C_16  and  N_17
REMARK                            x       y       z     vdW  Elec       q    Type
REMARK                         _______ _______ _______ _____ _____    ______ ____
ROOT
ATOM      1  C   UNL     1      47.908   7.595  12.489  0.00  0.00    +0.000 A 
ATOM      2  C   UNL     1      48.494   7.210  13.700  0.00  0.00    +0.000 A 
ATOM      3  C   UNL     1      48.022   6.087  14.383  0.00  0.00    +0.000 A 
ATOM      4  C   UNL     1      46.955   5.350  13.865  0.00  0.00    +0.000 A 
ATOM      5  F   UNL     1      46.478   4.328  14.595  0.00  0.00    +0.000 F 
ATOM      6  C   UNL     1      46.347   5.690  12.644  0.00  0.00    +0.000 A 
ATOM      7  C   UNL     1      46.890   6.782  11.958  0.00  0.00    +0.000 A 
ENDROOT
BRANCH   6   8
ATOM      8  N   UNL     1      45.199   5.050  12.191  0.00  0.00    +0.000 N 
ATOM      9  C   UNL     1      45.290   3.624  11.831  0.00  0.00    +0.000 C 
ATOM     10  C   UNL     1      44.129   3.260  10.884  0.00  0.00    +0.000 C 
ATOM     11  N   UNL     1      42.797   3.571  11.446  0.00  0.00    +0.000 NA
ATOM     12  C   UNL     1      42.765   4.997  11.856  0.00  0.00    +0.000 C 
ATOM     13  C   UNL     1      43.916   5.407  12.813  0.00  0.00    +0.000 C 
ATOM     14  H   UNL     1      42.669   3.002  12.281  0.00  0.00    +0.000 HD
ENDBRANCH   6   8
BRANCH   1  15
ATOM     15  C   UNL     1      48.378   8.844  11.767  0.00  0.00    +0.000 C 
BRANCH  15  16
ATOM     16  S   UNL     1      47.676  10.383  12.479  0.00  0.00    +0.000 S 
BRANCH  16  21
ATOM     17  C   UNL     1      44.151  10.536  10.539  0.00  0.00    +0.000 A 
ATOM     18  C   UNL     1      44.282  11.616   9.661  0.00  0.00    +0.000 A 
ATOM     19  C   UNL     1      45.483  12.321   9.601  0.00  0.00    +0.000 A 
ATOM     20  C   UNL     1      46.554  11.961  10.427  0.00  0.00    +0.000 A 
ATOM     21  C   UNL     1      46.423  10.905  11.330  0.00  0.00    +0.000 A 
ATOM     22  C   UNL     1      45.220  10.192  11.370  0.00  0.00    +0.000 A 
BRANCH  17  24
ATOM     23  N   UNL     1      43.013   8.416  10.882  0.00  0.00    +0.000 N 
ATOM     24  C   UNL     1      42.890   9.756  10.638  0.00  0.00    +0.000 C 
ATOM     25  O   UNL     1      41.793  10.291  10.543  0.00  0.00    +0.000 OA
ATOM     26  H   UNL     1      42.148   7.914  11.049  0.00  0.00    +0.000 HD
ATOM     27  H   UNL     1      43.867   8.007  11.228  0.00  0.00    +0.000 HD
ENDBRANCH  17  24
ENDBRANCH  16  21
ENDBRANCH  15  16
ENDBRANCH   1  15
TORSDOF 5
ENDMDL
MODEL 4
REMARK VINA RESULT:    -6.400      4.582      8.288
REMARK INTER + INTRA:          -9.036
REMARK INTER:                  -8.413
REMARK INTRA:                  -0.623
REMARK UNBOUND:                -0.766
REMARK  Name = 
REMARK  5 active torsions:
REMARK  status: ('A' for Active; 'I' for Inactive)
REMARK    1  A    between atoms: C_2  and  C_4
REMARK    2  A    between atoms: C_8  and  S_9
REMARK    3  A    between atoms: S_9  and  C_10
REMARK    4  A    between atoms: C_10  and  C_11
REMARK    5  A    between atoms: C_16  and  N_17
REMARK                            x       y       z     vdW  Elec       q    Type
REMARK                         _______ _______ _______ _____ _____    ______ ____
ROOT
ATOM      1  C   UNL     1      47.748   5.648  15.049  0.00  0.00    +0.000 A 
ATOM      2  C   UNL     1      48.608   6.468  14.311  0.00  0.00    +0.000 A 
ATOM      3  C   UNL     1      48.309   6.784  12.983  0.00  0.00    +0.000 A 
ATOM      4  C   UNL     1      47.156   6.273  12.384  0.00  0.00    +0.000 A 
ATOM      5  F   UNL     1      46.951   6.533  11.083  0.00  0.00    +0.000 F 
ATOM      6  C   UNL     1      46.256   5.458  13.092  0.00  0.00    +0.000 A 
ATOM      7  C   UNL     1      46.556   5.217  14.439  0.00  0.00    +0.000 A 
ENDROOT
BRANCH   6   8
ATOM      8  N   UNL     1      45.183   4.833  12.469  0.00  0.00    +0.000 N 
ATOM      9  C   UNL     1      45.293   3.395  12.165  0.00  0.00    +0.000 C 
ATOM     10  C   UNL     1      44.296   3.031  11.046  0.00  0.00    +0.000 C 
ATOM     11  N   UNL     1      42.898   3.389  11.369  0.00  0.00    +0.000 NA
ATOM     12  C   UNL     1      42.838   4.827  11.733  0.00  0.00    +0.000 C 
ATOM     13  C   UNL     1      43.824   5.237  12.858  0.00  0.00    +0.000 C 
ATOM     14  H   UNL     1      42.618   2.847  12.184  0.00  0.00    +0.000 HD
ENDBRANCH   6   8
BRANCH   1  15
ATOM     15  C   UNL     1      48.092   5.255  16.474  0.00  0.00    +0.000 C 
BRANCH  15  16
ATOM     16  S   UNL     1      49.348   6.358  17.232  0.00  0.00    +0.000 S 
BRANCH  16  21
ATOM     17  C   UNL     1      51.511   3.000  17.739  0.00  0.00    +0.000 A 
ATOM     18  C   UNL     1      52.702   3.437  18.325  0.00  0.00    +0.000 A 
ATOM     19  C   UNL     1      52.873   4.787  18.627  0.00  0.00    +0.000 A 
ATOM     20  C   UNL     1      51.863   5.709  18.332  0.00  0.00    +0.000 A 
ATOM     21  C   UNL     1      50.683   5.289  17.718  0.00  0.00    +0.000 A 
ATOM     22  C   UNL     1      50.512   3.929  17.435  0.00  0.00    +0.000 A 
BRANCH  17  24
ATOM     23  N   UNL     1      51.995   0.648  18.113  0.00  0.00    +0.000 N 
ATOM     24  C   UNL     1      51.283   1.571  17.399  0.00  0.00    +0.000 C 
ATOM     25  O   UNL     1      50.471   1.233  16.548  0.00  0.00    +0.000 OA
ATOM     26  H   UNL     1      51.758  -0.323  17.945  0.00  0.00    +0.000 HD
ATOM     27  H   UNL     1      52.454   0.874  18.982  0.00  0.00    +0.000 HD
ENDBRANCH  17  24
ENDBRANCH  16  21
ENDBRANCH  15  16
ENDBRANCH   1  15
TORSDOF 5
ENDMDL
MODEL 5
REMARK VINA RESULT:    -6.262      4.022      7.514
REMARK INTER + INTRA:          -8.858
REMARK INTER:                  -8.067
REMARK INTRA:                  -0.790
REMARK UNBOUND:                -0.766
REMARK  Name = 
REMARK  5 active torsions:
REMARK  status: ('A' for Active; 'I' for Inactive)
REMARK    1  A    between atoms: C_2  and  C_4
REMARK    2  A    between atoms: C_8  and  S_9
REMARK    3  A    between atoms: S_9  and  C_10
REMARK    4  A    between atoms: C_10  and  C_11
REMARK    5  A    between atoms: C_16  and  N_17
REMARK                            x       y       z     vdW  Elec       q    Type
REMARK                         _______ _______ _______ _____ _____    ______ ____
ROOT
ATOM      1  C   UNL     1      48.125   7.404  14.045  0.00  0.00    +0.000 A 
ATOM      2  C   UNL     1      47.589   8.682  13.855  0.00  0.00    +0.000 A 
ATOM      3  C   UNL     1      46.383   8.843  13.167  0.00  0.00    +0.000 A 
ATOM      4  C   UNL     1      45.714   7.729  12.658  0.00  0.00    +0.000 A 
ATOM      5  F   UNL     1      44.604   7.936  11.931  0.00  0.00    +0.000 F 
ATOM      6  C   UNL     1      46.207   6.426  12.838  0.00  0.00    +0.000 A 
ATOM      7  C   UNL     1      47.383   6.300  13.588  0.00  0.00    +0.000 A 
ENDROOT
BRANCH   6   8
ATOM      8  N   UNL     1      45.626   5.326  12.217  0.00  0.00    +0.000 N 
ATOM      9  C   UNL     1      45.616   5.280  10.745  0.00  0.00    +0.000 C 
ATOM     10  C   UNL     1      44.507   4.319  10.271  0.00  0.00    +0.000 C 
ATOM     11  N   UNL     1      44.632   2.958  10.833  0.00  0.00    +0.000 NA
ATOM     12  C   UNL     1      44.705   3.050  12.313  0.00  0.00    +0.000 C 
ATOM     13  C   UNL     1      45.811   4.005  12.835  0.00  0.00    +0.000 C 
ATOM     14  H   UNL     1      45.509   2.562  10.500  0.00  0.00    +0.000 HD
ENDBRANCH   6   8
BRANCH   1  15
ATOM     15  C   UNL     1      49.460   7.224  14.743  0.00  0.00    +0.000 C 
BRANCH  15  16
ATOM     16  S   UNL     1      49.333   7.366  16.569  0.00  0.00    +0.000 S 
BRANCH  16  21
ATOM     17  C   UNL     1      49.281   3.408  17.301  0.00  0.00    +0.000 A 
ATOM     18  C   UNL     1      48.087   3.197  17.998  0.00  0.00    +0.000 A 
ATOM     19  C   UNL     1      47.224   4.266  18.236  0.00  0.00    +0.000 A 
ATOM     20  C   UNL     1      47.556   5.551  17.795  0.00  0.00    +0.000 A 
ATOM     21  C   UNL     1      48.759   5.779  17.127  0.00  0.00    +0.000 A 
ATOM     22  C   UNL     1      49.611   4.697  16.876  0.00  0.00    +0.000 A 
BRANCH  17  24
ATOM     23  N   UNL     1      51.261   2.136  17.909  0.00  0.00    +0.000 N 
ATOM     24  C   UNL     1      50.231   2.300  17.024  0.00  0.00    +0.000 C 
ATOM     25  O   UNL     1      50.080   1.545  16.072  0.00  0.00    +0.000 OA
ATOM     26  H   UNL     1      51.842   1.317  17.768  0.00  0.00    +0.000 HD
ATOM     27  H   UNL     1      51.256   2.554  18.826  0.00  0.00    +0.000 HD
ENDBRANCH  17  24
ENDBRANCH  16  21
ENDBRANCH  15  16
ENDBRANCH   1  15
TORSDOF 5
ENDMDL
MODEL 6
REMARK VINA RESULT:    -6.254      4.558      6.305
REMARK INTER + INTRA:          -8.848
REMARK INTER:                  -7.815
REMARK INTRA:                  -1.033
REMARK UNBOUND:                -0.766
REMARK  Name = 
REMARK  5 active torsions:
REMARK  status: ('A' for Active; 'I' for Inactive)
REMARK    1  A    between atoms: C_2  and  C_4
REMARK    2  A    between atoms: C_8  and  S_9
REMARK    3  A    between atoms: S_9  and  C_10
REMARK    4  A    between atoms: C_10  and  C_11
REMARK    5  A    between atoms: C_16  and  N_17
REMARK                            x       y       z     vdW  Elec       q    Type
REMARK                         _______ _______ _______ _____ _____    ______ ____
ROOT
ATOM      1  C   UNL     1      48.678   8.785  16.006  0.00  0.00    +0.000 A 
ATOM      2  C   UNL     1      48.002   9.482  17.014  0.00  0.00    +0.000 A 
ATOM      3  C   UNL     1      47.809   8.894  18.266  0.00  0.00    +0.000 A 
ATOM      4  C   UNL     1      48.281   7.604  18.514  0.00  0.00    +0.000 A 
ATOM      5  F   UNL     1      48.000   7.044  19.702  0.00  0.00    +0.000 F 
ATOM      6  C   UNL     1      48.978   6.873  17.537  0.00  0.00    +0.000 A 
ATOM      7  C   UNL     1      49.209   7.520  16.317  0.00  0.00    +0.000 A 
ENDROOT
BRANCH   6   8
ATOM      8  N   UNL     1      49.328   5.540  17.724  0.00  0.00    +0.000 N 
ATOM      9  C   UNL     1      48.310   4.508  17.462  0.00  0.00    +0.000 C 
ATOM     10  C   UNL     1      48.688   3.215  18.213  0.00  0.00    +0.000 C 
ATOM     11  N   UNL     1      50.037   2.714  17.872  0.00  0.00    +0.000 NA
ATOM     12  C   UNL     1      51.026   3.801  18.086  0.00  0.00    +0.000 C 
ATOM     13  C   UNL     1      50.685   5.121  17.346  0.00  0.00    +0.000 C 
ATOM     14  H   UNL     1      50.041   2.477  16.882  0.00  0.00    +0.000 HD
ENDBRANCH   6   8
BRANCH   1  15
ATOM     15  C   UNL     1      48.845   9.395  14.626  0.00  0.00    +0.000 C 
BRANCH  15  16
ATOM     16  S   UNL     1      49.145   8.136  13.325  0.00  0.00    +0.000 S 
BRANCH  16  21
ATOM     17  C   UNL     1      46.431   5.165  13.182  0.00  0.00    +0.000 A 
ATOM     18  C   UNL     1      45.225   5.807  12.887  0.00  0.00    +0.000 A 
ATOM     19  C   UNL     1      45.205   7.186  12.680  0.00  0.00    +0.000 A 
ATOM     20  C   UNL     1      46.385   7.931  12.780  0.00  0.00    +0.000 A 
ATOM     21  C   UNL     1      47.588   7.305  13.104  0.00  0.00    +0.000 A 
ATOM     22  C   UNL     1      47.602   5.918  13.293  0.00  0.00    +0.000 A 
BRANCH  17  24
ATOM     23  N   UNL     1      45.546   2.934  12.799  0.00  0.00    +0.000 N 
ATOM     24  C   UNL     1      46.501   3.699  13.411  0.00  0.00    +0.000 C 
ATOM     25  O   UNL     1      47.391   3.194  14.083  0.00  0.00    +0.000 OA
ATOM     26  H   UNL     1      45.664   1.930  12.879  0.00  0.00    +0.000 HD
ATOM     27  H   UNL     1      44.982   3.281  12.040  0.00  0.00    +0.000 HD
ENDBRANCH  17  24
ENDBRANCH  16  21
ENDBRANCH  15  16
ENDBRANCH   1  15
TORSDOF 5
ENDMDL
MODEL 7
REMARK VINA RESULT:    -6.135      1.412      1.843
REMARK INTER + INTRA:          -8.695
REMARK INTER:                  -8.178
REMARK INTRA:                  -0.517
REMARK UNBOUND:                -0.766
REMARK  Name = 
REMARK  5 active torsions:
REMARK  status: ('A' for Active; 'I' for Inactive)
REMARK    1  A    between atoms: C_2  and  C_4
REMARK    2  A    between atoms: C_8  and  S_9
REMARK    3  A    between atoms: S_9  and  C_10
REMARK    4  A    between atoms: C_10  and  C_11
REMARK    5  A    between atoms: C_16  and  N_17
REMARK                            x       y       z     vdW  Elec       q    Type
REMARK                         _______ _______ _______ _____ _____    ______ ____
ROOT
ATOM      1  C   UNL     1      45.380   6.187  11.520  0.00  0.00    +0.000 A 
ATOM      2  C   UNL     1      44.563   7.317  11.412  0.00  0.00    +0.000 A 
ATOM      3  C   UNL     1      45.066   8.581  11.730  0.00  0.00    +0.000 A 
ATOM      4  C   UNL     1      46.385   8.719  12.167  0.00  0.00    +0.000 A 
ATOM      5  F   UNL     1      46.802   9.939  12.543  0.00  0.00    +0.000 F 
ATOM      6  C   UNL     1      47.246   7.614  12.275  0.00  0.00    +0.000 A 
ATOM      7  C   UNL     1      46.725   6.374  11.886  0.00  0.00    +0.000 A 
ENDROOT
BRANCH   6   8
ATOM      8  N   UNL     1      48.512   7.720  12.840  0.00  0.00    +0.000 N 
ATOM      9  C   UNL     1      48.828   6.879  14.008  0.00  0.00    +0.000 C 
ATOM     10  C   UNL     1      50.007   7.502  14.783  0.00  0.00    +0.000 C 
ATOM     11  N   UNL     1      51.210   7.709  13.950  0.00  0.00    +0.000 NA
ATOM     12  C   UNL     1      50.839   8.503  12.752  0.00  0.00    +0.000 C 
ATOM     13  C   UNL     1      49.658   7.910  11.939  0.00  0.00    +0.000 C 
ATOM     14  H   UNL     1      51.532   6.796  13.634  0.00  0.00    +0.000 HD
ENDBRANCH   6   8
BRANCH   1  15
ATOM     15  C   UNL     1      44.826   4.805  11.228  0.00  0.00    +0.000 C 
BRANCH  15  16
ATOM     16  S   UNL     1      44.139   4.657   9.533  0.00  0.00    +0.000 S 
BRANCH  16  21
ATOM     17  C   UNL     1      46.555   2.487   7.154  0.00  0.00    +0.000 A 
ATOM     18  C   UNL     1      46.395   1.171   7.599  0.00  0.00    +0.000 A 
ATOM     19  C   UNL     1      45.501   0.892   8.631  0.00  0.00    +0.000 A 
ATOM     20  C   UNL     1      44.773   1.925   9.233  0.00  0.00    +0.000 A 
ATOM     21  C   UNL     1      44.948   3.245   8.817  0.00  0.00    +0.000 A 
ATOM     22  C   UNL     1      45.835   3.514   7.768  0.00  0.00    +0.000 A 
BRANCH  17  24
ATOM     23  N   UNL     1      48.831   2.700   6.328  0.00  0.00    +0.000 N 
ATOM     24  C   UNL     1      47.497   2.832   6.058  0.00  0.00    +0.000 C 
ATOM     25  O   UNL     1      47.100   3.182   4.954  0.00  0.00    +0.000 OA
ATOM     26  H   UNL     1      49.459   2.840   5.544  0.00  0.00    +0.000 HD
ATOM     27  H   UNL     1      49.173   2.168   7.113  0.00  0.00    +0.000 HD
ENDBRANCH  17  24
ENDBRANCH  16  21
ENDBRANCH  15  16
ENDBRANCH   1  15
TORSDOF 5
ENDMDL
MODEL 8
REMARK VINA RESULT:    -6.077      3.195      4.758
REMARK INTER + INTRA:          -8.619
REMARK INTER:                  -8.104
REMARK INTRA:                  -0.516
REMARK UNBOUND:                -0.766
REMARK  Name = 
REMARK  5 active torsions:
REMARK  status: ('A' for Active; 'I' for Inactive)
REMARK    1  A    between atoms: C_2  and  C_4
REMARK    2  A    between atoms: C_8  and  S_9
REMARK    3  A    between atoms: S_9  and  C_10
REMARK    4  A    between atoms: C_10  and  C_11
REMARK    5  A    between atoms: C_16  and  N_17
REMARK                            x       y       z     vdW  Elec       q    Type
REMARK                         _______ _______ _______ _____ _____    ______ ____
ROOT
ATOM      1  C   UNL     1      47.944   7.567  13.886  0.00  0.00    +0.000 A 
ATOM      2  C   UNL     1      48.182   8.870  14.337  0.00  0.00    +0.000 A 
ATOM      3  C   UNL     1      48.737   9.085  15.601  0.00  0.00    +0.000 A 
ATOM      4  C   UNL     1      49.046   8.000  16.424  0.00  0.00    +0.000 A 
ATOM      5  F   UNL     1      49.498   8.254  17.663  0.00  0.00    +0.000 F 
ATOM      6  C   UNL     1      48.838   6.674  16.006  0.00  0.00    +0.000 A 
ATOM      7  C   UNL     1      48.341   6.497  14.709  0.00  0.00    +0.000 A 
ENDROOT
BRANCH   6   8
ATOM      8  N   UNL     1      49.009   5.596  16.866  0.00  0.00    +0.000 N 
ATOM      9  C   UNL     1      48.100   4.445  16.734  0.00  0.00    +0.000 C 
ATOM     10  C   UNL     1      48.091   3.644  18.052  0.00  0.00    +0.000 C 
ATOM     11  N   UNL     1      49.437   3.198  18.474  0.00  0.00    +0.000 NA
ATOM     12  C   UNL     1      50.340   4.375  18.533  0.00  0.00    +0.000 C 
ATOM     13  C   UNL     1      50.382   5.208  17.225  0.00  0.00    +0.000 C 
ATOM     14  H   UNL     1      49.793   2.565  17.761  0.00  0.00    +0.000 HD
ENDBRANCH   6   8
BRANCH   1  15
ATOM     15  C   UNL     1      47.291   7.325  12.538  0.00  0.00    +0.000 C 
BRANCH  15  16
ATOM     16  S   UNL     1      45.473   7.573  12.572  0.00  0.00    +0.000 S 
BRANCH  16  21
ATOM     17  C   UNL     1      44.679   4.536  10.052  0.00  0.00    +0.000 A 
ATOM     18  C   UNL     1      43.862   3.674  10.790  0.00  0.00    +0.000 A 
ATOM     19  C   UNL     1      43.488   4.014  12.089  0.00  0.00    +0.000 A 
ATOM     20  C   UNL     1      43.938   5.209  12.662  0.00  0.00    +0.000 A 
ATOM     21  C   UNL     1      44.779   6.061  11.946  0.00  0.00    +0.000 A 
ATOM     22  C   UNL     1      45.135   5.720  10.636  0.00  0.00    +0.000 A 
BRANCH  17  24
ATOM     23  N   UNL     1      44.355   3.291   7.989  0.00  0.00    +0.000 N 
ATOM     24  C   UNL     1      45.104   4.215   8.664  0.00  0.00    +0.000 C 
ATOM     25  O   UNL     1      46.054   4.777   8.136  0.00  0.00    +0.000 OA
ATOM     26  H   UNL     1      44.591   3.155   7.013  0.00  0.00    +0.000 HD
ATOM     27  H   UNL     1      43.431   3.021   8.290  0.00  0.00    +0.000 HD
ENDBRANCH  17  24
ENDBRANCH  16  21
ENDBRANCH  15  16
ENDBRANCH   1  15
TORSDOF 5
ENDMDL
MODEL 9
REMARK VINA RESULT:    -6.033      3.247      4.747
REMARK INTER + INTRA:          -8.563
REMARK INTER:                  -7.832
REMARK INTRA:                  -0.730
REMARK UNBOUND:                -0.766
REMARK  Name = 
REMARK  5 active torsions:
REMARK  status: ('A' for Active; 'I' for Inactive)
REMARK    1  A    between atoms: C_2  and  C_4
REMARK    2  A    between atoms: C_8  and  S_9
REMARK    3  A    between atoms: S_9  and  C_10
REMARK    4  A    between atoms: C_10  and  C_11
REMARK    5  A    between atoms: C_16  and  N_17
REMARK                            x       y       z     vdW  Elec       q    Type
REMARK                         _______ _______ _______ _____ _____    ______ ____
ROOT
ATOM      1  C   UNL     1      47.645   5.757  13.826  0.00  0.00    +0.000 A 
ATOM      2  C   UNL     1      47.055   4.488  13.823  0.00  0.00    +0.000 A 
ATOM      3  C   UNL     1      47.050   3.713  14.986  0.00  0.00    +0.000 A 
ATOM      4  C   UNL     1      47.644   4.199  16.153  0.00  0.00    +0.000 A 
ATOM      5  F   UNL     1      47.692   3.388  17.223  0.00  0.00    +0.000 F 
ATOM      6  C   UNL     1      48.234   5.473  16.206  0.00  0.00    +0.000 A 
ATOM      7  C   UNL     1      48.161   6.245  15.040  0.00  0.00    +0.000 A 
ENDROOT
BRANCH   6   8
ATOM      8  N   UNL     1      48.948   5.908  17.316  0.00  0.00    +0.000 N 
ATOM      9  C   UNL     1      50.346   5.468  17.464  0.00  0.00    +0.000 C 
ATOM     10  C   UNL     1      50.767   5.590  18.942  0.00  0.00    +0.000 C 
ATOM     11  N   UNL     1      50.590   6.952  19.491  0.00  0.00    +0.000 NA
ATOM     12  C   UNL     1      49.188   7.386  19.265  0.00  0.00    +0.000 C 
ATOM     13  C   UNL     1      48.723   7.282  17.789  0.00  0.00    +0.000 C 
ATOM     14  H   UNL     1      51.200   7.579  18.971  0.00  0.00    +0.000 HD
ENDBRANCH   6   8
BRANCH   1  15
ATOM     15  C   UNL     1      47.702   6.583  12.554  0.00  0.00    +0.000 C 
BRANCH  15  16
ATOM     16  S   UNL     1      46.117   7.430  12.184  0.00  0.00    +0.000 S 
BRANCH  16  21
ATOM     17  C   UNL     1      44.186   4.264  10.616  0.00  0.00    +0.000 A 
ATOM     18  C   UNL     1      43.186   3.969  11.546  0.00  0.00    +0.000 A 
ATOM     19  C   UNL     1      43.038   4.763  12.683  0.00  0.00    +0.000 A 
ATOM     20  C   UNL     1      43.898   5.845  12.903  0.00  0.00    +0.000 A 
ATOM     21  C   UNL     1      44.919   6.129  11.997  0.00  0.00    +0.000 A 
ATOM     22  C   UNL     1      45.048   5.338  10.850  0.00  0.00    +0.000 A 
BRANCH  17  24
ATOM     23  N   UNL     1      44.334   4.109   8.194  0.00  0.00    +0.000 N 
ATOM     24  C   UNL     1      44.381   3.447   9.390  0.00  0.00    +0.000 C 
ATOM     25  O   UNL     1      44.610   2.246   9.447  0.00  0.00    +0.000 OA
ATOM     26  H   UNL     1      44.569   3.561   7.374  0.00  0.00    +0.000 HD
ATOM     27  H   UNL     1      44.419   5.111   8.129  0.00  0.00    +0.000 HD
ENDBRANCH  17  24
ENDBRANCH  16  21
ENDBRANCH  15  16
ENDBRANCH   1  15
TORSDOF 5
ENDMDL
