MODEL 1
REMARK VINA RESULT:    -9.190      0.000      0.000
REMARK INTER + INTRA:         -12.770
REMARK INTER:                 -12.413
REMARK INTRA:                  -0.357
REMARK UNBOUND:                -0.357
REMARK  Name = 
REMARK  6 active torsions:
REMARK  status: ('A' for Active; 'I' for Inactive)
REMARK    1  A    between atoms: C_2  and  C_4
REMARK    2  A    between atoms: C_7  and  C_8
REMARK    3  A    between atoms: C_8  and  N_9
REMARK    4  A    between atoms: C_12  and  C_13
REMARK    5  A    between atoms: C_13  and  N_14
REMARK    6  A    between atoms: C_15  and  C_17
REMARK                            x       y       z     vdW  Elec       q    Type
REMARK                         _______ _______ _______ _____ _____    ______ ____
ROOT
ATOM      1  N   UNL     1      44.237   4.913  10.978  0.00  0.00    +0.000 NA
ATOM      2  C   UNL     1      43.679   4.770  12.323  0.00  0.00    +0.000 C 
ATOM      3  C   UNL     1      44.179   5.841  13.289  0.00  0.00    +0.000 C 
ATOM      4  C   UNL     1      45.709   5.897  13.345  0.00  0.00    +0.000 C 
ATOM      5  C   UNL     1      46.205   6.161  11.918  0.00  0.00    +0.000 C 
ATOM      6  C   UNL     1      45.684   5.120  10.917  0.00  0.00    +0.000 C 
ENDROOT
BRANCH   1   7
ATOM      7  C   UNL     1      43.761   3.869  10.050  0.00  0.00    +0.000 C 
BRANCH   7  11
ATOM      8  C   UNL     1      46.657   2.253   7.239  0.00  0.00    +0.000 A 
ATOM      9  C   UNL     1      46.239   3.584   7.142  0.00  0.00    +0.000 A 
ATOM     10  C   UNL     1      45.313   4.100   8.054  0.00  0.00    +0.000 A 
ATOM     11  C   UNL     1      44.770   3.294   9.068  0.00  0.00    +0.000 A 
ATOM     12  C   UNL     1      45.186   1.955   9.149  0.00  0.00    +0.000 A 
ATOM     13  C   UNL     1      46.121   1.437   8.242  0.00  0.00    +0.000 A 
BRANCH   8  15
ATOM     14  N   UNL     1      48.859   2.408   6.197  0.00  0.00    +0.000 N 
ATOM     15  C   UNL     1      47.657   1.757   6.255  0.00  0.00    +0.000 C 
ATOM     16  O   UNL     1      47.407   0.839   5.485  0.00  0.00    +0.000 OA
ATOM     17  H   UNL     1      49.485   2.128   5.453  0.00  0.00    +0.000 HD
ATOM     18  H   UNL     1      49.031   3.291   6.654  0.00  0.00    +0.000 HD
ENDBRANCH   8  15
ENDBRANCH   7  11
ENDBRANCH   1   7
BRANCH   4  19
ATOM     19  C   UNL     1      46.355   4.626  13.928  0.00  0.00    +0.000 C 
BRANCH  19  20
ATOM     20  N   UNL     1      47.392   4.918  14.893  0.00  0.00    +0.000 N 
ATOM     21  C   UNL     1      47.395   4.358  16.148  0.00  0.00    +0.000 C 
ATOM     22  O   UNL     1      46.507   3.599  16.524  0.00  0.00    +0.000 OA
ATOM     23  H   UNL     1      48.133   5.557  14.626  0.00  0.00    +0.000 HD
BRANCH  21  24
ATOM     24  C   UNL     1      48.550   4.665  17.001  0.00  0.00    +0.000 A 
ATOM     25  C   UNL     1      48.657   5.920  17.587  0.00  0.00    +0.000 A 
ATOM     26  S   UNL     1      50.032   6.097  18.580  0.00  0.00    +0.000 S 
ATOM     27  C   UNL     1      50.567   4.525  18.214  0.00  0.00    +0.000 A 
ATOM     28  N   UNL     1      51.729   4.041  18.734  0.00  0.00    +0.000 NA
ATOM     29  C   UNL     1      52.040   2.856  18.331  0.00  0.00    +0.000 A 
ATOM     30  N   UNL     1      51.292   2.104  17.466  0.00  0.00    +0.000 N 
ATOM     31  C   UNL     1      50.075   2.518  16.979  0.00  0.00    +0.000 A 
ATOM     32  O   UNL     1      49.377   1.767  16.314  0.00  0.00    +0.000 OA
ATOM     33  C   UNL     1      49.697   3.864  17.365  0.00  0.00    +0.000 A 
ATOM     34  H   UNL     1      51.576   1.171  17.208  0.00  0.00    +0.000 HD
ENDBRANCH  21  24
ENDBRANCH  19  20
ENDBRANCH   4  19
TORSDOF 6
ENDMDL
MODEL 2
REMARK VINA RESULT:    -8.891      1.565      2.201
REMARK INTER + INTRA:         -12.366
REMARK INTER:                 -11.935
REMARK INTRA:                  -0.431
REMARK UNBOUND:                -0.357
REMARK  Name = 
REMARK  6 active torsions:
REMARK  status: ('A' for Active; 'I' for Inactive)
REMARK    1  A    between atoms: C_2  and  C_4
REMARK    2  A    between atoms: C_7  and  C_8
REMARK    3  A    between atoms: C_8  and  N_9
REMARK    4  A    between atoms: C_12  and  C_13
REMARK    5  A    between atoms: C_13  and  N_14
REMARK    6  A    between atoms: C_15  and  C_17
REMARK                            x       y       z     vdW  Elec       q    Type
REMARK                         _______ _______ _______ _____ _____    ______ ____
ROOT
ATOM      1  N   UNL     1      43.980   4.640  10.910  0.00  0.00    +0.000 NA
ATOM      2  C   UNL     1      43.545   4.388  12.285  0.00  0.00    +0.000 C 
ATOM      3  C   UNL     1      43.916   5.518  13.240  0.00  0.00    +0.000 C 
ATOM      4  C   UNL     1      45.413   5.839  13.200  0.00  0.00    +0.000 C 
ATOM      5  C   UNL     1      45.761   6.200  11.751  0.00  0.00    +0.000 C 
ATOM      6  C   UNL     1      45.362   5.095  10.762  0.00  0.00    +0.000 C 
ENDROOT
BRANCH   1   7
ATOM      7  C   UNL     1      43.631   3.538   9.991  0.00  0.00    +0.000 C 
BRANCH   7  11
ATOM      8  C   UNL     1      46.664   2.222   7.170  0.00  0.00    +0.000 A 
ATOM      9  C   UNL     1      46.190   1.355   8.159  0.00  0.00    +0.000 A 
ATOM     10  C   UNL     1      45.209   1.781   9.059  0.00  0.00    +0.000 A 
ATOM     11  C   UNL     1      44.696   3.088   9.003  0.00  0.00    +0.000 A 
ATOM     12  C   UNL     1      45.187   3.955   8.015  0.00  0.00    +0.000 A 
ATOM     13  C   UNL     1      46.165   3.528   7.105  0.00  0.00    +0.000 A 
BRANCH   8  15
ATOM     14  N   UNL     1      48.881   2.396   6.160  0.00  0.00    +0.000 N 
ATOM     15  C   UNL     1      47.697   1.713   6.226  0.00  0.00    +0.000 C 
ATOM     16  O   UNL     1      47.488   0.755   5.494  0.00  0.00    +0.000 OA
ATOM     17  H   UNL     1      49.528   2.103   5.440  0.00  0.00    +0.000 HD
ATOM     18  H   UNL     1      49.018   3.303   6.580  0.00  0.00    +0.000 HD
ENDBRANCH   8  15
ENDBRANCH   7  11
ENDBRANCH   1   7
BRANCH   4  19
ATOM     19  C   UNL     1      46.307   4.693  13.713  0.00  0.00    +0.000 C 
BRANCH  19  20
ATOM     20  N   UNL     1      46.903   4.982  14.998  0.00  0.00    +0.000 N 
ATOM     21  C   UNL     1      47.622   4.040  15.694  0.00  0.00    +0.000 C 
ATOM     22  O   UNL     1      47.776   2.897  15.273  0.00  0.00    +0.000 OA
ATOM     23  H   UNL     1      46.782   5.910  15.388  0.00  0.00    +0.000 HD
BRANCH  21  24
ATOM     24  C   UNL     1      48.252   4.485  16.943  0.00  0.00    +0.000 A 
ATOM     25  C   UNL     1      47.944   3.841  18.135  0.00  0.00    +0.000 A 
ATOM     26  S   UNL     1      48.792   4.451  19.483  0.00  0.00    +0.000 S 
ATOM     27  C   UNL     1      49.557   5.638  18.533  0.00  0.00    +0.000 A 
ATOM     28  N   UNL     1      50.420   6.531  19.090  0.00  0.00    +0.000 NA
ATOM     29  C   UNL     1      50.885   7.407  18.265  0.00  0.00    +0.000 A 
ATOM     30  N   UNL     1      50.578   7.465  16.933  0.00  0.00    +0.000 N 
ATOM     31  C   UNL     1      49.776   6.537  16.311  0.00  0.00    +0.000 A 
ATOM     32  O   UNL     1      49.630   6.547  15.098  0.00  0.00    +0.000 OA
ATOM     33  C   UNL     1      49.188   5.555  17.202  0.00  0.00    +0.000 A 
ATOM     34  H   UNL     1      50.995   8.160  16.332  0.00  0.00    +0.000 HD
ENDBRANCH  21  24
ENDBRANCH  19  20
ENDBRANCH   4  19
TORSDOF 6
ENDMDL
MODEL 3
REMARK VINA RESULT:    -8.585      4.483      6.477
REMARK INTER + INTRA:         -11.953
REMARK INTER:                 -11.123
REMARK INTRA:                  -0.830
REMARK UNBOUND:                -0.357
REMARK  Name = 
REMARK  6 active torsions:
REMARK  status: ('A' for Active; 'I' for Inactive)
REMARK    1  A    between atoms: C_2  and  C_4
REMARK    2  A    between atoms: C_7  and  C_8
REMARK    3  A    between atoms: C_8  and  N_9
REMARK    4  A    between atoms: C_12  and  C_13
REMARK    5  A    between atoms: C_13  and  N_14
REMARK    6  A    between atoms: C_15  and  C_17
REMARK                            x       y       z     vdW  Elec       q    Type
REMARK                         _______ _______ _______ _____ _____    ______ ____
ROOT
ATOM      1  N   UNL     1      44.086   4.481  11.573  0.00  0.00    +0.000 NA
ATOM      2  C   UNL     1      45.242   3.748  12.092  0.00  0.00    +0.000 C 
ATOM      3  C   UNL     1      45.748   4.303  13.420  0.00  0.00    +0.000 C 
ATOM      4  C   UNL     1      46.056   5.801  13.338  0.00  0.00    +0.000 C 
ATOM      5  C   UNL     1      44.766   6.505  12.898  0.00  0.00    +0.000 C 
ATOM      6  C   UNL     1      44.212   5.939  11.583  0.00  0.00    +0.000 C 
ENDROOT
BRANCH   1   7
ATOM      7  C   UNL     1      43.607   3.950  10.282  0.00  0.00    +0.000 C 
BRANCH   7  11
ATOM      8  C   UNL     1      46.604   2.396   7.544  0.00  0.00    +0.000 A 
ATOM      9  C   UNL     1      46.369   3.772   7.634  0.00  0.00    +0.000 A 
ATOM     10  C   UNL     1      45.409   4.266   8.523  0.00  0.00    +0.000 A 
ATOM     11  C   UNL     1      44.650   3.397   9.323  0.00  0.00    +0.000 A 
ATOM     12  C   UNL     1      44.883   2.017   9.216  0.00  0.00    +0.000 A 
ATOM     13  C   UNL     1      45.851   1.518   8.332  0.00  0.00    +0.000 A 
BRANCH   8  15
ATOM     14  N   UNL     1      48.703   2.759   6.350  0.00  0.00    +0.000 N 
ATOM     15  C   UNL     1      47.648   1.923   6.595  0.00  0.00    +0.000 C 
ATOM     16  O   UNL     1      47.553   0.852   6.010  0.00  0.00    +0.000 OA
ATOM     17  H   UNL     1      49.346   2.470   5.626  0.00  0.00    +0.000 HD
ATOM     18  H   UNL     1      48.718   3.726   6.639  0.00  0.00    +0.000 HD
ENDBRANCH   8  15
ENDBRANCH   7  11
ENDBRANCH   1   7
BRANCH   4  19
ATOM     19  C   UNL     1      47.222   6.145  12.393  0.00  0.00    +0.000 C 
BRANCH  19  20
ATOM     20  N   UNL     1      47.201   7.524  11.957  0.00  0.00    +0.000 N 
ATOM     21  C   UNL     1      48.165   8.424  12.344  0.00  0.00    +0.000 C 
ATOM     22  O   UNL     1      49.082   8.111  13.098  0.00  0.00    +0.000 OA
ATOM     23  H   UNL     1      46.448   7.825  11.348  0.00  0.00    +0.000 HD
BRANCH  21  24
ATOM     24  C   UNL     1      48.081   9.768  11.761  0.00  0.00    +0.000 A 
ATOM     25  C   UNL     1      49.227  10.368  11.252  0.00  0.00    +0.000 A 
ATOM     26  S   UNL     1      48.949  11.908  10.573  0.00  0.00    +0.000 S 
ATOM     27  C   UNL     1      47.301  11.855  10.990  0.00  0.00    +0.000 A 
ATOM     28  N   UNL     1      46.473  12.898  10.706  0.00  0.00    +0.000 NA
ATOM     29  C   UNL     1      45.263  12.746  11.126  0.00  0.00    +0.000 A 
ATOM     30  N   UNL     1      44.799  11.643  11.790  0.00  0.00    +0.000 N 
ATOM     31  C   UNL     1      45.576  10.534  12.027  0.00  0.00    +0.000 A 
ATOM     32  O   UNL     1      45.092   9.520  12.507  0.00  0.00    +0.000 OA
ATOM     33  C   UNL     1      46.961  10.670  11.617  0.00  0.00    +0.000 A 
ATOM     34  H   UNL     1      43.832  11.572  12.070  0.00  0.00    +0.000 HD
ENDBRANCH  21  24
ENDBRANCH  19  20
ENDBRANCH   4  19
TORSDOF 6
ENDMDL
MODEL 4
REMARK VINA RESULT:    -8.518      2.692      3.178
REMARK INTER + INTRA:         -11.863
REMARK INTER:                 -10.845
REMARK INTRA:                  -1.018
REMARK UNBOUND:                -0.357
REMARK  Name = 
REMARK  6 active torsions:
REMARK  status: ('A' for Active; 'I' for Inactive)
REMARK    1  A    between atoms: C_2  and  C_4
REMARK    2  A    between atoms: C_7  and  C_8
REMARK    3  A    between atoms: C_8  and  N_9
REMARK    4  A    between atoms: C_12  and  C_13
REMARK    5  A    between atoms: C_13  and  N_14
REMARK    6  A    between atoms: C_15  and  C_17
REMARK                            x       y       z     vdW  Elec       q    Type
REMARK                         _______ _______ _______ _____ _____    ______ ____
ROOT
ATOM      1  N   UNL     1      44.157   4.640  11.523  0.00  0.00    +0.000 NA
ATOM      2  C   UNL     1      45.294   3.920  12.098  0.00  0.00    +0.000 C 
ATOM      3  C   UNL     1      45.803   4.553  13.390  0.00  0.00    +0.000 C 
ATOM      4  C   UNL     1      46.141   6.037  13.211  0.00  0.00    +0.000 C 
ATOM      5  C   UNL     1      44.868   6.734  12.715  0.00  0.00    +0.000 C 
ATOM      6  C   UNL     1      44.311   6.092  11.437  0.00  0.00    +0.000 C 
ENDROOT
BRANCH   1   7
ATOM      7  C   UNL     1      43.675   4.032  10.267  0.00  0.00    +0.000 C 
BRANCH   7  11
ATOM      8  C   UNL     1      46.653   2.482   7.505  0.00  0.00    +0.000 A 
ATOM      9  C   UNL     1      45.929   1.615   8.329  0.00  0.00    +0.000 A 
ATOM     10  C   UNL     1      44.967   2.119   9.210  0.00  0.00    +0.000 A 
ATOM     11  C   UNL     1      44.723   3.499   9.301  0.00  0.00    +0.000 A 
ATOM     12  C   UNL     1      45.463   4.363   8.479  0.00  0.00    +0.000 A 
ATOM     13  C   UNL     1      46.422   3.860   7.588  0.00  0.00    +0.000 A 
BRANCH   8  15
ATOM     14  N   UNL     1      48.761   2.642   6.285  0.00  0.00    +0.000 N 
ATOM     15  C   UNL     1      47.653   1.894   6.573  0.00  0.00    +0.000 C 
ATOM     16  O   UNL     1      47.477   0.808   6.037  0.00  0.00    +0.000 OA
ATOM     17  H   UNL     1      49.377   2.275   5.571  0.00  0.00    +0.000 HD
ATOM     18  H   UNL     1      48.848   3.617   6.530  0.00  0.00    +0.000 HD
ENDBRANCH   8  15
ENDBRANCH   7  11
ENDBRANCH   1   7
BRANCH   4  19
ATOM     19  C   UNL     1      47.319   6.294  12.253  0.00  0.00    +0.000 C 
BRANCH  19  20
ATOM     20  N   UNL     1      48.564   6.531  12.950  0.00  0.00    +0.000 N 
ATOM     21  C   UNL     1      48.956   7.793  13.329  0.00  0.00    +0.000 C 
ATOM     22  O   UNL     1      48.282   8.787  13.077  0.00  0.00    +0.000 OA
ATOM     23  H   UNL     1      49.158   5.737  13.160  0.00  0.00    +0.000 HD
BRANCH  21  24
ATOM     24  C   UNL     1      50.196   7.889  14.109  0.00  0.00    +0.000 A 
ATOM     25  C   UNL     1      51.228   8.705  13.661  0.00  0.00    +0.000 A 
ATOM     26  S   UNL     1      52.578   8.738  14.702  0.00  0.00    +0.000 S 
ATOM     27  C   UNL     1      51.859   7.615  15.758  0.00  0.00    +0.000 A 
ATOM     28  N   UNL     1      52.512   7.183  16.872  0.00  0.00    +0.000 NA
ATOM     29  C   UNL     1      51.873   6.293  17.552  0.00  0.00    +0.000 A 
ATOM     30  N   UNL     1      50.636   5.804  17.232  0.00  0.00    +0.000 N 
ATOM     31  C   UNL     1      49.905   6.268  16.164  0.00  0.00    +0.000 A 
ATOM     32  O   UNL     1      48.754   5.901  15.985  0.00  0.00    +0.000 OA
ATOM     33  C   UNL     1      50.596   7.238  15.335  0.00  0.00    +0.000 A 
ATOM     34  H   UNL     1      50.175   5.127  17.820  0.00  0.00    +0.000 HD
ENDBRANCH  21  24
ENDBRANCH  19  20
ENDBRANCH   4  19
TORSDOF 6
ENDMDL
MODEL 5
REMARK VINA RESULT:    -7.845      4.247      5.178
REMARK INTER + INTRA:         -10.954
REMARK INTER:                 -10.286
REMARK INTRA:                  -0.668
REMARK UNBOUND:                -0.357
REMARK  Name = 
REMARK  6 active torsions:
REMARK  status: ('A' for Active; 'I' for Inactive)
REMARK    1  A    between atoms: C_2  and  C_4
REMARK    2  A    between atoms: C_7  and  C_8
REMARK    3  A    between atoms: C_8  and  N_9
REMARK    4  A    between atoms: C_12  and  C_13
REMARK    5  A    between atoms: C_13  and  N_14
REMARK    6  A    between atoms: C_15  and  C_17
REMARK                            x       y       z     vdW  Elec       q    Type
REMARK                         _______ _______ _______ _____ _____    ______ ____
ROOT
ATOM      1  N   UNL     1      44.018   4.010  11.563  0.00  0.00    +0.000 NA
ATOM      2  C   UNL     1      45.278   3.714  12.246  0.00  0.00    +0.000 C 
ATOM      3  C   UNL     1      45.624   4.741  13.320  0.00  0.00    +0.000 C 
ATOM      4  C   UNL     1      45.634   6.171  12.769  0.00  0.00    +0.000 C 
ATOM      5  C   UNL     1      44.246   6.436  12.174  0.00  0.00    +0.000 C 
ATOM      6  C   UNL     1      43.855   5.394  11.117  0.00  0.00    +0.000 C 
ENDROOT
BRANCH   1   7
ATOM      7  C   UNL     1      43.693   3.022  10.515  0.00  0.00    +0.000 C 
BRANCH   7  11
ATOM      8  C   UNL     1      46.493   2.650   7.212  0.00  0.00    +0.000 A 
ATOM      9  C   UNL     1      45.846   3.865   7.461  0.00  0.00    +0.000 A 
ATOM     10  C   UNL     1      44.952   3.980   8.530  0.00  0.00    +0.000 A 
ATOM     11  C   UNL     1      44.670   2.881   9.359  0.00  0.00    +0.000 A 
ATOM     12  C   UNL     1      45.315   1.663   9.092  0.00  0.00    +0.000 A 
ATOM     13  C   UNL     1      46.219   1.546   8.027  0.00  0.00    +0.000 A 
BRANCH   8  15
ATOM     14  N   UNL     1      48.780   2.480   6.371  0.00  0.00    +0.000 N 
ATOM     15  C   UNL     1      47.449   2.585   6.072  0.00  0.00    +0.000 C 
ATOM     16  O   UNL     1      47.076   2.674   4.910  0.00  0.00    +0.000 OA
ATOM     17  H   UNL     1      49.421   2.543   5.592  0.00  0.00    +0.000 HD
ATOM     18  H   UNL     1      49.148   2.615   7.301  0.00  0.00    +0.000 HD
ENDBRANCH   8  15
ENDBRANCH   7  11
ENDBRANCH   1   7
BRANCH   4  19
ATOM     19  C   UNL     1      46.740   6.426  11.727  0.00  0.00    +0.000 C 
BRANCH  19  20
ATOM     20  N   UNL     1      47.500   7.626  12.001  0.00  0.00    +0.000 N 
ATOM     21  C   UNL     1      48.722   7.584  12.628  0.00  0.00    +0.000 C 
ATOM     22  O   UNL     1      49.223   6.531  13.010  0.00  0.00    +0.000 OA
ATOM     23  H   UNL     1      47.110   8.518  11.718  0.00  0.00    +0.000 HD
BRANCH  21  24
ATOM     24  C   UNL     1      49.433   8.862  12.766  0.00  0.00    +0.000 A 
ATOM     25  C   UNL     1      48.937   9.834  13.625  0.00  0.00    +0.000 A 
ATOM     26  S   UNL     1      49.902  11.238  13.701  0.00  0.00    +0.000 S 
ATOM     27  C   UNL     1      50.985  10.623  12.543  0.00  0.00    +0.000 A 
ATOM     28  N   UNL     1      52.056  11.353  12.128  0.00  0.00    +0.000 NA
ATOM     29  C   UNL     1      52.762  10.787  11.209  0.00  0.00    +0.000 A 
ATOM     30  N   UNL     1      52.505   9.554  10.675  0.00  0.00    +0.000 N 
ATOM     31  C   UNL     1      51.484   8.748  11.119  0.00  0.00    +0.000 A 
ATOM     32  O   UNL     1      51.365   7.603  10.708  0.00  0.00    +0.000 OA
ATOM     33  C   UNL     1      50.629   9.354  12.121  0.00  0.00    +0.000 A 
ATOM     34  H   UNL     1      53.111   9.152   9.975  0.00  0.00    +0.000 HD
ENDBRANCH  21  24
ENDBRANCH  19  20
ENDBRANCH   4  19
TORSDOF 6
ENDMDL
MODEL 6
REMARK VINA RESULT:    -7.775      3.755      8.640
REMARK INTER + INTRA:         -10.859
REMARK INTER:                 -10.185
REMARK INTRA:                  -0.674
REMARK UNBOUND:                -0.357
REMARK  Name = 
REMARK  6 active torsions:
REMARK  status: ('A' for Active; 'I' for Inactive)
REMARK    1  A    between atoms: C_2  and  C_4
REMARK    2  A    between atoms: C_7  and  C_8
REMARK    3  A    between atoms: C_8  and  N_9
REMARK    4  A    between atoms: C_12  and  C_13
REMARK    5  A    between atoms: C_13  and  N_14
REMARK    6  A    between atoms: C_15  and  C_17
REMARK                            x       y       z     vdW  Elec       q    Type
REMARK                         _______ _______ _______ _____ _____    ______ ____
ROOT
ATOM      1  N   UNL     1      49.596   8.421  18.310  0.00  0.00    +0.000 NA
ATOM      2  C   UNL     1      50.789   8.857  17.584  0.00  0.00    +0.000 C 
ATOM      3  C   UNL     1      50.502   9.983  16.596  0.00  0.00    +0.000 C 
ATOM      4  C   UNL     1      49.381   9.619  15.617  0.00  0.00    +0.000 C 
ATOM      5  C   UNL     1      48.140   9.285  16.453  0.00  0.00    +0.000 C 
ATOM      6  C   UNL     1      48.412   8.181  17.485  0.00  0.00    +0.000 C 
ENDROOT
BRANCH   1   7
ATOM      7  C   UNL     1      49.875   7.323  19.256  0.00  0.00    +0.000 C 
BRANCH   7  11
ATOM      8  C   UNL     1      50.202   3.306  17.627  0.00  0.00    +0.000 A 
ATOM      9  C   UNL     1      51.231   4.235  17.440  0.00  0.00    +0.000 A 
ATOM     10  C   UNL     1      51.123   5.523  17.973  0.00  0.00    +0.000 A 
ATOM     11  C   UNL     1      49.979   5.917  18.685  0.00  0.00    +0.000 A 
ATOM     12  C   UNL     1      48.946   4.982  18.857  0.00  0.00    +0.000 A 
ATOM     13  C   UNL     1      49.054   3.686  18.331  0.00  0.00    +0.000 A 
BRANCH   8  15
ATOM     14  N   UNL     1      51.233   1.094  17.696  0.00  0.00    +0.000 N 
ATOM     15  C   UNL     1      50.374   1.943  17.054  0.00  0.00    +0.000 C 
ATOM     16  O   UNL     1      49.815   1.602  16.020  0.00  0.00    +0.000 OA
ATOM     17  H   UNL     1      51.419   0.212  17.236  0.00  0.00    +0.000 HD
ATOM     18  H   UNL     1      51.870   1.395  18.418  0.00  0.00    +0.000 HD
ENDBRANCH   8  15
ENDBRANCH   7  11
ENDBRANCH   1   7
BRANCH   4  19
ATOM     19  C   UNL     1      49.738   8.458  14.670  0.00  0.00    +0.000 C 
BRANCH  19  20
ATOM     20  N   UNL     1      48.616   8.028  13.865  0.00  0.00    +0.000 N 
ATOM     21  C   UNL     1      48.072   6.771  13.988  0.00  0.00    +0.000 C 
ATOM     22  O   UNL     1      48.523   5.940  14.771  0.00  0.00    +0.000 OA
ATOM     23  H   UNL     1      48.226   8.680  13.193  0.00  0.00    +0.000 HD
BRANCH  21  24
ATOM     24  C   UNL     1      46.879   6.490  13.179  0.00  0.00    +0.000 A 
ATOM     25  C   UNL     1      46.170   7.542  12.613  0.00  0.00    +0.000 A 
ATOM     26  S   UNL     1      44.839   7.042  11.670  0.00  0.00    +0.000 S 
ATOM     27  C   UNL     1      45.127   5.405  12.033  0.00  0.00    +0.000 A 
ATOM     28  N   UNL     1      44.315   4.427  11.546  0.00  0.00    +0.000 NA
ATOM     29  C   UNL     1      44.618   3.238  11.945  0.00  0.00    +0.000 A 
ATOM     30  N   UNL     1      45.664   2.933  12.773  0.00  0.00    +0.000 N 
ATOM     31  C   UNL     1      46.556   3.877  13.224  0.00  0.00    +0.000 A 
ATOM     32  O   UNL     1      47.549   3.549  13.855  0.00  0.00    +0.000 OA
ATOM     33  C   UNL     1      46.236   5.240  12.844  0.00  0.00    +0.000 A 
ATOM     34  H   UNL     1      45.865   1.979  13.028  0.00  0.00    +0.000 HD
ENDBRANCH  21  24
ENDBRANCH  19  20
ENDBRANCH   4  19
TORSDOF 6
ENDMDL
MODEL 7
REMARK VINA RESULT:    -7.675      2.968      4.139
REMARK INTER + INTRA:         -10.724
REMARK INTER:                 -10.218
REMARK INTRA:                  -0.506
REMARK UNBOUND:                -0.357
REMARK  Name = 
REMARK  6 active torsions:
REMARK  status: ('A' for Active; 'I' for Inactive)
REMARK    1  A    between atoms: C_2  and  C_4
REMARK    2  A    between atoms: C_7  and  C_8
REMARK    3  A    between atoms: C_8  and  N_9
REMARK    4  A    between atoms: C_12  and  C_13
REMARK    5  A    between atoms: C_13  and  N_14
REMARK    6  A    between atoms: C_15  and  C_17
REMARK                            x       y       z     vdW  Elec       q    Type
REMARK                         _______ _______ _______ _____ _____    ______ ____
ROOT
ATOM      1  N   UNL     1      47.058   8.275  12.743  0.00  0.00    +0.000 NA
ATOM      2  C   UNL     1      47.216   8.958  14.028  0.00  0.00    +0.000 C 
ATOM      3  C   UNL     1      48.677   9.111  14.442  0.00  0.00    +0.000 C 
ATOM      4  C   UNL     1      49.417   7.769  14.451  0.00  0.00    +0.000 C 
ATOM      5  C   UNL     1      49.298   7.177  13.041  0.00  0.00    +0.000 C 
ATOM      6  C   UNL     1      47.838   7.048  12.583  0.00  0.00    +0.000 C 
ENDROOT
BRANCH   1   7
ATOM      7  C   UNL     1      45.643   8.117  12.352  0.00  0.00    +0.000 C 
BRANCH   7  11
ATOM      8  C   UNL     1      44.294   4.104  11.371  0.00  0.00    +0.000 A 
ATOM      9  C   UNL     1      44.941   4.890  10.413  0.00  0.00    +0.000 A 
ATOM     10  C   UNL     1      45.380   6.177  10.736  0.00  0.00    +0.000 A 
ATOM     11  C   UNL     1      45.163   6.714  12.016  0.00  0.00    +0.000 A 
ATOM     12  C   UNL     1      44.501   5.922  12.968  0.00  0.00    +0.000 A 
ATOM     13  C   UNL     1      44.068   4.627  12.649  0.00  0.00    +0.000 A 
BRANCH   8  15
ATOM     14  N   UNL     1      44.505   2.147   9.925  0.00  0.00    +0.000 N 
ATOM     15  C   UNL     1      43.862   2.733  10.981  0.00  0.00    +0.000 C 
ATOM     16  O   UNL     1      42.934   2.165  11.539  0.00  0.00    +0.000 OA
ATOM     17  H   UNL     1      44.131   1.263   9.607  0.00  0.00    +0.000 HD
ATOM     18  H   UNL     1      45.122   2.652   9.306  0.00  0.00    +0.000 HD
ENDBRANCH   8  15
ENDBRANCH   7  11
ENDBRANCH   1   7
BRANCH   4  19
ATOM     19  C   UNL     1      48.896   6.781  15.511  0.00  0.00    +0.000 C 
BRANCH  19  20
ATOM     20  N   UNL     1      49.962   6.112  16.224  0.00  0.00    +0.000 N 
ATOM     21  C   UNL     1      49.709   5.198  17.219  0.00  0.00    +0.000 C 
ATOM     22  O   UNL     1      48.567   4.919  17.572  0.00  0.00    +0.000 OA
ATOM     23  H   UNL     1      50.920   6.331  15.974  0.00  0.00    +0.000 HD
BRANCH  21  24
ATOM     24  C   UNL     1      50.875   4.523  17.802  0.00  0.00    +0.000 A 
ATOM     25  C   UNL     1      51.782   5.252  18.562  0.00  0.00    +0.000 A 
ATOM     26  S   UNL     1      53.053   4.312  19.201  0.00  0.00    +0.000 S 
ATOM     27  C   UNL     1      52.472   2.908  18.435  0.00  0.00    +0.000 A 
ATOM     28  N   UNL     1      53.129   1.722  18.556  0.00  0.00    +0.000 NA
ATOM     29  C   UNL     1      52.608   0.754  17.880  0.00  0.00    +0.000 A 
ATOM     30  N   UNL     1      51.486   0.858  17.105  0.00  0.00    +0.000 N 
ATOM     31  C   UNL     1      50.746   2.013  17.016  0.00  0.00    +0.000 A 
ATOM     32  O   UNL     1      49.680   2.031  16.418  0.00  0.00    +0.000 OA
ATOM     33  C   UNL     1      51.312   3.148  17.721  0.00  0.00    +0.000 A 
ATOM     34  H   UNL     1      51.111   0.057  16.620  0.00  0.00    +0.000 HD
ENDBRANCH  21  24
ENDBRANCH  19  20
ENDBRANCH   4  19
TORSDOF 6
ENDMDL
MODEL 8
REMARK VINA RESULT:    -7.364      3.912      9.322
REMARK INTER + INTRA:         -10.304
REMARK INTER:                  -9.683
REMARK INTRA:                  -0.621
REMARK UNBOUND:                -0.357
REMARK  Name = 
REMARK  6 active torsions:
REMARK  status: ('A' for Active; 'I' for Inactive)
REMARK    1  A    between atoms: C_2  and  C_4
REMARK    2  A    between atoms: C_7  and  C_8
REMARK    3  A    between atoms: C_8  and  N_9
REMARK    4  A    between atoms: C_12  and  C_13
REMARK    5  A    between atoms: C_13  and  N_14
REMARK    6  A    between atoms: C_15  and  C_17
REMARK                            x       y       z     vdW  Elec       q    Type
REMARK                         _______ _______ _______ _____ _____    ______ ____
ROOT
ATOM      1  N   UNL     1      51.873   7.431  17.495  0.00  0.00    +0.000 NA
ATOM      2  C   UNL     1      51.904   6.974  16.105  0.00  0.00    +0.000 C 
ATOM      3  C   UNL     1      50.985   7.783  15.195  0.00  0.00    +0.000 C 
ATOM      4  C   UNL     1      49.545   7.820  15.716  0.00  0.00    +0.000 C 
ATOM      5  C   UNL     1      49.590   8.414  17.129  0.00  0.00    +0.000 C 
ATOM      6  C   UNL     1      50.539   7.641  18.056  0.00  0.00    +0.000 C 
ENDROOT
BRANCH   1   7
ATOM      7  C   UNL     1      52.754   6.638  18.375  0.00  0.00    +0.000 C 
BRANCH   7  11
ATOM      8  C   UNL     1      52.766   2.330  17.788  0.00  0.00    +0.000 A 
ATOM      9  C   UNL     1      51.562   3.042  17.805  0.00  0.00    +0.000 A 
ATOM     10  C   UNL     1      51.565   4.428  17.986  0.00  0.00    +0.000 A 
ATOM     11  C   UNL     1      52.767   5.130  18.175  0.00  0.00    +0.000 A 
ATOM     12  C   UNL     1      53.970   4.405  18.169  0.00  0.00    +0.000 A 
ATOM     13  C   UNL     1      53.971   3.016  17.979  0.00  0.00    +0.000 A 
BRANCH   8  15
ATOM     14  N   UNL     1      51.690   0.174  18.177  0.00  0.00    +0.000 N 
ATOM     15  C   UNL     1      52.709   0.858  17.574  0.00  0.00    +0.000 C 
ATOM     16  O   UNL     1      53.564   0.265  16.931  0.00  0.00    +0.000 OA
ATOM     17  H   UNL     1      51.725  -0.835  18.110  0.00  0.00    +0.000 HD
ATOM     18  H   UNL     1      51.092   0.581  18.881  0.00  0.00    +0.000 HD
ENDBRANCH   8  15
ENDBRANCH   7  11
ENDBRANCH   1   7
BRANCH   4  19
ATOM     19  C   UNL     1      48.850   6.445  15.716  0.00  0.00    +0.000 C 
BRANCH  19  20
ATOM     20  N   UNL     1      47.665   6.417  14.887  0.00  0.00    +0.000 N 
ATOM     21  C   UNL     1      47.728   6.169  13.537  0.00  0.00    +0.000 C 
ATOM     22  O   UNL     1      48.795   5.981  12.959  0.00  0.00    +0.000 OA
ATOM     23  H   UNL     1      46.766   6.586  15.326  0.00  0.00    +0.000 HD
BRANCH  21  24
ATOM     24  C   UNL     1      46.447   6.078  12.825  0.00  0.00    +0.000 A 
ATOM     25  C   UNL     1      45.859   7.231  12.321  0.00  0.00    +0.000 A 
ATOM     26  S   UNL     1      44.399   6.946  11.486  0.00  0.00    +0.000 S 
ATOM     27  C   UNL     1      44.469   5.280  11.822  0.00  0.00    +0.000 A 
ATOM     28  N   UNL     1      43.485   4.439  11.399  0.00  0.00    +0.000 NA
ATOM     29  C   UNL     1      43.639   3.213  11.769  0.00  0.00    +0.000 A 
ATOM     30  N   UNL     1      44.690   2.746  12.510  0.00  0.00    +0.000 N 
ATOM     31  C   UNL     1      45.745   3.541  12.890  0.00  0.00    +0.000 A 
ATOM     32  O   UNL     1      46.726   3.061  13.439  0.00  0.00    +0.000 OA
ATOM     33  C   UNL     1      45.602   4.942  12.540  0.00  0.00    +0.000 A 
ATOM     34  H   UNL     1      44.767   1.768  12.747  0.00  0.00    +0.000 HD
ENDBRANCH  21  24
ENDBRANCH  19  20
ENDBRANCH   4  19
TORSDOF 6
ENDMDL
MODEL 9
REMARK VINA RESULT:    -7.036      2.984      4.622
REMARK INTER + INTRA:          -9.860
REMARK INTER:                  -8.746
REMARK INTRA:                  -1.114
REMARK UNBOUND:                -0.357
REMARK  Name = 
REMARK  6 active torsions:
REMARK  status: ('A' for Active; 'I' for Inactive)
REMARK    1  A    between atoms: C_2  and  C_4
REMARK    2  A    between atoms: C_7  and  C_8
REMARK    3  A    between atoms: C_8  and  N_9
REMARK    4  A    between atoms: C_12  and  C_13
REMARK    5  A    between atoms: C_13  and  N_14
REMARK    6  A    between atoms: C_15  and  C_17
REMARK                            x       y       z     vdW  Elec       q    Type
REMARK                         _______ _______ _______ _____ _____    ______ ____
ROOT
ATOM      1  N   UNL     1      47.295   8.331  12.141  0.00  0.00    +0.000 NA
ATOM      2  C   UNL     1      47.649   9.725  12.412  0.00  0.00    +0.000 C 
ATOM      3  C   UNL     1      49.142   9.998  12.257  0.00  0.00    +0.000 C 
ATOM      4  C   UNL     1      49.993   9.052  13.110  0.00  0.00    +0.000 C 
ATOM      5  C   UNL     1      49.643   7.620  12.685  0.00  0.00    +0.000 C 
ATOM      6  C   UNL     1      48.139   7.331  12.794  0.00  0.00    +0.000 C 
ENDROOT
BRANCH   1   7
ATOM      7  C   UNL     1      45.852   8.068  12.304  0.00  0.00    +0.000 C 
BRANCH   7  11
ATOM      8  C   UNL     1      44.389   4.105  11.278  0.00  0.00    +0.000 A 
ATOM      9  C   UNL     1      44.205   4.619  12.565  0.00  0.00    +0.000 A 
ATOM     10  C   UNL     1      44.670   5.898  12.887  0.00  0.00    +0.000 A 
ATOM     11  C   UNL     1      45.348   6.681  11.938  0.00  0.00    +0.000 A 
ATOM     12  C   UNL     1      45.540   6.151  10.652  0.00  0.00    +0.000 A 
ATOM     13  C   UNL     1      45.067   4.873  10.323  0.00  0.00    +0.000 A 
BRANCH   8  15
ATOM     14  N   UNL     1      44.413   2.070   9.929  0.00  0.00    +0.000 N 
ATOM     15  C   UNL     1      43.859   2.746  10.982  0.00  0.00    +0.000 C 
ATOM     16  O   UNL     1      42.930   2.263  11.614  0.00  0.00    +0.000 OA
ATOM     17  H   UNL     1      43.972   1.196   9.675  0.00  0.00    +0.000 HD
ATOM     18  H   UNL     1      45.025   2.505   9.255  0.00  0.00    +0.000 HD
ENDBRANCH   8  15
ENDBRANCH   7  11
ENDBRANCH   1   7
BRANCH   4  19
ATOM     19  C   UNL     1      49.798   9.241  14.627  0.00  0.00    +0.000 C 
BRANCH  19  20
ATOM     20  N   UNL     1      50.062   8.034  15.379  0.00  0.00    +0.000 N 
ATOM     21  C   UNL     1      49.319   7.687  16.482  0.00  0.00    +0.000 C 
ATOM     22  O   UNL     1      48.406   8.394  16.900  0.00  0.00    +0.000 OA
ATOM     23  H   UNL     1      50.820   7.433  15.075  0.00  0.00    +0.000 HD
BRANCH  21  24
ATOM     24  C   UNL     1      49.628   6.393  17.103  0.00  0.00    +0.000 A 
ATOM     25  C   UNL     1      50.674   6.302  18.014  0.00  0.00    +0.000 A 
ATOM     26  S   UNL     1      50.873   4.742  18.673  0.00  0.00    +0.000 S 
ATOM     27  C   UNL     1      49.610   4.118  17.720  0.00  0.00    +0.000 A 
ATOM     28  N   UNL     1      49.268   2.801  17.784  0.00  0.00    +0.000 NA
ATOM     29  C   UNL     1      48.331   2.455  16.969  0.00  0.00    +0.000 A 
ATOM     30  N   UNL     1      47.693   3.303  16.105  0.00  0.00    +0.000 N 
ATOM     31  C   UNL     1      47.948   4.653  16.062  0.00  0.00    +0.000 A 
ATOM     32  O   UNL     1      47.270   5.398  15.371  0.00  0.00    +0.000 OA
ATOM     33  C   UNL     1      49.028   5.091  16.926  0.00  0.00    +0.000 A 
ATOM     34  H   UNL     1      46.947   2.976  15.509  0.00  0.00    +0.000 HD
ENDBRANCH  21  24
ENDBRANCH  19  20
ENDBRANCH   4  19
TORSDOF 6
ENDMDL
