MODEL 1
REMARK VINA RESULT:    -8.279      0.000      0.000
REMARK INTER + INTRA:         -12.775
REMARK INTER:                 -11.667
REMARK INTRA:                  -1.108
REMARK UNBOUND:                -1.108
REMARK  Name = 
REMARK  8 active torsions:
REMARK  status: ('A' for Active; 'I' for Inactive)
REMARK    1  A    between atoms: C_1  and  C_2
REMARK    2  A    between atoms: C_2  and  C_3
REMARK    3  A    between atoms: C_2  and  C_14
REMARK    4  A    between atoms: C_3  and  O_4
REMARK    5  A    between atoms: O_4  and  C_5
REMARK    6  A    between atoms: C_8  and  C_9
REMARK    7  A    between atoms: C_18  and  O_19
REMARK    8  A    between atoms: O_19  and  C_20
REMARK                            x       y       z     vdW  Elec       q    Type
REMARK                         _______ _______ _______ _____ _____    ______ ____
ROOT
ATOM      1  C   UNL     1      42.784   5.380  12.097  0.00  0.00    +0.000 C 
ATOM      2  C   UNL     1      43.794   4.354  12.623  0.00  0.00    +0.000 C 
ENDROOT
BRANCH   2   3
ATOM      3  C   UNL     1      45.179   4.965  12.780  0.00  0.00    +0.000 A 
ATOM      4  C   UNL     1      45.650   5.896  11.847  0.00  0.00    +0.000 A 
ATOM      5  C   UNL     1      46.902   6.498  12.015  0.00  0.00    +0.000 A 
ATOM      6  C   UNL     1      47.702   6.177  13.115  0.00  0.00    +0.000 A 
ATOM      7  C   UNL     1      47.248   5.247  14.045  0.00  0.00    +0.000 A 
ATOM      8  C   UNL     1      45.995   4.653  13.880  0.00  0.00    +0.000 A 
BRANCH   7   9
ATOM      9  O   UNL     1      47.919   4.882  15.185  0.00  0.00    +0.000 OA
BRANCH   9  10
ATOM     10  C   UNL     1      47.220   4.129  16.202  0.00  0.00    +0.000 C 
ATOM     11  C   UNL     1      47.214   4.684  17.640  0.00  0.00    +0.000 C 
ATOM     12  N   UNL     1      47.704   3.395  18.155  0.00  0.00    +0.000 NA
ATOM     13  C   UNL     1      48.027   2.953  16.791  0.00  0.00    +0.000 C 
ATOM     14  H   UNL     1      46.993   2.831  18.617  0.00  0.00    +0.000 HD
ENDBRANCH   9  10
ENDBRANCH   7   9
ENDBRANCH   2   3
BRANCH   2  15
ATOM     15  C   UNL     1      43.870   3.114  11.718  0.00  0.00    +0.000 C 
BRANCH  15  16
ATOM     16  O   UNL     1      43.429   3.422  10.389  0.00  0.00    +0.000 OA
BRANCH  16  17
ATOM     17  C   UNL     1      44.411   3.155   9.453  0.00  0.00    +0.000 A 
ATOM     18  C   UNL     1      44.891   4.219   8.710  0.00  0.00    +0.000 A 
ATOM     19  C   UNL     1      45.899   3.972   7.775  0.00  0.00    +0.000 A 
ATOM     20  C   UNL     1      46.396   2.672   7.613  0.00  0.00    +0.000 A 
ATOM     21  C   UNL     1      45.840   1.677   8.401  0.00  0.00    +0.000 A 
ATOM     22  N   UNL     1      44.862   1.889   9.312  0.00  0.00    +0.000 NA
BRANCH  20  23
ATOM     23  C   UNL     1      47.477   2.417   6.633  0.00  0.00    +0.000 C 
ATOM     24  N   UNL     1      47.462   3.084   5.436  0.00  0.00    +0.000 N 
ATOM     25  O   UNL     1      48.376   1.620   6.876  0.00  0.00    +0.000 OA
ATOM     26  H   UNL     1      46.770   3.748   5.130  0.00  0.00    +0.000 HD
ATOM     27  H   UNL     1      48.214   2.870   4.794  0.00  0.00    +0.000 HD
ENDBRANCH  20  23
ENDBRANCH  16  17
ENDBRANCH  15  16
ENDBRANCH   2  15
TORSDOF 7
ENDMDL
MODEL 2
REMARK VINA RESULT:    -7.630      2.729      3.833
REMARK INTER + INTRA:         -11.860
REMARK INTER:                 -10.966
REMARK INTRA:                  -0.894
REMARK UNBOUND:                -1.108
REMARK  Name = 
REMARK  8 active torsions:
REMARK  status: ('A' for Active; 'I' for Inactive)
REMARK    1  A    between atoms: C_1  and  C_2
REMARK    2  A    between atoms: C_2  and  C_3
REMARK    3  A    between atoms: C_2  and  C_14
REMARK    4  A    between atoms: C_3  and  O_4
REMARK    5  A    between atoms: O_4  and  C_5
REMARK    6  A    between atoms: C_8  and  C_9
REMARK    7  A    between atoms: C_18  and  O_19
REMARK    8  A    between atoms: O_19  and  C_20
REMARK                            x       y       z     vdW  Elec       q    Type
REMARK                         _______ _______ _______ _____ _____    ______ ____
ROOT
ATOM      1  C   UNL     1      42.398   5.590  12.000  0.00  0.00    +0.000 C 
ATOM      2  C   UNL     1      43.396   4.452  12.238  0.00  0.00    +0.000 C 
ENDROOT
BRANCH   2   3
ATOM      3  C   UNL     1      44.777   4.985  12.590  0.00  0.00    +0.000 A 
ATOM      4  C   UNL     1      45.677   4.192  13.312  0.00  0.00    +0.000 A 
ATOM      5  C   UNL     1      46.965   4.658  13.594  0.00  0.00    +0.000 A 
ATOM      6  C   UNL     1      47.373   5.923  13.162  0.00  0.00    +0.000 A 
ATOM      7  C   UNL     1      46.485   6.724  12.451  0.00  0.00    +0.000 A 
ATOM      8  C   UNL     1      45.201   6.254  12.164  0.00  0.00    +0.000 A 
BRANCH   7   9
ATOM      9  O   UNL     1      46.779   7.961  11.937  0.00  0.00    +0.000 OA
BRANCH   9  10
ATOM     10  C   UNL     1      46.344   9.141  12.651  0.00  0.00    +0.000 C 
ATOM     11  C   UNL     1      45.208   9.983  12.037  0.00  0.00    +0.000 C 
ATOM     12  N   UNL     1      46.031  11.198  12.144  0.00  0.00    +0.000 NA
ATOM     13  C   UNL     1      47.225  10.387  12.421  0.00  0.00    +0.000 C 
ATOM     14  H   UNL     1      45.764  11.818  12.907  0.00  0.00    +0.000 HD
ENDBRANCH   9  10
ENDBRANCH   7   9
ENDBRANCH   2   3
BRANCH   2  15
ATOM     15  C   UNL     1      43.493   3.515  11.022  0.00  0.00    +0.000 C 
BRANCH  15  16
ATOM     16  O   UNL     1      43.731   4.260   9.820  0.00  0.00    +0.000 OA
BRANCH  16  17
ATOM     17  C   UNL     1      44.703   3.664   9.038  0.00  0.00    +0.000 A 
ATOM     18  C   UNL     1      44.902   2.303   9.194  0.00  0.00    +0.000 A 
ATOM     19  C   UNL     1      45.864   1.680   8.396  0.00  0.00    +0.000 A 
ATOM     20  C   UNL     1      46.595   2.434   7.468  0.00  0.00    +0.000 A 
ATOM     21  C   UNL     1      46.324   3.791   7.399  0.00  0.00    +0.000 A 
ATOM     22  N   UNL     1      45.399   4.419   8.161  0.00  0.00    +0.000 NA
BRANCH  20  23
ATOM     23  C   UNL     1      47.603   1.766   6.612  0.00  0.00    +0.000 C 
ATOM     24  N   UNL     1      48.730   2.454   6.248  0.00  0.00    +0.000 N 
ATOM     25  O   UNL     1      47.440   0.615   6.225  0.00  0.00    +0.000 OA
ATOM     26  H   UNL     1      48.958   3.403   6.499  0.00  0.00    +0.000 HD
ATOM     27  H   UNL     1      49.384   1.963   5.655  0.00  0.00    +0.000 HD
ENDBRANCH  20  23
ENDBRANCH  16  17
ENDBRANCH  15  16
ENDBRANCH   2  15
TORSDOF 7
ENDMDL
MODEL 3
REMARK VINA RESULT:    -7.379      1.788      1.932
REMARK INTER + INTRA:         -11.508
REMARK INTER:                 -10.511
REMARK INTRA:                  -0.997
REMARK UNBOUND:                -1.108
REMARK  Name = 
REMARK  8 active torsions:
REMARK  status: ('A' for Active; 'I' for Inactive)
REMARK    1  A    between atoms: C_1  and  C_2
REMARK    2  A    between atoms: C_2  and  C_3
REMARK    3  A    between atoms: C_2  and  C_14
REMARK    4  A    between atoms: C_3  and  O_4
REMARK    5  A    between atoms: O_4  and  C_5
REMARK    6  A    between atoms: C_8  and  C_9
REMARK    7  A    between atoms: C_18  and  O_19
REMARK    8  A    between atoms: O_19  and  C_20
REMARK                            x       y       z     vdW  Elec       q    Type
REMARK                         _______ _______ _______ _____ _____    ______ ____
ROOT
ATOM      1  C   UNL     1      42.960   5.588  11.706  0.00  0.00    +0.000 C 
ATOM      2  C   UNL     1      44.044   4.677  12.292  0.00  0.00    +0.000 C 
ENDROOT
BRANCH   2   3
ATOM      3  C   UNL     1      45.391   5.382  12.358  0.00  0.00    +0.000 A 
ATOM      4  C   UNL     1      45.830   6.167  11.285  0.00  0.00    +0.000 A 
ATOM      5  C   UNL     1      47.044   6.857  11.361  0.00  0.00    +0.000 A 
ATOM      6  C   UNL     1      47.838   6.773  12.508  0.00  0.00    +0.000 A 
ATOM      7  C   UNL     1      47.416   5.990  13.578  0.00  0.00    +0.000 A 
ATOM      8  C   UNL     1      46.200   5.307  13.503  0.00  0.00    +0.000 A 
BRANCH   7   9
ATOM      9  O   UNL     1      48.083   5.862  14.770  0.00  0.00    +0.000 OA
BRANCH   9  10
ATOM     10  C   UNL     1      49.119   6.813  15.102  0.00  0.00    +0.000 C 
ATOM     11  C   UNL     1      50.002   6.525  16.333  0.00  0.00    +0.000 C 
ATOM     12  N   UNL     1      49.712   7.863  16.873  0.00  0.00    +0.000 NA
ATOM     13  C   UNL     1      48.627   8.041  15.898  0.00  0.00    +0.000 C 
ATOM     14  H   UNL     1      50.475   8.530  16.771  0.00  0.00    +0.000 HD
ENDBRANCH   9  10
ENDBRANCH   7   9
ENDBRANCH   2   3
BRANCH   2  15
ATOM     15  C   UNL     1      44.179   3.368  11.496  0.00  0.00    +0.000 C 
BRANCH  15  16
ATOM     16  O   UNL     1      43.705   3.534  10.153  0.00  0.00    +0.000 OA
BRANCH  16  17
ATOM     17  C   UNL     1      44.646   3.121   9.228  0.00  0.00    +0.000 A 
ATOM     18  C   UNL     1      45.143   4.073   8.355  0.00  0.00    +0.000 A 
ATOM     19  C   UNL     1      46.111   3.679   7.429  0.00  0.00    +0.000 A 
ATOM     20  C   UNL     1      46.551   2.349   7.403  0.00  0.00    +0.000 A 
ATOM     21  C   UNL     1      45.981   1.474   8.314  0.00  0.00    +0.000 A 
ATOM     22  N   UNL     1      45.042   1.830   9.220  0.00  0.00    +0.000 NA
BRANCH  20  23
ATOM     23  C   UNL     1      47.590   1.940   6.429  0.00  0.00    +0.000 C 
ATOM     24  N   UNL     1      48.743   2.673   6.337  0.00  0.00    +0.000 N 
ATOM     25  O   UNL     1      47.430   0.962   5.708  0.00  0.00    +0.000 OA
ATOM     26  H   UNL     1      48.972   3.497   6.869  0.00  0.00    +0.000 HD
ATOM     27  H   UNL     1      49.418   2.363   5.651  0.00  0.00    +0.000 HD
ENDBRANCH  20  23
ENDBRANCH  16  17
ENDBRANCH  15  16
ENDBRANCH   2  15
TORSDOF 7
ENDMDL
MODEL 4
REMARK VINA RESULT:    -6.963      2.595      3.069
REMARK INTER + INTRA:         -10.921
REMARK INTER:                 -10.170
REMARK INTRA:                  -0.750
REMARK UNBOUND:                -1.108
REMARK  Name = 
REMARK  8 active torsions:
REMARK  status: ('A' for Active; 'I' for Inactive)
REMARK    1  A    between atoms: C_1  and  C_2
REMARK    2  A    between atoms: C_2  and  C_3
REMARK    3  A    between atoms: C_2  and  C_14
REMARK    4  A    between atoms: C_3  and  O_4
REMARK    5  A    between atoms: O_4  and  C_5
REMARK    6  A    between atoms: C_8  and  C_9
REMARK    7  A    between atoms: C_18  and  O_19
REMARK    8  A    between atoms: O_19  and  C_20
REMARK                            x       y       z     vdW  Elec       q    Type
REMARK                         _______ _______ _______ _____ _____    ______ ____
ROOT
ATOM      1  C   UNL     1      44.256   4.234  12.893  0.00  0.00    +0.000 C 
ATOM      2  C   UNL     1      44.847   4.961  11.681  0.00  0.00    +0.000 C 
ENDROOT
BRANCH   2   3
ATOM      3  C   UNL     1      45.376   6.337  12.057  0.00  0.00    +0.000 A 
ATOM      4  C   UNL     1      44.772   7.491  11.543  0.00  0.00    +0.000 A 
ATOM      5  C   UNL     1      45.223   8.758  11.926  0.00  0.00    +0.000 A 
ATOM      6  C   UNL     1      46.284   8.892  12.826  0.00  0.00    +0.000 A 
ATOM      7  C   UNL     1      46.896   7.753  13.338  0.00  0.00    +0.000 A 
ATOM      8  C   UNL     1      46.441   6.488  12.961  0.00  0.00    +0.000 A 
BRANCH   7   9
ATOM      9  O   UNL     1      47.914   7.754  14.259  0.00  0.00    +0.000 OA
BRANCH   9  10
ATOM     10  C   UNL     1      49.164   7.107  13.926  0.00  0.00    +0.000 C 
ATOM     11  C   UNL     1      50.449   7.618  14.606  0.00  0.00    +0.000 C 
ATOM     12  N   UNL     1      51.101   7.771  13.295  0.00  0.00    +0.000 NA
ATOM     13  C   UNL     1      49.809   7.604  12.614  0.00  0.00    +0.000 C 
ATOM     14  H   UNL     1      51.781   7.044  13.078  0.00  0.00    +0.000 HD
ENDBRANCH   9  10
ENDBRANCH   7   9
ENDBRANCH   2   3
BRANCH   2  15
ATOM     15  C   UNL     1      43.823   5.090  10.540  0.00  0.00    +0.000 C 
BRANCH  15  16
ATOM     16  O   UNL     1      43.541   3.811   9.958  0.00  0.00    +0.000 OA
BRANCH  16  17
ATOM     17  C   UNL     1      44.584   3.374   9.162  0.00  0.00    +0.000 A 
ATOM     18  C   UNL     1      44.897   2.026   9.204  0.00  0.00    +0.000 A 
ATOM     19  C   UNL     1      45.933   1.564   8.389  0.00  0.00    +0.000 A 
ATOM     20  C   UNL     1      46.622   2.459   7.560  0.00  0.00    +0.000 A 
ATOM     21  C   UNL     1      46.235   3.789   7.602  0.00  0.00    +0.000 A 
ATOM     22  N   UNL     1      45.236   4.263   8.382  0.00  0.00    +0.000 NA
BRANCH  20  23
ATOM     23  C   UNL     1      47.709   1.960   6.685  0.00  0.00    +0.000 C 
ATOM     24  N   UNL     1      48.713   2.816   6.317  0.00  0.00    +0.000 N 
ATOM     25  O   UNL     1      47.718   0.801   6.287  0.00  0.00    +0.000 OA
ATOM     26  H   UNL     1      48.797   3.785   6.576  0.00  0.00    +0.000 HD
ATOM     27  H   UNL     1      49.427   2.435   5.710  0.00  0.00    +0.000 HD
ENDBRANCH  20  23
ENDBRANCH  16  17
ENDBRANCH  15  16
ENDBRANCH   2  15
TORSDOF 7
ENDMDL
MODEL 5
REMARK VINA RESULT:    -6.788      1.946      7.797
REMARK INTER + INTRA:         -10.674
REMARK INTER:                  -9.789
REMARK INTRA:                  -0.885
REMARK UNBOUND:                -1.108
REMARK  Name = 
REMARK  8 active torsions:
REMARK  status: ('A' for Active; 'I' for Inactive)
REMARK    1  A    between atoms: C_1  and  C_2
REMARK    2  A    between atoms: C_2  and  C_3
REMARK    3  A    between atoms: C_2  and  C_14
REMARK    4  A    between atoms: C_3  and  O_4
REMARK    5  A    between atoms: O_4  and  C_5
REMARK    6  A    between atoms: C_8  and  C_9
REMARK    7  A    between atoms: C_18  and  O_19
REMARK    8  A    between atoms: O_19  and  C_20
REMARK                            x       y       z     vdW  Elec       q    Type
REMARK                         _______ _______ _______ _____ _____    ______ ____
ROOT
ATOM      1  C   UNL     1      44.415   6.847  11.735  0.00  0.00    +0.000 C 
ATOM      2  C   UNL     1      45.543   6.344  10.828  0.00  0.00    +0.000 C 
ENDROOT
BRANCH   2   3
ATOM      3  C   UNL     1      45.220   4.978  10.241  0.00  0.00    +0.000 A 
ATOM      4  C   UNL     1      44.509   4.036  10.995  0.00  0.00    +0.000 A 
ATOM      5  C   UNL     1      44.166   2.798  10.442  0.00  0.00    +0.000 A 
ATOM      6  C   UNL     1      44.530   2.482   9.129  0.00  0.00    +0.000 A 
ATOM      7  C   UNL     1      45.242   3.406   8.373  0.00  0.00    +0.000 A 
ATOM      8  C   UNL     1      45.578   4.645   8.925  0.00  0.00    +0.000 A 
BRANCH   7   9
ATOM      9  O   UNL     1      45.618   3.231   7.065  0.00  0.00    +0.000 OA
BRANCH   9  10
ATOM     10  C   UNL     1      47.021   3.084   6.750  0.00  0.00    +0.000 C 
ATOM     11  C   UNL     1      47.405   2.728   5.300  0.00  0.00    +0.000 C 
ATOM     12  N   UNL     1      48.214   1.595   5.776  0.00  0.00    +0.000 NA
ATOM     13  C   UNL     1      47.615   1.707   7.114  0.00  0.00    +0.000 C 
ATOM     14  H   UNL     1      49.219   1.761   5.757  0.00  0.00    +0.000 HD
ENDBRANCH   9  10
ENDBRANCH   7   9
ENDBRANCH   2   3
BRANCH   2  15
ATOM     15  C   UNL     1      46.888   6.288  11.572  0.00  0.00    +0.000 C 
BRANCH  15  16
ATOM     16  O   UNL     1      46.781   6.886  12.870  0.00  0.00    +0.000 OA
BRANCH  16  17
ATOM     17  C   UNL     1      47.126   5.995  13.870  0.00  0.00    +0.000 A 
ATOM     18  C   UNL     1      46.600   4.717  13.795  0.00  0.00    +0.000 A 
ATOM     19  C   UNL     1      46.955   3.798  14.784  0.00  0.00    +0.000 A 
ATOM     20  C   UNL     1      47.824   4.181  15.814  0.00  0.00    +0.000 A 
ATOM     21  C   UNL     1      48.286   5.488  15.800  0.00  0.00    +0.000 A 
ATOM     22  N   UNL     1      47.957   6.398  14.856  0.00  0.00    +0.000 NA
BRANCH  20  23
ATOM     23  C   UNL     1      48.212   3.198  16.852  0.00  0.00    +0.000 C 
ATOM     24  N   UNL     1      47.550   3.198  18.051  0.00  0.00    +0.000 N 
ATOM     25  O   UNL     1      49.114   2.392  16.653  0.00  0.00    +0.000 OA
ATOM     26  H   UNL     1      46.806   3.819  18.322  0.00  0.00    +0.000 HD
ATOM     27  H   UNL     1      47.856   2.517  18.732  0.00  0.00    +0.000 HD
ENDBRANCH  20  23
ENDBRANCH  16  17
ENDBRANCH  15  16
ENDBRANCH   2  15
TORSDOF 7
ENDMDL
MODEL 6
REMARK VINA RESULT:    -6.757      3.436      4.875
REMARK INTER + INTRA:         -10.631
REMARK INTER:                 -10.091
REMARK INTRA:                  -0.540
REMARK UNBOUND:                -1.108
REMARK  Name = 
REMARK  8 active torsions:
REMARK  status: ('A' for Active; 'I' for Inactive)
REMARK    1  A    between atoms: C_1  and  C_2
REMARK    2  A    between atoms: C_2  and  C_3
REMARK    3  A    between atoms: C_2  and  C_14
REMARK    4  A    between atoms: C_3  and  O_4
REMARK    5  A    between atoms: O_4  and  C_5
REMARK    6  A    between atoms: C_8  and  C_9
REMARK    7  A    between atoms: C_18  and  O_19
REMARK    8  A    between atoms: O_19  and  C_20
REMARK                            x       y       z     vdW  Elec       q    Type
REMARK                         _______ _______ _______ _____ _____    ______ ____
ROOT
ATOM      1  C   UNL     1      45.348   3.721  12.513  0.00  0.00    +0.000 C 
ATOM      2  C   UNL     1      45.384   4.770  11.396  0.00  0.00    +0.000 C 
ENDROOT
BRANCH   2   3
ATOM      3  C   UNL     1      45.745   6.147  11.934  0.00  0.00    +0.000 A 
ATOM      4  C   UNL     1      46.906   6.325  12.696  0.00  0.00    +0.000 A 
ATOM      5  C   UNL     1      47.268   7.597  13.151  0.00  0.00    +0.000 A 
ATOM      6  C   UNL     1      46.476   8.709  12.852  0.00  0.00    +0.000 A 
ATOM      7  C   UNL     1      45.317   8.544  12.102  0.00  0.00    +0.000 A 
ATOM      8  C   UNL     1      44.960   7.274  11.643  0.00  0.00    +0.000 A 
BRANCH   7   9
ATOM      9  O   UNL     1      44.483   9.560  11.708  0.00  0.00    +0.000 OA
BRANCH   9  10
ATOM     10  C   UNL     1      45.032  10.675  10.970  0.00  0.00    +0.000 C 
ATOM     11  C   UNL     1      45.265  12.000  11.723  0.00  0.00    +0.000 C 
ATOM     12  N   UNL     1      44.501  12.733  10.702  0.00  0.00    +0.000 NA
ATOM     13  C   UNL     1      43.995  11.469  10.148  0.00  0.00    +0.000 C 
ATOM     14  H   UNL     1      45.076  13.269  10.053  0.00  0.00    +0.000 HD
ENDBRANCH   9  10
ENDBRANCH   7   9
ENDBRANCH   2   3
BRANCH   2  15
ATOM     15  C   UNL     1      44.048   4.840  10.638  0.00  0.00    +0.000 C 
BRANCH  15  16
ATOM     16  O   UNL     1      43.698   3.559  10.097  0.00  0.00    +0.000 OA
BRANCH  16  17
ATOM     17  C   UNL     1      44.639   3.121   9.182  0.00  0.00    +0.000 A 
ATOM     18  C   UNL     1      45.133   4.048   8.282  0.00  0.00    +0.000 A 
ATOM     19  C   UNL     1      46.100   3.628   7.366  0.00  0.00    +0.000 A 
ATOM     20  C   UNL     1      46.542   2.298   7.378  0.00  0.00    +0.000 A 
ATOM     21  C   UNL     1      45.975   1.449   8.314  0.00  0.00    +0.000 A 
ATOM     22  N   UNL     1      45.037   1.830   9.212  0.00  0.00    +0.000 NA
BRANCH  20  23
ATOM     23  C   UNL     1      47.580   1.862   6.415  0.00  0.00    +0.000 C 
ATOM     24  N   UNL     1      48.683   2.651   6.220  0.00  0.00    +0.000 N 
ATOM     25  O   UNL     1      47.464   0.813   5.792  0.00  0.00    +0.000 OA
ATOM     26  H   UNL     1      48.873   3.533   6.667  0.00  0.00    +0.000 HD
ATOM     27  H   UNL     1      49.359   2.319   5.545  0.00  0.00    +0.000 HD
ENDBRANCH  20  23
ENDBRANCH  16  17
ENDBRANCH  15  16
ENDBRANCH   2  15
TORSDOF 7
ENDMDL
MODEL 7
REMARK VINA RESULT:    -6.333      3.393      7.448
REMARK INTER + INTRA:         -10.033
REMARK INTER:                  -9.031
REMARK INTRA:                  -1.002
REMARK UNBOUND:                -1.108
REMARK  Name = 
REMARK  8 active torsions:
REMARK  status: ('A' for Active; 'I' for Inactive)
REMARK    1  A    between atoms: C_1  and  C_2
REMARK    2  A    between atoms: C_2  and  C_3
REMARK    3  A    between atoms: C_2  and  C_14
REMARK    4  A    between atoms: C_3  and  O_4
REMARK    5  A    between atoms: O_4  and  C_5
REMARK    6  A    between atoms: C_8  and  C_9
REMARK    7  A    between atoms: C_18  and  O_19
REMARK    8  A    between atoms: O_19  and  C_20
REMARK                            x       y       z     vdW  Elec       q    Type
REMARK                         _______ _______ _______ _____ _____    ______ ____
ROOT
ATOM      1  C   UNL     1      49.523   9.378  11.832  0.00  0.00    +0.000 C 
ATOM      2  C   UNL     1      48.994   7.940  11.862  0.00  0.00    +0.000 C 
ENDROOT
BRANCH   2   3
ATOM      3  C   UNL     1      47.473   7.904  11.864  0.00  0.00    +0.000 A 
ATOM      4  C   UNL     1      46.740   9.064  12.142  0.00  0.00    +0.000 A 
ATOM      5  C   UNL     1      45.342   9.049  12.096  0.00  0.00    +0.000 A 
ATOM      6  C   UNL     1      44.656   7.874  11.773  0.00  0.00    +0.000 A 
ATOM      7  C   UNL     1      45.373   6.714  11.502  0.00  0.00    +0.000 A 
ATOM      8  C   UNL     1      46.769   6.733  11.542  0.00  0.00    +0.000 A 
BRANCH   7   9
ATOM      9  O   UNL     1      44.818   5.514  11.132  0.00  0.00    +0.000 OA
BRANCH   9  10
ATOM     10  C   UNL     1      44.381   4.596  12.159  0.00  0.00    +0.000 C 
ATOM     11  C   UNL     1      45.311   3.422  12.527  0.00  0.00    +0.000 C 
ATOM     12  N   UNL     1      44.210   2.466  12.325  0.00  0.00    +0.000 NA
ATOM     13  C   UNL     1      43.406   3.505  11.666  0.00  0.00    +0.000 C 
ATOM     14  H   UNL     1      43.802   2.110  13.187  0.00  0.00    +0.000 HD
ENDBRANCH   9  10
ENDBRANCH   7   9
ENDBRANCH   2   3
BRANCH   2  15
ATOM     15  C   UNL     1      49.536   7.159  13.071  0.00  0.00    +0.000 C 
BRANCH  15  16
ATOM     16  O   UNL     1      48.937   7.620  14.289  0.00  0.00    +0.000 OA
BRANCH  16  17
ATOM     17  C   UNL     1      48.590   6.567  15.115  0.00  0.00    +0.000 A 
ATOM     18  C   UNL     1      49.048   6.603  16.420  0.00  0.00    +0.000 A 
ATOM     19  C   UNL     1      48.688   5.558  17.275  0.00  0.00    +0.000 A 
ATOM     20  C   UNL     1      47.884   4.514  16.801  0.00  0.00    +0.000 A 
ATOM     21  C   UNL     1      47.488   4.570  15.474  0.00  0.00    +0.000 A 
ATOM     22  N   UNL     1      47.823   5.569  14.625  0.00  0.00    +0.000 NA
BRANCH  20  23
ATOM     23  C   UNL     1      47.491   3.417  17.716  0.00  0.00    +0.000 C 
ATOM     24  N   UNL     1      48.230   3.197  18.848  0.00  0.00    +0.000 N 
ATOM     25  O   UNL     1      46.523   2.706  17.472  0.00  0.00    +0.000 OA
ATOM     26  H   UNL     1      49.047   3.710  19.138  0.00  0.00    +0.000 HD
ATOM     27  H   UNL     1      47.932   2.430  19.436  0.00  0.00    +0.000 HD
ENDBRANCH  20  23
ENDBRANCH  16  17
ENDBRANCH  15  16
ENDBRANCH   2  15
TORSDOF 7
ENDMDL
MODEL 8
REMARK VINA RESULT:    -6.187      2.156      7.362
REMARK INTER + INTRA:          -9.828
REMARK INTER:                  -9.172
REMARK INTRA:                  -0.656
REMARK UNBOUND:                -1.108
REMARK  Name = 
REMARK  8 active torsions:
REMARK  status: ('A' for Active; 'I' for Inactive)
REMARK    1  A    between atoms: C_1  and  C_2
REMARK    2  A    between atoms: C_2  and  C_3
REMARK    3  A    between atoms: C_2  and  C_14
REMARK    4  A    between atoms: C_3  and  O_4
REMARK    5  A    between atoms: O_4  and  C_5
REMARK    6  A    between atoms: C_8  and  C_9
REMARK    7  A    between atoms: C_18  and  O_19
REMARK    8  A    between atoms: O_19  and  C_20
REMARK                            x       y       z     vdW  Elec       q    Type
REMARK                         _______ _______ _______ _____ _____    ______ ____
ROOT
ATOM      1  C   UNL     1      43.283   2.453  11.730  0.00  0.00    +0.000 C 
ATOM      2  C   UNL     1      43.428   3.968  11.554  0.00  0.00    +0.000 C 
ENDROOT
BRANCH   2   3
ATOM      3  C   UNL     1      44.380   4.310  10.417  0.00  0.00    +0.000 A 
ATOM      4  C   UNL     1      45.045   5.542  10.399  0.00  0.00    +0.000 A 
ATOM      5  C   UNL     1      45.959   5.841   9.384  0.00  0.00    +0.000 A 
ATOM      6  C   UNL     1      46.222   4.914   8.371  0.00  0.00    +0.000 A 
ATOM      7  C   UNL     1      45.563   3.689   8.374  0.00  0.00    +0.000 A 
ATOM      8  C   UNL     1      44.655   3.390   9.393  0.00  0.00    +0.000 A 
BRANCH   7   9
ATOM      9  O   UNL     1      45.766   2.683   7.463  0.00  0.00    +0.000 OA
BRANCH   9  10
ATOM     10  C   UNL     1      47.034   2.604   6.774  0.00  0.00    +0.000 C 
ATOM     11  C   UNL     1      47.019   2.421   5.243  0.00  0.00    +0.000 C 
ATOM     12  N   UNL     1      47.917   1.261   5.358  0.00  0.00    +0.000 NA
ATOM     13  C   UNL     1      47.694   1.209   6.809  0.00  0.00    +0.000 C 
ATOM     14  H   UNL     1      48.882   1.451   5.093  0.00  0.00    +0.000 HD
ENDBRANCH   9  10
ENDBRANCH   7   9
ENDBRANCH   2   3
BRANCH   2  15
ATOM     15  C   UNL     1      43.897   4.650  12.850  0.00  0.00    +0.000 C 
BRANCH  15  16
ATOM     16  O   UNL     1      44.860   3.838  13.536  0.00  0.00    +0.000 OA
BRANCH  16  17
ATOM     17  C   UNL     1      45.960   4.578  13.929  0.00  0.00    +0.000 A 
ATOM     18  C   UNL     1      46.262   5.711  13.195  0.00  0.00    +0.000 A 
ATOM     19  C   UNL     1      47.357   6.483  13.591  0.00  0.00    +0.000 A 
ATOM     20  C   UNL     1      48.113   6.099  14.707  0.00  0.00    +0.000 A 
ATOM     21  C   UNL     1      47.731   4.942  15.365  0.00  0.00    +0.000 A 
ATOM     22  N   UNL     1      46.676   4.176  15.002  0.00  0.00    +0.000 NA
BRANCH  20  23
ATOM     23  C   UNL     1      49.263   6.930  15.134  0.00  0.00    +0.000 C 
ATOM     24  N   UNL     1      50.189   7.317  14.201  0.00  0.00    +0.000 N 
ATOM     25  O   UNL     1      49.398   7.269  16.303  0.00  0.00    +0.000 OA
ATOM     26  H   UNL     1      50.182   7.086  13.221  0.00  0.00    +0.000 HD
ATOM     27  H   UNL     1      50.962   7.873  14.540  0.00  0.00    +0.000 HD
ENDBRANCH  20  23
ENDBRANCH  16  17
ENDBRANCH  15  16
ENDBRANCH   2  15
TORSDOF 7
ENDMDL
MODEL 9
REMARK VINA RESULT:    -5.794      3.528      8.136
REMARK INTER + INTRA:          -9.274
REMARK INTER:                  -8.923
REMARK INTRA:                  -0.351
REMARK UNBOUND:                -1.108
REMARK  Name = 
REMARK  8 active torsions:
REMARK  status: ('A' for Active; 'I' for Inactive)
REMARK    1  A    between atoms: C_1  and  C_2
REMARK    2  A    between atoms: C_2  and  C_3
REMARK    3  A    between atoms: C_2  and  C_14
REMARK    4  A    between atoms: C_3  and  O_4
REMARK    5  A    between atoms: O_4  and  C_5
REMARK    6  A    between atoms: C_8  and  C_9
REMARK    7  A    between atoms: C_18  and  O_19
REMARK    8  A    between atoms: O_19  and  C_20
REMARK                            x       y       z     vdW  Elec       q    Type
REMARK                         _______ _______ _______ _____ _____    ______ ____
ROOT
ATOM      1  C   UNL     1      48.479   7.948  15.795  0.00  0.00    +0.000 C 
ATOM      2  C   UNL     1      48.638   6.540  15.213  0.00  0.00    +0.000 C 
ENDROOT
BRANCH   2   3
ATOM      3  C   UNL     1      47.761   6.339  13.986  0.00  0.00    +0.000 A 
ATOM      4  C   UNL     1      47.773   7.280  12.949  0.00  0.00    +0.000 A 
ATOM      5  C   UNL     1      47.006   7.075  11.797  0.00  0.00    +0.000 A 
ATOM      6  C   UNL     1      46.216   5.930  11.665  0.00  0.00    +0.000 A 
ATOM      7  C   UNL     1      46.190   4.992  12.692  0.00  0.00    +0.000 A 
ATOM      8  C   UNL     1      46.961   5.195  13.838  0.00  0.00    +0.000 A 
BRANCH   7   9
ATOM      9  O   UNL     1      45.490   3.812  12.662  0.00  0.00    +0.000 OA
BRANCH   9  10
ATOM     10  C   UNL     1      44.048   3.847  12.759  0.00  0.00    +0.000 C 
ATOM     11  C   UNL     1      43.231   3.772  11.454  0.00  0.00    +0.000 C 
ATOM     12  N   UNL     1      42.487   4.984  11.832  0.00  0.00    +0.000 NA
ATOM     13  C   UNL     1      43.453   5.264  12.903  0.00  0.00    +0.000 C 
ATOM     14  H   UNL     1      41.540   4.808  12.162  0.00  0.00    +0.000 HD
ENDBRANCH   9  10
ENDBRANCH   7   9
ENDBRANCH   2   3
BRANCH   2  15
ATOM     15  C   UNL     1      48.330   5.454  16.258  0.00  0.00    +0.000 C 
BRANCH  15  16
ATOM     16  O   UNL     1      49.280   5.491  17.331  0.00  0.00    +0.000 OA
BRANCH  16  17
ATOM     17  C   UNL     1      50.043   4.338  17.374  0.00  0.00    +0.000 A 
ATOM     18  C   UNL     1      51.326   4.440  17.882  0.00  0.00    +0.000 A 
ATOM     19  C   UNL     1      52.102   3.281  17.954  0.00  0.00    +0.000 A 
ATOM     20  C   UNL     1      51.574   2.059  17.517  0.00  0.00    +0.000 A 
ATOM     21  C   UNL     1      50.282   2.069  17.016  0.00  0.00    +0.000 A 
ATOM     22  N   UNL     1      49.509   3.177  16.935  0.00  0.00    +0.000 NA
BRANCH  20  23
ATOM     23  C   UNL     1      52.395   0.830  17.610  0.00  0.00    +0.000 C 
ATOM     24  N   UNL     1      51.967  -0.199  18.407  0.00  0.00    +0.000 N 
ATOM     25  O   UNL     1      53.448   0.724  16.991  0.00  0.00    +0.000 OA
ATOM     26  H   UNL     1      51.129  -0.213  18.965  0.00  0.00    +0.000 HD
ATOM     27  H   UNL     1      52.565  -1.013  18.449  0.00  0.00    +0.000 HD
ENDBRANCH  20  23
ENDBRANCH  16  17
ENDBRANCH  15  16
ENDBRANCH   2  15
TORSDOF 7
ENDMDL
