MODEL 1
REMARK VINA RESULT:    -8.091      0.000      0.000
REMARK INTER + INTRA:         -12.726
REMARK INTER:                 -11.403
REMARK INTRA:                  -1.324
REMARK UNBOUND:                -1.324
REMARK  Name = 
REMARK  8 active torsions:
REMARK  status: ('A' for Active; 'I' for Inactive)
REMARK    1  A    between atoms: C_1  and  C_2
REMARK    2  A    between atoms: C_2  and  N_3
REMARK    3  A    between atoms: C_2  and  C_25
REMARK    4  A    between atoms: N_3  and  C_4
REMARK    5  A    between atoms: C_4  and  C_5
REMARK    6  A    between atoms: C_8  and  C_9
REMARK    7  A    between atoms: C_9  and  N_10
REMARK    8  A    between atoms: C_11  and  C_13
REMARK                            x       y       z     vdW  Elec       q    Type
REMARK                         _______ _______ _______ _____ _____    ______ ____
ROOT
ATOM      1  C   UNL     1      44.688   5.209  10.811  0.00  0.00    +0.000 A 
ATOM      2  C   UNL     1      44.264   5.535  12.108  0.00  0.00    +0.000 A 
ATOM      3  C   UNL     1      44.989   6.436  12.897  0.00  0.00    +0.000 A 
ATOM      4  C   UNL     1      46.151   7.039  12.401  0.00  0.00    +0.000 A 
ATOM      5  C   UNL     1      46.579   6.711  11.108  0.00  0.00    +0.000 A 
ATOM      6  C   UNL     1      45.853   5.812  10.319  0.00  0.00    +0.000 A 
ENDROOT
BRANCH   1   7
ATOM      7  C   UNL     1      43.962   4.152  10.005  0.00  0.00    +0.000 C 
BRANCH   7   8
ATOM      8  N   UNL     1      44.673   3.810   8.775  0.00  0.00    +0.000 NA
ATOM      9  H   UNL     1      45.336   4.561   8.571  0.00  0.00    +0.000 HD
BRANCH   8  11
ATOM     10  C   UNL     1      44.523   1.311   9.035  0.00  0.00    +0.000 C 
ATOM     11  C   UNL     1      45.422   2.544   8.853  0.00  0.00    +0.000 C 
BRANCH  11  12
ATOM     12  C   UNL     1      46.258   2.369   7.598  0.00  0.00    +0.000 A 
ATOM     13  C   UNL     1      46.264   3.320   6.569  0.00  0.00    +0.000 A 
ATOM     14  C   UNL     1      47.045   3.117   5.436  0.00  0.00    +0.000 A 
ATOM     15  C   UNL     1      47.802   1.960   5.362  0.00  0.00    +0.000 A 
ATOM     16  N   UNL     1      47.820   1.012   6.325  0.00  0.00    +0.000 NA
ATOM     17  C   UNL     1      47.050   1.239   7.415  0.00  0.00    +0.000 A 
ENDBRANCH  11  12
ENDBRANCH   8  11
ENDBRANCH   7   8
ENDBRANCH   1   7
BRANCH   4  18
ATOM     18  C   UNL     1      46.962   7.984  13.253  0.00  0.00    +0.000 C 
BRANCH  18  19
ATOM     19  N   UNL     1      47.391   7.354  14.476  0.00  0.00    +0.000 N 
ATOM     20  C   UNL     1      48.643   6.812  14.598  0.00  0.00    +0.000 C 
ATOM     21  O   UNL     1      49.472   6.879  13.696  0.00  0.00    +0.000 OA
ATOM     22  H   UNL     1      46.662   7.078  15.131  0.00  0.00    +0.000 HD
BRANCH  20  23
ATOM     23  C   UNL     1      48.970   6.197  15.891  0.00  0.00    +0.000 A 
ATOM     24  C   UNL     1      49.992   6.724  16.668  0.00  0.00    +0.000 A 
ATOM     25  S   UNL     1      50.222   5.904  18.145  0.00  0.00    +0.000 S 
ATOM     26  C   UNL     1      48.992   4.788  17.781  0.00  0.00    +0.000 A 
ATOM     27  N   UNL     1      48.692   3.773  18.635  0.00  0.00    +0.000 NA
ATOM     28  C   UNL     1      47.756   2.988  18.222  0.00  0.00    +0.000 A 
ATOM     29  N   UNL     1      47.082   3.130  17.036  0.00  0.00    +0.000 N 
ATOM     30  C   UNL     1      47.334   4.153  16.153  0.00  0.00    +0.000 A 
ATOM     31  O   UNL     1      46.684   4.272  15.117  0.00  0.00    +0.000 OA
ATOM     32  C   UNL     1      48.392   5.052  16.562  0.00  0.00    +0.000 A 
ATOM     33  H   UNL     1      46.349   2.486  16.778  0.00  0.00    +0.000 HD
ENDBRANCH  20  23
ENDBRANCH  18  19
ENDBRANCH   4  18
TORSDOF 7
ENDMDL
MODEL 2
REMARK VINA RESULT:    -7.710      1.988      2.323
REMARK INTER + INTRA:         -12.189
REMARK INTER:                 -11.243
REMARK INTRA:                  -0.946
REMARK UNBOUND:                -1.324
REMARK  Name = 
REMARK  8 active torsions:
REMARK  status: ('A' for Active; 'I' for Inactive)
REMARK    1  A    between atoms: C_1  and  C_2
REMARK    2  A    between atoms: C_2  and  N_3
REMARK    3  A    between atoms: C_2  and  C_25
REMARK    4  A    between atoms: N_3  and  C_4
REMARK    5  A    between atoms: C_4  and  C_5
REMARK    6  A    between atoms: C_8  and  C_9
REMARK    7  A    between atoms: C_9  and  N_10
REMARK    8  A    between atoms: C_11  and  C_13
REMARK                            x       y       z     vdW  Elec       q    Type
REMARK                         _______ _______ _______ _____ _____    ______ ____
ROOT
ATOM      1  C   UNL     1      45.407   4.482  12.229  0.00  0.00    +0.000 A 
ATOM      2  C   UNL     1      45.968   4.126  13.464  0.00  0.00    +0.000 A 
ATOM      3  C   UNL     1      46.962   4.915  14.057  0.00  0.00    +0.000 A 
ATOM      4  C   UNL     1      47.408   6.085  13.430  0.00  0.00    +0.000 A 
ATOM      5  C   UNL     1      46.851   6.440  12.195  0.00  0.00    +0.000 A 
ATOM      6  C   UNL     1      45.857   5.652  11.604  0.00  0.00    +0.000 A 
ENDROOT
BRANCH   1   7
ATOM      7  C   UNL     1      44.413   3.568  11.542  0.00  0.00    +0.000 C 
BRANCH   7   8
ATOM      8  N   UNL     1      45.057   2.674  10.582  0.00  0.00    +0.000 NA
ATOM      9  H   UNL     1      44.855   1.710  10.861  0.00  0.00    +0.000 HD
BRANCH   8  11
ATOM     10  C   UNL     1      44.179   4.301   8.875  0.00  0.00    +0.000 C 
ATOM     11  C   UNL     1      44.598   2.858   9.195  0.00  0.00    +0.000 C 
BRANCH  11  12
ATOM     12  C   UNL     1      45.694   2.434   8.236  0.00  0.00    +0.000 A 
ATOM     13  C   UNL     1      46.313   3.341   7.365  0.00  0.00    +0.000 A 
ATOM     14  C   UNL     1      47.313   2.907   6.500  0.00  0.00    +0.000 A 
ATOM     15  C   UNL     1      47.667   1.569   6.530  0.00  0.00    +0.000 A 
ATOM     16  N   UNL     1      47.092   0.658   7.345  0.00  0.00    +0.000 NA
ATOM     17  C   UNL     1      46.123   1.111   8.175  0.00  0.00    +0.000 A 
ENDBRANCH  11  12
ENDBRANCH   8  11
ENDBRANCH   7   8
ENDBRANCH   1   7
BRANCH   4  18
ATOM     18  C   UNL     1      48.502   6.925  14.040  0.00  0.00    +0.000 C 
BRANCH  18  19
ATOM     19  N   UNL     1      48.314   7.087  15.459  0.00  0.00    +0.000 N 
ATOM     20  C   UNL     1      49.255   6.660  16.357  0.00  0.00    +0.000 C 
ATOM     21  O   UNL     1      50.320   6.166  15.998  0.00  0.00    +0.000 OA
ATOM     22  H   UNL     1      47.364   7.265  15.779  0.00  0.00    +0.000 HD
BRANCH  20  23
ATOM     23  C   UNL     1      48.955   6.877  17.778  0.00  0.00    +0.000 A 
ATOM     24  C   UNL     1      48.800   8.169  18.261  0.00  0.00    +0.000 A 
ATOM     25  S   UNL     1      48.432   8.239  19.924  0.00  0.00    +0.000 S 
ATOM     26  C   UNL     1      48.510   6.546  20.069  0.00  0.00    +0.000 A 
ATOM     27  N   UNL     1      48.322   5.937  21.270  0.00  0.00    +0.000 NA
ATOM     28  C   UNL     1      48.433   4.653  21.239  0.00  0.00    +0.000 A 
ATOM     29  N   UNL     1      48.706   3.918  20.114  0.00  0.00    +0.000 N 
ATOM     30  C   UNL     1      48.880   4.488  18.876  0.00  0.00    +0.000 A 
ATOM     31  O   UNL     1      49.085   3.795  17.881  0.00  0.00    +0.000 OA
ATOM     32  C   UNL     1      48.785   5.931  18.860  0.00  0.00    +0.000 A 
ATOM     33  H   UNL     1      48.767   2.912  20.157  0.00  0.00    +0.000 HD
ENDBRANCH  20  23
ENDBRANCH  18  19
ENDBRANCH   4  18
TORSDOF 7
ENDMDL
MODEL 3
REMARK VINA RESULT:    -7.548      1.876      2.255
REMARK INTER + INTRA:         -11.960
REMARK INTER:                 -10.900
REMARK INTRA:                  -1.060
REMARK UNBOUND:                -1.324
REMARK  Name = 
REMARK  8 active torsions:
REMARK  status: ('A' for Active; 'I' for Inactive)
REMARK    1  A    between atoms: C_1  and  C_2
REMARK    2  A    between atoms: C_2  and  N_3
REMARK    3  A    between atoms: C_2  and  C_25
REMARK    4  A    between atoms: N_3  and  C_4
REMARK    5  A    between atoms: C_4  and  C_5
REMARK    6  A    between atoms: C_8  and  C_9
REMARK    7  A    between atoms: C_9  and  N_10
REMARK    8  A    between atoms: C_11  and  C_13
REMARK                            x       y       z     vdW  Elec       q    Type
REMARK                         _______ _______ _______ _____ _____    ______ ____
ROOT
ATOM      1  C   UNL     1      44.942   5.127  10.997  0.00  0.00    +0.000 A 
ATOM      2  C   UNL     1      45.111   4.612  12.290  0.00  0.00    +0.000 A 
ATOM      3  C   UNL     1      46.086   5.133  13.150  0.00  0.00    +0.000 A 
ATOM      4  C   UNL     1      46.906   6.191  12.737  0.00  0.00    +0.000 A 
ATOM      5  C   UNL     1      46.741   6.703  11.444  0.00  0.00    +0.000 A 
ATOM      6  C   UNL     1      45.766   6.183  10.586  0.00  0.00    +0.000 A 
ENDROOT
BRANCH   1   7
ATOM      7  C   UNL     1      43.963   4.488  10.035  0.00  0.00    +0.000 C 
BRANCH   7   8
ATOM      8  N   UNL     1      44.613   4.024   8.811  0.00  0.00    +0.000 NA
ATOM      9  H   UNL     1      45.283   4.739   8.516  0.00  0.00    +0.000 HD
BRANCH   8  11
ATOM     10  C   UNL     1      44.413   1.546   9.202  0.00  0.00    +0.000 C 
ATOM     11  C   UNL     1      45.337   2.751   8.967  0.00  0.00    +0.000 C 
BRANCH  11  12
ATOM     12  C   UNL     1      46.185   2.494   7.735  0.00  0.00    +0.000 A 
ATOM     13  C   UNL     1      46.238   3.397   6.665  0.00  0.00    +0.000 A 
ATOM     14  C   UNL     1      47.029   3.118   5.555  0.00  0.00    +0.000 A 
ATOM     15  C   UNL     1      47.749   1.936   5.545  0.00  0.00    +0.000 A 
ATOM     16  N   UNL     1      47.722   1.032   6.549  0.00  0.00    +0.000 NA
ATOM     17  C   UNL     1      46.943   1.332   7.615  0.00  0.00    +0.000 A 
ENDBRANCH  11  12
ENDBRANCH   8  11
ENDBRANCH   7   8
ENDBRANCH   1   7
BRANCH   4  18
ATOM     18  C   UNL     1      47.983   6.738  13.640  0.00  0.00    +0.000 C 
BRANCH  18  19
ATOM     19  N   UNL     1      47.872   6.206  14.974  0.00  0.00    +0.000 N 
ATOM     20  C   UNL     1      48.946   6.184  15.825  0.00  0.00    +0.000 C 
ATOM     21  O   UNL     1      50.035   6.658  15.511  0.00  0.00    +0.000 OA
ATOM     22  H   UNL     1      47.073   5.605  15.165  0.00  0.00    +0.000 HD
BRANCH  20  23
ATOM     23  C   UNL     1      48.716   5.619  17.160  0.00  0.00    +0.000 A 
ATOM     24  C   UNL     1      48.882   4.257  17.372  0.00  0.00    +0.000 A 
ATOM     25  S   UNL     1      48.597   3.774  18.982  0.00  0.00    +0.000 S 
ATOM     26  C   UNL     1      48.199   5.361  19.446  0.00  0.00    +0.000 A 
ATOM     27  N   UNL     1      47.817   5.642  20.720  0.00  0.00    +0.000 NA
ATOM     28  C   UNL     1      47.521   6.880  20.926  0.00  0.00    +0.000 A 
ATOM     29  N   UNL     1      47.580   7.868  19.976  0.00  0.00    +0.000 N 
ATOM     30  C   UNL     1      47.983   7.635  18.683  0.00  0.00    +0.000 A 
ATOM     31  O   UNL     1      48.062   8.551  17.868  0.00  0.00    +0.000 OA
ATOM     32  C   UNL     1      48.308   6.254  18.395  0.00  0.00    +0.000 A 
ATOM     33  H   UNL     1      47.346   8.821  20.208  0.00  0.00    +0.000 HD
ENDBRANCH  20  23
ENDBRANCH  18  19
ENDBRANCH   4  18
TORSDOF 7
ENDMDL
MODEL 4
REMARK VINA RESULT:    -7.359      2.863      8.657
REMARK INTER + INTRA:         -11.694
REMARK INTER:                 -10.044
REMARK INTRA:                  -1.650
REMARK UNBOUND:                -1.324
REMARK  Name = 
REMARK  8 active torsions:
REMARK  status: ('A' for Active; 'I' for Inactive)
REMARK    1  A    between atoms: C_1  and  C_2
REMARK    2  A    between atoms: C_2  and  N_3
REMARK    3  A    between atoms: C_2  and  C_25
REMARK    4  A    between atoms: N_3  and  C_4
REMARK    5  A    between atoms: C_4  and  C_5
REMARK    6  A    between atoms: C_8  and  C_9
REMARK    7  A    between atoms: C_9  and  N_10
REMARK    8  A    between atoms: C_11  and  C_13
REMARK                            x       y       z     vdW  Elec       q    Type
REMARK                         _______ _______ _______ _____ _____    ______ ____
ROOT
ATOM      1  C   UNL     1      48.782   7.921  16.205  0.00  0.00    +0.000 A 
ATOM      2  C   UNL     1      48.867   6.725  15.477  0.00  0.00    +0.000 A 
ATOM      3  C   UNL     1      48.478   6.672  14.133  0.00  0.00    +0.000 A 
ATOM      4  C   UNL     1      48.005   7.820  13.484  0.00  0.00    +0.000 A 
ATOM      5  C   UNL     1      47.915   9.014  14.211  0.00  0.00    +0.000 A 
ATOM      6  C   UNL     1      48.305   9.066  15.554  0.00  0.00    +0.000 A 
ENDROOT
BRANCH   1   7
ATOM      7  C   UNL     1      49.100   7.946  17.685  0.00  0.00    +0.000 C 
BRANCH   7   8
ATOM      8  N   UNL     1      47.984   7.466  18.499  0.00  0.00    +0.000 NA
ATOM      9  H   UNL     1      47.218   7.213  17.870  0.00  0.00    +0.000 HD
BRANCH   8  11
ATOM     10  C   UNL     1      47.403   6.133  20.553  0.00  0.00    +0.000 C 
ATOM     11  C   UNL     1      48.311   6.291  19.323  0.00  0.00    +0.000 C 
BRANCH  11  12
ATOM     12  C   UNL     1      48.224   5.035  18.477  0.00  0.00    +0.000 A 
ATOM     13  C   UNL     1      49.348   4.244  18.200  0.00  0.00    +0.000 A 
ATOM     14  C   UNL     1      49.221   3.102  17.416  0.00  0.00    +0.000 A 
ATOM     15  C   UNL     1      47.967   2.780  16.927  0.00  0.00    +0.000 A 
ATOM     16  N   UNL     1      46.858   3.517  17.160  0.00  0.00    +0.000 NA
ATOM     17  C   UNL     1      47.014   4.623  17.926  0.00  0.00    +0.000 A 
ENDBRANCH  11  12
ENDBRANCH   8  11
ENDBRANCH   7   8
ENDBRANCH   1   7
BRANCH   4  18
ATOM     18  C   UNL     1      47.549   7.769  12.047  0.00  0.00    +0.000 C 
BRANCH  18  19
ATOM     19  N   UNL     1      46.855   6.540  11.758  0.00  0.00    +0.000 N 
ATOM     20  C   UNL     1      45.490   6.455  11.836  0.00  0.00    +0.000 C 
ATOM     21  O   UNL     1      44.792   7.428  12.107  0.00  0.00    +0.000 OA
ATOM     22  H   UNL     1      47.409   5.685  11.770  0.00  0.00    +0.000 HD
BRANCH  20  23
ATOM     23  C   UNL     1      44.893   5.151  11.519  0.00  0.00    +0.000 A 
ATOM     24  C   UNL     1      44.157   4.476  12.483  0.00  0.00    +0.000 A 
ATOM     25  S   UNL     1      43.516   2.993  11.940  0.00  0.00    +0.000 S 
ATOM     26  C   UNL     1      44.236   3.177  10.411  0.00  0.00    +0.000 A 
ATOM     27  N   UNL     1      44.105   2.219   9.455  0.00  0.00    +0.000 NA
ATOM     28  C   UNL     1      44.722   2.478   8.353  0.00  0.00    +0.000 A 
ATOM     29  N   UNL     1      45.451   3.615   8.112  0.00  0.00    +0.000 N 
ATOM     30  C   UNL     1      45.591   4.620   9.039  0.00  0.00    +0.000 A 
ATOM     31  O   UNL     1      46.219   5.643   8.775  0.00  0.00    +0.000 OA
ATOM     32  C   UNL     1      44.933   4.368  10.303  0.00  0.00    +0.000 A 
ATOM     33  H   UNL     1      45.899   3.761   7.221  0.00  0.00    +0.000 HD
ENDBRANCH  20  23
ENDBRANCH  18  19
ENDBRANCH   4  18
TORSDOF 7
ENDMDL
MODEL 5
REMARK VINA RESULT:    -6.920      3.435      8.209
REMARK INTER + INTRA:         -11.075
REMARK INTER:                  -9.445
REMARK INTRA:                  -1.630
REMARK UNBOUND:                -1.324
REMARK  Name = 
REMARK  8 active torsions:
REMARK  status: ('A' for Active; 'I' for Inactive)
REMARK    1  A    between atoms: C_1  and  C_2
REMARK    2  A    between atoms: C_2  and  N_3
REMARK    3  A    between atoms: C_2  and  C_25
REMARK    4  A    between atoms: N_3  and  C_4
REMARK    5  A    between atoms: C_4  and  C_5
REMARK    6  A    between atoms: C_8  and  C_9
REMARK    7  A    between atoms: C_9  and  N_10
REMARK    8  A    between atoms: C_11  and  C_13
REMARK                            x       y       z     vdW  Elec       q    Type
REMARK                         _______ _______ _______ _____ _____    ______ ____
ROOT
ATOM      1  C   UNL     1      48.824   7.914  16.223  0.00  0.00    +0.000 A 
ATOM      2  C   UNL     1      48.869   6.772  15.409  0.00  0.00    +0.000 A 
ATOM      3  C   UNL     1      48.680   6.867  14.025  0.00  0.00    +0.000 A 
ATOM      4  C   UNL     1      48.452   8.111  13.422  0.00  0.00    +0.000 A 
ATOM      5  C   UNL     1      48.403   9.251  14.234  0.00  0.00    +0.000 A 
ATOM      6  C   UNL     1      48.593   9.156  15.617  0.00  0.00    +0.000 A 
ENDROOT
BRANCH   1   7
ATOM      7  C   UNL     1      48.919   7.791  17.729  0.00  0.00    +0.000 C 
BRANCH   7   8
ATOM      8  N   UNL     1      49.939   6.830  18.143  0.00  0.00    +0.000 NA
ATOM      9  H   UNL     1      50.655   7.334  18.671  0.00  0.00    +0.000 HD
BRANCH   8  11
ATOM     10  C   UNL     1      48.133   6.106  19.740  0.00  0.00    +0.000 C 
ATOM     11  C   UNL     1      49.423   5.741  18.989  0.00  0.00    +0.000 C 
BRANCH  11  12
ATOM     12  C   UNL     1      49.171   4.511  18.137  0.00  0.00    +0.000 A 
ATOM     13  C   UNL     1      47.878   4.102  17.784  0.00  0.00    +0.000 A 
ATOM     14  C   UNL     1      47.694   2.965  17.002  0.00  0.00    +0.000 A 
ATOM     15  C   UNL     1      48.816   2.264  16.594  0.00  0.00    +0.000 A 
ATOM     16  N   UNL     1      50.080   2.616  16.918  0.00  0.00    +0.000 NA
ATOM     17  C   UNL     1      50.226   3.726  17.679  0.00  0.00    +0.000 A 
ENDBRANCH  11  12
ENDBRANCH   8  11
ENDBRANCH   7   8
ENDBRANCH   1   7
BRANCH   4  18
ATOM     18  C   UNL     1      48.212   8.223  11.938  0.00  0.00    +0.000 C 
BRANCH  18  19
ATOM     19  N   UNL     1      47.540   7.058  11.423  0.00  0.00    +0.000 N 
ATOM     20  C   UNL     1      46.175   7.009  11.318  0.00  0.00    +0.000 C 
ATOM     21  O   UNL     1      45.465   7.968  11.608  0.00  0.00    +0.000 OA
ATOM     22  H   UNL     1      48.072   6.190  11.406  0.00  0.00    +0.000 HD
BRANCH  20  23
ATOM     23  C   UNL     1      45.600   5.769  10.779  0.00  0.00    +0.000 A 
ATOM     24  C   UNL     1      45.757   5.463   9.434  0.00  0.00    +0.000 A 
ATOM     25  S   UNL     1      45.050   3.979   8.983  0.00  0.00    +0.000 S 
ATOM     26  C   UNL     1      44.470   3.712  10.559  0.00  0.00    +0.000 A 
ATOM     27  N   UNL     1      43.733   2.609  10.856  0.00  0.00    +0.000 NA
ATOM     28  C   UNL     1      43.339   2.547  12.083  0.00  0.00    +0.000 A 
ATOM     29  N   UNL     1      43.623   3.482  13.045  0.00  0.00    +0.000 N 
ATOM     30  C   UNL     1      44.384   4.599  12.796  0.00  0.00    +0.000 A 
ATOM     31  O   UNL     1      44.652   5.397  13.692  0.00  0.00    +0.000 OA
ATOM     32  C   UNL     1      44.835   4.727  11.427  0.00  0.00    +0.000 A 
ATOM     33  H   UNL     1      43.293   3.365  13.991  0.00  0.00    +0.000 HD
ENDBRANCH  20  23
ENDBRANCH  18  19
ENDBRANCH   4  18
TORSDOF 7
ENDMDL
MODEL 6
REMARK VINA RESULT:    -6.822      2.909      8.507
REMARK INTER + INTRA:         -10.938
REMARK INTER:                  -9.561
REMARK INTRA:                  -1.377
REMARK UNBOUND:                -1.324
REMARK  Name = 
REMARK  8 active torsions:
REMARK  status: ('A' for Active; 'I' for Inactive)
REMARK    1  A    between atoms: C_1  and  C_2
REMARK    2  A    between atoms: C_2  and  N_3
REMARK    3  A    between atoms: C_2  and  C_25
REMARK    4  A    between atoms: N_3  and  C_4
REMARK    5  A    between atoms: C_4  and  C_5
REMARK    6  A    between atoms: C_8  and  C_9
REMARK    7  A    between atoms: C_9  and  N_10
REMARK    8  A    between atoms: C_11  and  C_13
REMARK                            x       y       z     vdW  Elec       q    Type
REMARK                         _______ _______ _______ _____ _____    ______ ____
ROOT
ATOM      1  C   UNL     1      50.397   7.063  16.245  0.00  0.00    +0.000 A 
ATOM      2  C   UNL     1      51.037   7.649  15.143  0.00  0.00    +0.000 A 
ATOM      3  C   UNL     1      50.363   7.822  13.928  0.00  0.00    +0.000 A 
ATOM      4  C   UNL     1      49.028   7.423  13.793  0.00  0.00    +0.000 A 
ATOM      5  C   UNL     1      48.388   6.834  14.891  0.00  0.00    +0.000 A 
ATOM      6  C   UNL     1      49.061   6.662  16.106  0.00  0.00    +0.000 A 
ENDROOT
BRANCH   1   7
ATOM      7  C   UNL     1      51.163   6.778  17.520  0.00  0.00    +0.000 C 
BRANCH   7   8
ATOM      8  N   UNL     1      51.748   5.439  17.526  0.00  0.00    +0.000 NA
ATOM      9  H   UNL     1      52.734   5.524  17.783  0.00  0.00    +0.000 HD
BRANCH   8  11
ATOM     10  C   UNL     1      50.375   5.219  19.624  0.00  0.00    +0.000 C 
ATOM     11  C   UNL     1      51.104   4.512  18.471  0.00  0.00    +0.000 C 
BRANCH  11  12
ATOM     12  C   UNL     1      50.120   3.629  17.727  0.00  0.00    +0.000 A 
ATOM     13  C   UNL     1      48.740   3.875  17.742  0.00  0.00    +0.000 A 
ATOM     14  C   UNL     1      47.874   3.037  17.046  0.00  0.00    +0.000 A 
ATOM     15  C   UNL     1      48.415   1.968  16.352  0.00  0.00    +0.000 A 
ATOM     16  N   UNL     1      49.736   1.688  16.317  0.00  0.00    +0.000 NA
ATOM     17  C   UNL     1      50.553   2.521  17.004  0.00  0.00    +0.000 A 
ENDBRANCH  11  12
ENDBRANCH   8  11
ENDBRANCH   7   8
ENDBRANCH   1   7
BRANCH   4  18
ATOM     18  C   UNL     1      48.301   7.571  12.480  0.00  0.00    +0.000 C 
BRANCH  18  19
ATOM     19  N   UNL     1      47.435   6.448  12.227  0.00  0.00    +0.000 N 
ATOM     20  C   UNL     1      46.083   6.607  12.083  0.00  0.00    +0.000 C 
ATOM     21  O   UNL     1      45.550   7.713  12.113  0.00  0.00    +0.000 OA
ATOM     22  H   UNL     1      47.809   5.524  12.435  0.00  0.00    +0.000 HD
BRANCH  20  23
ATOM     23  C   UNL     1      45.301   5.390  11.828  0.00  0.00    +0.000 A 
ATOM     24  C   UNL     1      44.594   4.793  12.864  0.00  0.00    +0.000 A 
ATOM     25  S   UNL     1      43.724   3.407  12.389  0.00  0.00    +0.000 S 
ATOM     26  C   UNL     1      44.295   3.527  10.792  0.00  0.00    +0.000 A 
ATOM     27  N   UNL     1      43.948   2.606   9.853  0.00  0.00    +0.000 NA
ATOM     28  C   UNL     1      44.471   2.807   8.692  0.00  0.00    +0.000 A 
ATOM     29  N   UNL     1      45.304   3.851   8.377  0.00  0.00    +0.000 N 
ATOM     30  C   UNL     1      45.662   4.817   9.286  0.00  0.00    +0.000 A 
ATOM     31  O   UNL     1      46.379   5.761   8.960  0.00  0.00    +0.000 OA
ATOM     32  C   UNL     1      45.116   4.627  10.613  0.00  0.00    +0.000 A 
ATOM     33  H   UNL     1      45.669   3.956   7.443  0.00  0.00    +0.000 HD
ENDBRANCH  20  23
ENDBRANCH  18  19
ENDBRANCH   4  18
TORSDOF 7
ENDMDL
MODEL 7
REMARK VINA RESULT:    -6.809      3.106      4.851
REMARK INTER + INTRA:         -10.919
REMARK INTER:                  -9.636
REMARK INTRA:                  -1.283
REMARK UNBOUND:                -1.324
REMARK  Name = 
REMARK  8 active torsions:
REMARK  status: ('A' for Active; 'I' for Inactive)
REMARK    1  A    between atoms: C_1  and  C_2
REMARK    2  A    between atoms: C_2  and  N_3
REMARK    3  A    between atoms: C_2  and  C_25
REMARK    4  A    between atoms: N_3  and  C_4
REMARK    5  A    between atoms: C_4  and  C_5
REMARK    6  A    between atoms: C_8  and  C_9
REMARK    7  A    between atoms: C_9  and  N_10
REMARK    8  A    between atoms: C_11  and  C_13
REMARK                            x       y       z     vdW  Elec       q    Type
REMARK                         _______ _______ _______ _____ _____    ______ ____
ROOT
ATOM      1  C   UNL     1      44.965   5.065  11.073  0.00  0.00    +0.000 A 
ATOM      2  C   UNL     1      45.078   4.402  12.305  0.00  0.00    +0.000 A 
ATOM      3  C   UNL     1      46.032   4.798  13.250  0.00  0.00    +0.000 A 
ATOM      4  C   UNL     1      46.889   5.874  12.987  0.00  0.00    +0.000 A 
ATOM      5  C   UNL     1      46.781   6.534  11.756  0.00  0.00    +0.000 A 
ATOM      6  C   UNL     1      45.826   6.139  10.812  0.00  0.00    +0.000 A 
ENDROOT
BRANCH   1   7
ATOM      7  C   UNL     1      44.007   4.563  10.013  0.00  0.00    +0.000 C 
BRANCH   7   8
ATOM      8  N   UNL     1      44.701   4.123   8.804  0.00  0.00    +0.000 NA
ATOM      9  H   UNL     1      45.410   4.824   8.572  0.00  0.00    +0.000 HD
BRANCH   8  11
ATOM     10  C   UNL     1      44.399   1.654   9.184  0.00  0.00    +0.000 C 
ATOM     11  C   UNL     1      45.371   2.819   8.943  0.00  0.00    +0.000 C 
BRANCH  11  12
ATOM     12  C   UNL     1      46.192   2.534   7.700  0.00  0.00    +0.000 A 
ATOM     13  C   UNL     1      46.211   3.406   6.602  0.00  0.00    +0.000 A 
ATOM     14  C   UNL     1      46.977   3.102   5.482  0.00  0.00    +0.000 A 
ATOM     15  C   UNL     1      47.708   1.926   5.489  0.00  0.00    +0.000 A 
ATOM     16  N   UNL     1      47.713   1.052   6.519  0.00  0.00    +0.000 NA
ATOM     17  C   UNL     1      46.958   1.376   7.595  0.00  0.00    +0.000 A 
ENDBRANCH  11  12
ENDBRANCH   8  11
ENDBRANCH   7   8
ENDBRANCH   1   7
BRANCH   4  18
ATOM     18  C   UNL     1      47.945   6.288  13.980  0.00  0.00    +0.000 C 
BRANCH  18  19
ATOM     19  N   UNL     1      48.975   7.079  13.356  0.00  0.00    +0.000 N 
ATOM     20  C   UNL     1      49.825   7.857  14.097  0.00  0.00    +0.000 C 
ATOM     21  O   UNL     1      49.784   7.879  15.324  0.00  0.00    +0.000 OA
ATOM     22  H   UNL     1      48.874   7.261  12.359  0.00  0.00    +0.000 HD
BRANCH  20  23
ATOM     23  C   UNL     1      50.835   8.620  13.353  0.00  0.00    +0.000 A 
ATOM     24  C   UNL     1      52.178   8.492  13.681  0.00  0.00    +0.000 A 
ATOM     25  S   UNL     1      53.214   9.429  12.704  0.00  0.00    +0.000 S 
ATOM     26  C   UNL     1      51.903  10.073  11.834  0.00  0.00    +0.000 A 
ATOM     27  N   UNL     1      52.099  10.989  10.849  0.00  0.00    +0.000 NA
ATOM     28  C   UNL     1      51.016  11.410  10.290  0.00  0.00    +0.000 A 
ATOM     29  N   UNL     1      49.751  10.991  10.618  0.00  0.00    +0.000 N 
ATOM     30  C   UNL     1      49.507  10.051  11.589  0.00  0.00    +0.000 A 
ATOM     31  O   UNL     1      48.364   9.670  11.831  0.00  0.00    +0.000 OA
ATOM     32  C   UNL     1      50.691   9.560  12.262  0.00  0.00    +0.000 A 
ATOM     33  H   UNL     1      48.945  11.353  10.131  0.00  0.00    +0.000 HD
ENDBRANCH  20  23
ENDBRANCH  18  19
ENDBRANCH   4  18
TORSDOF 7
ENDMDL
MODEL 8
REMARK VINA RESULT:    -6.803      3.023      4.303
REMARK INTER + INTRA:         -10.911
REMARK INTER:                 -10.182
REMARK INTRA:                  -0.729
REMARK UNBOUND:                -1.324
REMARK  Name = 
REMARK  8 active torsions:
REMARK  status: ('A' for Active; 'I' for Inactive)
REMARK    1  A    between atoms: C_1  and  C_2
REMARK    2  A    between atoms: C_2  and  N_3
REMARK    3  A    between atoms: C_2  and  C_25
REMARK    4  A    between atoms: N_3  and  C_4
REMARK    5  A    between atoms: C_4  and  C_5
REMARK    6  A    between atoms: C_8  and  C_9
REMARK    7  A    between atoms: C_9  and  N_10
REMARK    8  A    between atoms: C_11  and  C_13
REMARK                            x       y       z     vdW  Elec       q    Type
REMARK                         _______ _______ _______ _____ _____    ______ ____
ROOT
ATOM      1  C   UNL     1      46.690   4.936  13.630  0.00  0.00    +0.000 A 
ATOM      2  C   UNL     1      46.886   4.382  14.903  0.00  0.00    +0.000 A 
ATOM      3  C   UNL     1      47.771   4.969  15.815  0.00  0.00    +0.000 A 
ATOM      4  C   UNL     1      48.473   6.133  15.476  0.00  0.00    +0.000 A 
ATOM      5  C   UNL     1      48.282   6.685  14.203  0.00  0.00    +0.000 A 
ATOM      6  C   UNL     1      47.396   6.098  13.292  0.00  0.00    +0.000 A 
ENDROOT
BRANCH   1   7
ATOM      7  C   UNL     1      45.816   4.236  12.610  0.00  0.00    +0.000 C 
BRANCH   7   8
ATOM      8  N   UNL     1      44.471   3.975  13.121  0.00  0.00    +0.000 NA
ATOM      9  H   UNL     1      44.260   4.677  13.834  0.00  0.00    +0.000 HD
BRANCH   8  11
ATOM     10  C   UNL     1      42.747   5.412  11.982  0.00  0.00    +0.000 C 
ATOM     11  C   UNL     1      43.421   4.036  12.090  0.00  0.00    +0.000 C 
BRANCH  11  12
ATOM     12  C   UNL     1      44.009   3.663  10.742  0.00  0.00    +0.000 A 
ATOM     13  C   UNL     1      44.449   4.629   9.827  0.00  0.00    +0.000 A 
ATOM     14  C   UNL     1      44.979   4.241   8.601  0.00  0.00    +0.000 A 
ATOM     15  C   UNL     1      45.055   2.887   8.322  0.00  0.00    +0.000 A 
ATOM     16  N   UNL     1      44.637   1.921   9.168  0.00  0.00    +0.000 NA
ATOM     17  C   UNL     1      44.125   2.331  10.353  0.00  0.00    +0.000 A 
ENDBRANCH  11  12
ENDBRANCH   8  11
ENDBRANCH   7   8
ENDBRANCH   1   7
BRANCH   4  18
ATOM     18  C   UNL     1      49.456   6.756  16.434  0.00  0.00    +0.000 C 
BRANCH  18  19
ATOM     19  N   UNL     1      50.454   5.806  16.858  0.00  0.00    +0.000 N 
ATOM     20  C   UNL     1      50.655   5.526  18.183  0.00  0.00    +0.000 C 
ATOM     21  O   UNL     1      49.967   6.029  19.067  0.00  0.00    +0.000 OA
ATOM     22  H   UNL     1      51.177   5.567  16.182  0.00  0.00    +0.000 HD
BRANCH  20  23
ATOM     23  C   UNL     1      51.699   4.541  18.496  0.00  0.00    +0.000 A 
ATOM     24  C   UNL     1      52.805   4.921  19.243  0.00  0.00    +0.000 A 
ATOM     25  S   UNL     1      53.905   3.651  19.534  0.00  0.00    +0.000 S 
ATOM     26  C   UNL     1      52.964   2.557  18.635  0.00  0.00    +0.000 A 
ATOM     27  N   UNL     1      53.367   1.270  18.456  0.00  0.00    +0.000 NA
ATOM     28  C   UNL     1      52.570   0.559  17.734  0.00  0.00    +0.000 A 
ATOM     29  N   UNL     1      51.399   1.012  17.180  0.00  0.00    +0.000 N 
ATOM     30  C   UNL     1      50.941   2.295  17.354  0.00  0.00    +0.000 A 
ATOM     31  O   UNL     1      49.868   2.657  16.876  0.00  0.00    +0.000 OA
ATOM     32  C   UNL     1      51.811   3.142  18.142  0.00  0.00    +0.000 A 
ATOM     33  H   UNL     1      50.814   0.397  16.635  0.00  0.00    +0.000 HD
ENDBRANCH  20  23
ENDBRANCH  18  19
ENDBRANCH   4  18
TORSDOF 7
ENDMDL
MODEL 9
REMARK VINA RESULT:    -6.548      4.499      6.914
REMARK INTER + INTRA:         -10.551
REMARK INTER:                  -9.631
REMARK INTRA:                  -0.920
REMARK UNBOUND:                -1.324
REMARK  Name = 
REMARK  8 active torsions:
REMARK  status: ('A' for Active; 'I' for Inactive)
REMARK    1  A    between atoms: C_1  and  C_2
REMARK    2  A    between atoms: C_2  and  N_3
REMARK    3  A    between atoms: C_2  and  C_25
REMARK    4  A    between atoms: N_3  and  C_4
REMARK    5  A    between atoms: C_4  and  C_5
REMARK    6  A    between atoms: C_8  and  C_9
REMARK    7  A    between atoms: C_9  and  N_10
REMARK    8  A    between atoms: C_11  and  C_13
REMARK                            x       y       z     vdW  Elec       q    Type
REMARK                         _______ _______ _______ _____ _____    ______ ____
ROOT
ATOM      1  C   UNL     1      45.313   8.128  12.002  0.00  0.00    +0.000 A 
ATOM      2  C   UNL     1      46.611   7.933  12.498  0.00  0.00    +0.000 A 
ATOM      3  C   UNL     1      46.950   6.757  13.179  0.00  0.00    +0.000 A 
ATOM      4  C   UNL     1      46.001   5.746  13.369  0.00  0.00    +0.000 A 
ATOM      5  C   UNL     1      44.704   5.941  12.878  0.00  0.00    +0.000 A 
ATOM      6  C   UNL     1      44.365   7.115  12.196  0.00  0.00    +0.000 A 
ENDROOT
BRANCH   1   7
ATOM      7  C   UNL     1      44.922   9.445  11.364  0.00  0.00    +0.000 C 
BRANCH   7   8
ATOM      8  N   UNL     1      43.908  10.156  12.139  0.00  0.00    +0.000 NA
ATOM      9  H   UNL     1      44.362  10.561  12.961  0.00  0.00    +0.000 HD
BRANCH   8  11
ATOM     10  C   UNL     1      43.518  11.208   9.886  0.00  0.00    +0.000 C 
ATOM     11  C   UNL     1      43.243  11.240  11.398  0.00  0.00    +0.000 C 
BRANCH  11  12
ATOM     12  C   UNL     1      41.746  11.174  11.633  0.00  0.00    +0.000 A 
ATOM     13  C   UNL     1      40.951  10.155  11.092  0.00  0.00    +0.000 A 
ATOM     14  C   UNL     1      39.581  10.136  11.332  0.00  0.00    +0.000 A 
ATOM     15  C   UNL     1      39.040  11.144  12.112  0.00  0.00    +0.000 A 
ATOM     16  N   UNL     1      39.765  12.151  12.646  0.00  0.00    +0.000 NA
ATOM     17  C   UNL     1      41.095  12.141  12.394  0.00  0.00    +0.000 A 
ENDBRANCH  11  12
ENDBRANCH   8  11
ENDBRANCH   7   8
ENDBRANCH   1   7
BRANCH   4  18
ATOM     18  C   UNL     1      46.343   4.491  14.132  0.00  0.00    +0.000 C 
BRANCH  18  19
ATOM     19  N   UNL     1      47.444   4.707  15.036  0.00  0.00    +0.000 N 
ATOM     20  C   UNL     1      47.450   4.167  16.294  0.00  0.00    +0.000 C 
ATOM     21  O   UNL     1      46.547   3.437  16.695  0.00  0.00    +0.000 OA
ATOM     22  H   UNL     1      48.067   5.483  14.823  0.00  0.00    +0.000 HD
BRANCH  20  23
ATOM     23  C   UNL     1      48.625   4.455  17.128  0.00  0.00    +0.000 A 
ATOM     24  C   UNL     1      48.705   5.657  17.817  0.00  0.00    +0.000 A 
ATOM     25  S   UNL     1      50.121   5.817  18.753  0.00  0.00    +0.000 S 
ATOM     26  C   UNL     1      50.700   4.304  18.236  0.00  0.00    +0.000 A 
ATOM     27  N   UNL     1      51.909   3.839  18.648  0.00  0.00    +0.000 NA
ATOM     28  C   UNL     1      52.233   2.691  18.159  0.00  0.00    +0.000 A 
ATOM     29  N   UNL     1      51.454   1.956  17.302  0.00  0.00    +0.000 N 
ATOM     30  C   UNL     1      50.216   2.375  16.878  0.00  0.00    +0.000 A 
ATOM     31  O   UNL     1      49.527   1.673  16.140  0.00  0.00    +0.000 OA
ATOM     32  C   UNL     1      49.813   3.670  17.383  0.00  0.00    +0.000 A 
ATOM     33  H   UNL     1      51.762   1.056  16.967  0.00  0.00    +0.000 HD
ENDBRANCH  20  23
ENDBRANCH  18  19
ENDBRANCH   4  18
TORSDOF 7
ENDMDL
