MODEL 1
REMARK VINA RESULT:    -8.375      0.000      0.000
REMARK INTER + INTRA:         -12.706
REMARK INTER:                 -11.802
REMARK INTRA:                  -0.904
REMARK UNBOUND:                -0.904
REMARK  Name = 
REMARK  7 active torsions:
REMARK  status: ('A' for Active; 'I' for Inactive)
REMARK    1  A    between atoms: C_2  and  C_20
REMARK    2  A    between atoms: N_3  and  C_4
REMARK    3  A    between atoms: C_4  and  C_5
REMARK    4  A    between atoms: C_8  and  C_9
REMARK    5  A    between atoms: C_9  and  N_10
REMARK    6  A    between atoms: N_10  and  C_11
REMARK    7  A    between atoms: C_11  and  C_12
REMARK                            x       y       z     vdW  Elec       q    Type
REMARK                         _______ _______ _______ _____ _____    ______ ____
ROOT
ATOM      1  C   UNL     1      45.348   6.317  12.271  0.00  0.00    +0.000 A 
ATOM      2  C   UNL     1      45.958   5.227  12.911  0.00  0.00    +0.000 A 
ATOM      3  C   UNL     1      47.090   5.403  13.717  0.00  0.00    +0.000 A 
ATOM      4  C   UNL     1      47.653   6.677  13.894  0.00  0.00    +0.000 A 
ATOM      5  C   UNL     1      47.053   7.762  13.249  0.00  0.00    +0.000 A 
ATOM      6  C   UNL     1      45.901   7.593  12.470  0.00  0.00    +0.000 A 
ENDROOT
BRANCH   1   7
ATOM      7  C   UNL     1      44.135   6.144  11.395  0.00  0.00    +0.000 C 
BRANCH   7  10
ATOM      8  O   UNL     1      45.899   5.700   9.159  0.00  0.00    +0.000 OA
ATOM      9  C   UNL     1      45.101   4.823   9.518  0.00  0.00    +0.000 C 
ATOM     10  N   UNL     1      44.233   4.978  10.572  0.00  0.00    +0.000 N 
ATOM     11  H   UNL     1      43.412   4.369  10.487  0.00  0.00    +0.000 HD
BRANCH   9  12
ATOM     12  C   UNL     1      45.031   3.478   8.955  0.00  0.00    +0.000 A 
ATOM     13  N   UNL     1      44.396   2.488   9.631  0.00  0.00    +0.000 NA
ATOM     14  N   UNL     1      44.898   1.373   9.080  0.00  0.00    +0.000 N 
ATOM     15  C   UNL     1      45.890   1.609   8.182  0.00  0.00    +0.000 A 
ATOM     16  C   UNL     1      46.900   0.802   7.654  0.00  0.00    +0.000 A 
ATOM     17  C   UNL     1      47.645   1.344   6.604  0.00  0.00    +0.000 A 
ATOM     18  C   UNL     1      47.335   2.598   6.072  0.00  0.00    +0.000 A 
ATOM     19  C   UNL     1      46.400   3.432   6.695  0.00  0.00    +0.000 A 
ATOM     20  C   UNL     1      45.734   2.945   7.836  0.00  0.00    +0.000 A 
ATOM     21  H   UNL     1      44.525   0.476   9.383  0.00  0.00    +0.000 HD
ENDBRANCH   9  12
ENDBRANCH   7  10
ENDBRANCH   1   7
BRANCH   4  22
ATOM     22  C   UNL     1      48.859   6.903  14.786  0.00  0.00    +0.000 C 
BRANCH  22  23
ATOM     23  N   UNL     1      48.467   7.303  16.132  0.00  0.00    +0.000 NA
ATOM     24  H   UNL     1      47.483   7.065  16.271  0.00  0.00    +0.000 HD
BRANCH  23  25
ATOM     25  C   UNL     1      49.248   6.609  17.167  0.00  0.00    +0.000 C 
BRANCH  25  26
ATOM     26  C   UNL     1      48.885   5.134  17.228  0.00  0.00    +0.000 A 
ATOM     27  C   UNL     1      47.553   4.745  17.374  0.00  0.00    +0.000 A 
ATOM     28  C   UNL     1      47.238   3.389  17.376  0.00  0.00    +0.000 A 
ATOM     29  C   UNL     1      48.260   2.456  17.256  0.00  0.00    +0.000 A 
ATOM     30  C   UNL     1      49.558   2.922  17.133  0.00  0.00    +0.000 A 
ATOM     31  N   UNL     1      49.893   4.233  17.107  0.00  0.00    +0.000 NA
ENDBRANCH  25  26
ENDBRANCH  23  25
ENDBRANCH  22  23
ENDBRANCH   4  22
TORSDOF 7
ENDMDL
MODEL 2
REMARK VINA RESULT:    -8.179      1.872      8.577
REMARK INTER + INTRA:         -12.430
REMARK INTER:                 -11.262
REMARK INTRA:                  -1.167
REMARK UNBOUND:                -0.904
REMARK  Name = 
REMARK  7 active torsions:
REMARK  status: ('A' for Active; 'I' for Inactive)
REMARK    1  A    between atoms: C_2  and  C_20
REMARK    2  A    between atoms: N_3  and  C_4
REMARK    3  A    between atoms: C_4  and  C_5
REMARK    4  A    between atoms: C_8  and  C_9
REMARK    5  A    between atoms: C_9  and  N_10
REMARK    6  A    between atoms: N_10  and  C_11
REMARK    7  A    between atoms: C_11  and  C_12
REMARK                            x       y       z     vdW  Elec       q    Type
REMARK                         _______ _______ _______ _____ _____    ______ ____
ROOT
ATOM      1  C   UNL     1      47.006   6.334  12.648  0.00  0.00    +0.000 A 
ATOM      2  C   UNL     1      46.367   5.391  13.468  0.00  0.00    +0.000 A 
ATOM      3  C   UNL     1      45.285   4.638  12.994  0.00  0.00    +0.000 A 
ATOM      4  C   UNL     1      44.803   4.818  11.687  0.00  0.00    +0.000 A 
ATOM      5  C   UNL     1      45.432   5.765  10.874  0.00  0.00    +0.000 A 
ATOM      6  C   UNL     1      46.536   6.494  11.335  0.00  0.00    +0.000 A 
ENDROOT
BRANCH   1   7
ATOM      7  C   UNL     1      48.166   7.157  13.144  0.00  0.00    +0.000 C 
BRANCH   7  10
ATOM      8  O   UNL     1      48.389   8.508  15.681  0.00  0.00    +0.000 OA
ATOM      9  C   UNL     1      48.775   7.338  15.553  0.00  0.00    +0.000 C 
ATOM     10  N   UNL     1      48.700   6.644  14.369  0.00  0.00    +0.000 N 
ATOM     11  H   UNL     1      49.390   5.887  14.322  0.00  0.00    +0.000 HD
BRANCH   9  12
ATOM     12  C   UNL     1      49.265   6.497  16.640  0.00  0.00    +0.000 A 
ATOM     13  N   UNL     1      50.369   6.860  17.339  0.00  0.00    +0.000 NA
ATOM     14  N   UNL     1      50.765   5.709  17.903  0.00  0.00    +0.000 N 
ATOM     15  C   UNL     1      50.039   4.631  17.505  0.00  0.00    +0.000 A 
ATOM     16  C   UNL     1      50.290   3.258  17.536  0.00  0.00    +0.000 A 
ATOM     17  C   UNL     1      49.224   2.422  17.195  0.00  0.00    +0.000 A 
ATOM     18  C   UNL     1      47.960   2.945  16.913  0.00  0.00    +0.000 A 
ATOM     19  C   UNL     1      47.767   4.323  16.773  0.00  0.00    +0.000 A 
ATOM     20  C   UNL     1      48.870   5.173  16.987  0.00  0.00    +0.000 A 
ATOM     21  H   UNL     1      51.558   5.733  18.540  0.00  0.00    +0.000 HD
ENDBRANCH   9  12
ENDBRANCH   7  10
ENDBRANCH   1   7
BRANCH   4  22
ATOM     22  C   UNL     1      43.654   3.996  11.137  0.00  0.00    +0.000 C 
BRANCH  22  23
ATOM     23  N   UNL     1      43.859   3.655   9.734  0.00  0.00    +0.000 NA
ATOM     24  H   UNL     1      44.487   4.344   9.318  0.00  0.00    +0.000 HD
BRANCH  23  25
ATOM     25  C   UNL     1      44.474   2.329   9.569  0.00  0.00    +0.000 C 
BRANCH  25  26
ATOM     26  C   UNL     1      45.512   2.342   8.458  0.00  0.00    +0.000 A 
ATOM     27  C   UNL     1      45.700   3.491   7.689  0.00  0.00    +0.000 A 
ATOM     28  C   UNL     1      46.692   3.498   6.711  0.00  0.00    +0.000 A 
ATOM     29  C   UNL     1      47.452   2.354   6.510  0.00  0.00    +0.000 A 
ATOM     30  C   UNL     1      47.191   1.249   7.303  0.00  0.00    +0.000 A 
ATOM     31  N   UNL     1      46.249   1.218   8.274  0.00  0.00    +0.000 NA
ENDBRANCH  25  26
ENDBRANCH  23  25
ENDBRANCH  22  23
ENDBRANCH   4  22
TORSDOF 7
ENDMDL
MODEL 3
REMARK VINA RESULT:    -8.142      2.449      9.519
REMARK INTER + INTRA:         -12.378
REMARK INTER:                 -11.545
REMARK INTRA:                  -0.833
REMARK UNBOUND:                -0.904
REMARK  Name = 
REMARK  7 active torsions:
REMARK  status: ('A' for Active; 'I' for Inactive)
REMARK    1  A    between atoms: C_2  and  C_20
REMARK    2  A    between atoms: N_3  and  C_4
REMARK    3  A    between atoms: C_4  and  C_5
REMARK    4  A    between atoms: C_8  and  C_9
REMARK    5  A    between atoms: C_9  and  N_10
REMARK    6  A    between atoms: N_10  and  C_11
REMARK    7  A    between atoms: C_11  and  C_12
REMARK                            x       y       z     vdW  Elec       q    Type
REMARK                         _______ _______ _______ _____ _____    ______ ____
ROOT
ATOM      1  C   UNL     1      46.941   6.031  13.076  0.00  0.00    +0.000 A 
ATOM      2  C   UNL     1      46.748   6.565  11.792  0.00  0.00    +0.000 A 
ATOM      3  C   UNL     1      45.679   6.147  10.989  0.00  0.00    +0.000 A 
ATOM      4  C   UNL     1      44.779   5.170  11.444  0.00  0.00    +0.000 A 
ATOM      5  C   UNL     1      44.977   4.629  12.718  0.00  0.00    +0.000 A 
ATOM      6  C   UNL     1      46.025   5.071  13.536  0.00  0.00    +0.000 A 
ENDROOT
BRANCH   1   7
ATOM      7  C   UNL     1      48.089   6.464  13.949  0.00  0.00    +0.000 C 
BRANCH   7  10
ATOM      8  O   UNL     1      50.112   6.169  15.980  0.00  0.00    +0.000 OA
ATOM      9  C   UNL     1      48.924   5.928  16.233  0.00  0.00    +0.000 C 
ATOM     10  N   UNL     1      47.916   6.045  15.306  0.00  0.00    +0.000 N 
ATOM     11  H   UNL     1      47.111   5.454  15.536  0.00  0.00    +0.000 HD
BRANCH   9  12
ATOM     12  C   UNL     1      48.404   5.588  17.554  0.00  0.00    +0.000 A 
ATOM     13  N   UNL     1      47.299   4.811  17.673  0.00  0.00    +0.000 NA
ATOM     14  N   UNL     1      46.873   5.075  18.917  0.00  0.00    +0.000 N 
ATOM     15  C   UNL     1      47.581   6.056  19.538  0.00  0.00    +0.000 A 
ATOM     16  C   UNL     1      47.302   6.877  20.631  0.00  0.00    +0.000 A 
ATOM     17  C   UNL     1      48.355   7.664  21.104  0.00  0.00    +0.000 A 
ATOM     18  C   UNL     1      49.633   7.568  20.548  0.00  0.00    +0.000 A 
ATOM     19  C   UNL     1      49.856   6.829  19.381  0.00  0.00    +0.000 A 
ATOM     20  C   UNL     1      48.767   6.133  18.819  0.00  0.00    +0.000 A 
ATOM     21  H   UNL     1      46.073   4.557  19.273  0.00  0.00    +0.000 HD
ENDBRANCH   9  12
ENDBRANCH   7  10
ENDBRANCH   1   7
BRANCH   4  22
ATOM     22  C   UNL     1      43.595   4.721  10.610  0.00  0.00    +0.000 C 
BRANCH  22  23
ATOM     23  N   UNL     1      44.016   4.185   9.321  0.00  0.00    +0.000 NA
ATOM     24  H   UNL     1      44.812   4.730   8.985  0.00  0.00    +0.000 HD
BRANCH  23  25
ATOM     25  C   UNL     1      44.440   2.780   9.415  0.00  0.00    +0.000 C 
BRANCH  25  26
ATOM     26  C   UNL     1      45.565   2.482   8.437  0.00  0.00    +0.000 A 
ATOM     27  C   UNL     1      46.084   3.499   7.635  0.00  0.00    +0.000 A 
ATOM     28  C   UNL     1      47.150   3.216   6.785  0.00  0.00    +0.000 A 
ATOM     29  C   UNL     1      47.654   1.923   6.739  0.00  0.00    +0.000 A 
ATOM     30  C   UNL     1      47.073   0.966   7.554  0.00  0.00    +0.000 A 
ATOM     31  N   UNL     1      46.051   1.216   8.405  0.00  0.00    +0.000 NA
ENDBRANCH  25  26
ENDBRANCH  23  25
ENDBRANCH  22  23
ENDBRANCH   4  22
TORSDOF 7
ENDMDL
MODEL 4
REMARK VINA RESULT:    -8.096      1.509      1.723
REMARK INTER + INTRA:         -12.313
REMARK INTER:                 -11.603
REMARK INTRA:                  -0.710
REMARK UNBOUND:                -0.904
REMARK  Name = 
REMARK  7 active torsions:
REMARK  status: ('A' for Active; 'I' for Inactive)
REMARK    1  A    between atoms: C_2  and  C_20
REMARK    2  A    between atoms: N_3  and  C_4
REMARK    3  A    between atoms: C_4  and  C_5
REMARK    4  A    between atoms: C_8  and  C_9
REMARK    5  A    between atoms: C_9  and  N_10
REMARK    6  A    between atoms: N_10  and  C_11
REMARK    7  A    between atoms: C_11  and  C_12
REMARK                            x       y       z     vdW  Elec       q    Type
REMARK                         _______ _______ _______ _____ _____    ______ ____
ROOT
ATOM      1  C   UNL     1      46.064   7.394  12.122  0.00  0.00    +0.000 A 
ATOM      2  C   UNL     1      47.210   6.649  11.803  0.00  0.00    +0.000 A 
ATOM      3  C   UNL     1      48.418   6.858  12.479  0.00  0.00    +0.000 A 
ATOM      4  C   UNL     1      48.518   7.831  13.487  0.00  0.00    +0.000 A 
ATOM      5  C   UNL     1      47.381   8.581  13.798  0.00  0.00    +0.000 A 
ATOM      6  C   UNL     1      46.162   8.349  13.147  0.00  0.00    +0.000 A 
ENDROOT
BRANCH   1   7
ATOM      7  C   UNL     1      44.759   7.187  11.400  0.00  0.00    +0.000 C 
BRANCH   7  10
ATOM      8  O   UNL     1      44.229   4.557  12.454  0.00  0.00    +0.000 OA
ATOM      9  C   UNL     1      44.467   4.718  11.249  0.00  0.00    +0.000 C 
ATOM     10  N   UNL     1      44.732   5.945  10.690  0.00  0.00    +0.000 N 
ATOM     11  H   UNL     1      45.278   5.864   9.826  0.00  0.00    +0.000 HD
BRANCH   9  12
ATOM     12  C   UNL     1      44.404   3.668  10.238  0.00  0.00    +0.000 A 
ATOM     13  N   UNL     1      43.755   2.506  10.502  0.00  0.00    +0.000 NA
ATOM     14  N   UNL     1      44.264   1.660   9.593  0.00  0.00    +0.000 N 
ATOM     15  C   UNL     1      45.272   2.197   8.855  0.00  0.00    +0.000 A 
ATOM     16  C   UNL     1      46.288   1.627   8.087  0.00  0.00    +0.000 A 
ATOM     17  C   UNL     1      47.052   2.505   7.314  0.00  0.00    +0.000 A 
ATOM     18  C   UNL     1      46.754   3.869   7.266  0.00  0.00    +0.000 A 
ATOM     19  C   UNL     1      45.810   4.429   8.134  0.00  0.00    +0.000 A 
ATOM     20  C   UNL     1      45.123   3.568   9.013  0.00  0.00    +0.000 A 
ATOM     21  H   UNL     1      43.884   0.718   9.547  0.00  0.00    +0.000 HD
ENDBRANCH   9  12
ENDBRANCH   7  10
ENDBRANCH   1   7
BRANCH   4  22
ATOM     22  C   UNL     1      49.804   8.057  14.257  0.00  0.00    +0.000 C 
BRANCH  22  23
ATOM     23  N   UNL     1      50.227   6.855  14.966  0.00  0.00    +0.000 NA
ATOM     24  H   UNL     1      51.247   6.853  15.028  0.00  0.00    +0.000 HD
BRANCH  23  25
ATOM     25  C   UNL     1      49.694   6.802  16.336  0.00  0.00    +0.000 C 
BRANCH  25  26
ATOM     26  C   UNL     1      49.022   5.466  16.610  0.00  0.00    +0.000 A 
ATOM     27  C   UNL     1      49.409   4.700  17.711  0.00  0.00    +0.000 A 
ATOM     28  C   UNL     1      48.745   3.505  17.973  0.00  0.00    +0.000 A 
ATOM     29  C   UNL     1      47.730   3.093  17.120  0.00  0.00    +0.000 A 
ATOM     30  C   UNL     1      47.417   3.901  16.040  0.00  0.00    +0.000 A 
ATOM     31  N   UNL     1      48.030   5.076  15.770  0.00  0.00    +0.000 NA
ENDBRANCH  25  26
ENDBRANCH  23  25
ENDBRANCH  22  23
ENDBRANCH   4  22
TORSDOF 7
ENDMDL
MODEL 5
REMARK VINA RESULT:    -7.545      1.536      2.134
REMARK INTER + INTRA:         -11.536
REMARK INTER:                 -10.982
REMARK INTRA:                  -0.555
REMARK UNBOUND:                -0.904
REMARK  Name = 
REMARK  7 active torsions:
REMARK  status: ('A' for Active; 'I' for Inactive)
REMARK    1  A    between atoms: C_2  and  C_20
REMARK    2  A    between atoms: N_3  and  C_4
REMARK    3  A    between atoms: C_4  and  C_5
REMARK    4  A    between atoms: C_8  and  C_9
REMARK    5  A    between atoms: C_9  and  N_10
REMARK    6  A    between atoms: N_10  and  C_11
REMARK    7  A    between atoms: C_11  and  C_12
REMARK                            x       y       z     vdW  Elec       q    Type
REMARK                         _______ _______ _______ _____ _____    ______ ____
ROOT
ATOM      1  C   UNL     1      45.429   6.388  12.264  0.00  0.00    +0.000 A 
ATOM      2  C   UNL     1      45.909   5.270  12.965  0.00  0.00    +0.000 A 
ATOM      3  C   UNL     1      47.006   5.377  13.830  0.00  0.00    +0.000 A 
ATOM      4  C   UNL     1      47.664   6.605  14.007  0.00  0.00    +0.000 A 
ATOM      5  C   UNL     1      47.193   7.715  13.301  0.00  0.00    +0.000 A 
ATOM      6  C   UNL     1      46.075   7.619  12.462  0.00  0.00    +0.000 A 
ENDROOT
BRANCH   1   7
ATOM      7  C   UNL     1      44.256   6.289  11.325  0.00  0.00    +0.000 C 
BRANCH   7  10
ATOM      8  O   UNL     1      46.052   5.727   9.142  0.00  0.00    +0.000 OA
ATOM      9  C   UNL     1      45.201   4.896   9.490  0.00  0.00    +0.000 C 
ATOM     10  N   UNL     1      44.315   5.109  10.518  0.00  0.00    +0.000 N 
ATOM     11  H   UNL     1      43.467   4.542  10.419  0.00  0.00    +0.000 HD
BRANCH   9  12
ATOM     12  C   UNL     1      45.077   3.549   8.941  0.00  0.00    +0.000 A 
ATOM     13  N   UNL     1      44.394   2.596   9.622  0.00  0.00    +0.000 NA
ATOM     14  N   UNL     1      44.851   1.453   9.088  0.00  0.00    +0.000 N 
ATOM     15  C   UNL     1      45.860   1.636   8.196  0.00  0.00    +0.000 A 
ATOM     16  C   UNL     1      46.838   0.780   7.685  0.00  0.00    +0.000 A 
ATOM     17  C   UNL     1      47.614   1.277   6.636  0.00  0.00    +0.000 A 
ATOM     18  C   UNL     1      47.364   2.538   6.088  0.00  0.00    +0.000 A 
ATOM     19  C   UNL     1      46.461   3.418   6.693  0.00  0.00    +0.000 A 
ATOM     20  C   UNL     1      45.765   2.973   7.834  0.00  0.00    +0.000 A 
ATOM     21  H   UNL     1      44.437   0.577   9.397  0.00  0.00    +0.000 HD
ENDBRANCH   9  12
ENDBRANCH   7  10
ENDBRANCH   1   7
BRANCH   4  22
ATOM     22  C   UNL     1      48.833   6.757  14.959  0.00  0.00    +0.000 C 
BRANCH  22  23
ATOM     23  N   UNL     1      48.393   7.120  16.301  0.00  0.00    +0.000 NA
ATOM     24  H   UNL     1      47.404   6.880  16.396  0.00  0.00    +0.000 HD
BRANCH  23  25
ATOM     25  C   UNL     1      49.133   6.394  17.344  0.00  0.00    +0.000 C 
BRANCH  25  26
ATOM     26  C   UNL     1      48.597   6.724  18.727  0.00  0.00    +0.000 A 
ATOM     27  C   UNL     1      47.710   5.852  19.361  0.00  0.00    +0.000 A 
ATOM     28  C   UNL     1      47.271   6.148  20.649  0.00  0.00    +0.000 A 
ATOM     29  C   UNL     1      47.709   7.315  21.261  0.00  0.00    +0.000 A 
ATOM     30  C   UNL     1      48.574   8.136  20.559  0.00  0.00    +0.000 A 
ATOM     31  N   UNL     1      49.034   7.866  19.316  0.00  0.00    +0.000 NA
ENDBRANCH  25  26
ENDBRANCH  23  25
ENDBRANCH  22  23
ENDBRANCH   4  22
TORSDOF 7
ENDMDL
MODEL 6
REMARK VINA RESULT:    -7.288      4.152      5.780
REMARK INTER + INTRA:         -11.174
REMARK INTER:                 -10.254
REMARK INTRA:                  -0.920
REMARK UNBOUND:                -0.904
REMARK  Name = 
REMARK  7 active torsions:
REMARK  status: ('A' for Active; 'I' for Inactive)
REMARK    1  A    between atoms: C_2  and  C_20
REMARK    2  A    between atoms: N_3  and  C_4
REMARK    3  A    between atoms: C_4  and  C_5
REMARK    4  A    between atoms: C_8  and  C_9
REMARK    5  A    between atoms: C_9  and  N_10
REMARK    6  A    between atoms: N_10  and  C_11
REMARK    7  A    between atoms: C_11  and  C_12
REMARK                            x       y       z     vdW  Elec       q    Type
REMARK                         _______ _______ _______ _____ _____    ______ ____
ROOT
ATOM      1  C   UNL     1      47.161   6.317  13.038  0.00  0.00    +0.000 A 
ATOM      2  C   UNL     1      48.251   6.508  13.902  0.00  0.00    +0.000 A 
ATOM      3  C   UNL     1      49.388   7.212  13.485  0.00  0.00    +0.000 A 
ATOM      4  C   UNL     1      49.471   7.735  12.184  0.00  0.00    +0.000 A 
ATOM      5  C   UNL     1      48.391   7.536  11.321  0.00  0.00    +0.000 A 
ATOM      6  C   UNL     1      47.239   6.862  11.747  0.00  0.00    +0.000 A 
ENDROOT
BRANCH   1   7
ATOM      7  C   UNL     1      45.934   5.556  13.468  0.00  0.00    +0.000 C 
BRANCH   7  10
ATOM      8  O   UNL     1      43.652   5.858  11.734  0.00  0.00    +0.000 OA
ATOM      9  C   UNL     1      44.381   4.860  11.650  0.00  0.00    +0.000 C 
ATOM     10  N   UNL     1      45.479   4.658  12.452  0.00  0.00    +0.000 N 
ATOM     11  H   UNL     1      45.717   3.664  12.535  0.00  0.00    +0.000 HD
BRANCH   9  12
ATOM     12  C   UNL     1      44.252   3.815  10.639  0.00  0.00    +0.000 A 
ATOM     13  N   UNL     1      43.597   2.664  10.929  0.00  0.00    +0.000 NA
ATOM     14  N   UNL     1      44.047   1.814   9.994  0.00  0.00    +0.000 N 
ATOM     15  C   UNL     1      45.028   2.336   9.211  0.00  0.00    +0.000 A 
ATOM     16  C   UNL     1      45.998   1.753   8.393  0.00  0.00    +0.000 A 
ATOM     17  C   UNL     1      46.739   2.621   7.589  0.00  0.00    +0.000 A 
ATOM     18  C   UNL     1      46.462   3.990   7.560  0.00  0.00    +0.000 A 
ATOM     19  C   UNL     1      45.570   4.563   8.473  0.00  0.00    +0.000 A 
ATOM     20  C   UNL     1      44.912   3.709   9.381  0.00  0.00    +0.000 A 
ATOM     21  H   UNL     1      43.649   0.878   9.962  0.00  0.00    +0.000 HD
ENDBRANCH   9  12
ENDBRANCH   7  10
ENDBRANCH   1   7
BRANCH   4  22
ATOM     22  C   UNL     1      50.676   8.528  11.716  0.00  0.00    +0.000 C 
BRANCH  22  23
ATOM     23  N   UNL     1      51.866   7.692  11.615  0.00  0.00    +0.000 NA
ATOM     24  H   UNL     1      51.634   6.857  11.074  0.00  0.00    +0.000 HD
BRANCH  23  25
ATOM     25  C   UNL     1      52.970   8.379  10.929  0.00  0.00    +0.000 C 
BRANCH  25  26
ATOM     26  C   UNL     1      52.914   8.143   9.428  0.00  0.00    +0.000 A 
ATOM     27  C   UNL     1      52.727   6.853   8.929  0.00  0.00    +0.000 A 
ATOM     28  C   UNL     1      52.626   6.666   7.553  0.00  0.00    +0.000 A 
ATOM     29  C   UNL     1      52.739   7.764   6.710  0.00  0.00    +0.000 A 
ATOM     30  C   UNL     1      52.942   9.008   7.283  0.00  0.00    +0.000 A 
ATOM     31  N   UNL     1      53.023   9.224   8.616  0.00  0.00    +0.000 NA
ENDBRANCH  25  26
ENDBRANCH  23  25
ENDBRANCH  22  23
ENDBRANCH   4  22
TORSDOF 7
ENDMDL
MODEL 7
REMARK VINA RESULT:    -7.039      2.337      9.185
REMARK INTER + INTRA:         -10.824
REMARK INTER:                 -10.110
REMARK INTRA:                  -0.714
REMARK UNBOUND:                -0.904
REMARK  Name = 
REMARK  7 active torsions:
REMARK  status: ('A' for Active; 'I' for Inactive)
REMARK    1  A    between atoms: C_2  and  C_20
REMARK    2  A    between atoms: N_3  and  C_4
REMARK    3  A    between atoms: C_4  and  C_5
REMARK    4  A    between atoms: C_8  and  C_9
REMARK    5  A    between atoms: C_9  and  N_10
REMARK    6  A    between atoms: N_10  and  C_11
REMARK    7  A    between atoms: C_11  and  C_12
REMARK                            x       y       z     vdW  Elec       q    Type
REMARK                         _______ _______ _______ _____ _____    ______ ____
ROOT
ATOM      1  C   UNL     1      46.765   6.203  13.258  0.00  0.00    +0.000 A 
ATOM      2  C   UNL     1      45.779   6.919  12.561  0.00  0.00    +0.000 A 
ATOM      3  C   UNL     1      44.667   6.268  12.013  0.00  0.00    +0.000 A 
ATOM      4  C   UNL     1      44.516   4.877  12.137  0.00  0.00    +0.000 A 
ATOM      5  C   UNL     1      45.503   4.162  12.822  0.00  0.00    +0.000 A 
ATOM      6  C   UNL     1      46.599   4.816  13.400  0.00  0.00    +0.000 A 
ENDROOT
BRANCH   1   7
ATOM      7  C   UNL     1      47.971   6.887  13.847  0.00  0.00    +0.000 C 
BRANCH   7  10
ATOM      8  O   UNL     1      49.216   8.377  15.978  0.00  0.00    +0.000 OA
ATOM      9  C   UNL     1      48.825   7.216  16.164  0.00  0.00    +0.000 C 
ATOM     10  N   UNL     1      48.230   6.454  15.186  0.00  0.00    +0.000 N 
ATOM     11  H   UNL     1      48.334   5.450  15.365  0.00  0.00    +0.000 HD
BRANCH   9  12
ATOM     12  C   UNL     1      48.841   6.525  17.450  0.00  0.00    +0.000 A 
ATOM     13  N   UNL     1      48.094   6.990  18.482  0.00  0.00    +0.000 NA
ATOM     14  N   UNL     1      48.673   6.428  19.554  0.00  0.00    +0.000 N 
ATOM     15  C   UNL     1      49.804   5.734  19.259  0.00  0.00    +0.000 A 
ATOM     16  C   UNL     1      50.883   5.308  20.037  0.00  0.00    +0.000 A 
ATOM     17  C   UNL     1      51.797   4.453  19.419  0.00  0.00    +0.000 A 
ATOM     18  C   UNL     1      51.590   3.997  18.114  0.00  0.00    +0.000 A 
ATOM     19  C   UNL     1      50.569   4.530  17.320  0.00  0.00    +0.000 A 
ATOM     20  C   UNL     1      49.717   5.494  17.894  0.00  0.00    +0.000 A 
ATOM     21  H   UNL     1      48.248   6.579  20.466  0.00  0.00    +0.000 HD
ENDBRANCH   9  12
ENDBRANCH   7  10
ENDBRANCH   1   7
BRANCH   4  22
ATOM     22  C   UNL     1      43.307   4.149  11.582  0.00  0.00    +0.000 C 
BRANCH  22  23
ATOM     23  N   UNL     1      43.655   3.326  10.430  0.00  0.00    +0.000 NA
ATOM     24  H   UNL     1      42.820   2.825  10.121  0.00  0.00    +0.000 HD
BRANCH  23  25
ATOM     25  C   UNL     1      44.141   4.130   9.299  0.00  0.00    +0.000 C 
BRANCH  25  26
ATOM     26  C   UNL     1      45.245   3.406   8.546  0.00  0.00    +0.000 A 
ATOM     27  C   UNL     1      45.462   2.043   8.761  0.00  0.00    +0.000 A 
ATOM     28  C   UNL     1      46.444   1.388   8.022  0.00  0.00    +0.000 A 
ATOM     29  C   UNL     1      47.199   2.111   7.108  0.00  0.00    +0.000 A 
ATOM     30  C   UNL     1      46.934   3.463   6.966  0.00  0.00    +0.000 A 
ATOM     31  N   UNL     1      45.973   4.123   7.654  0.00  0.00    +0.000 NA
ENDBRANCH  25  26
ENDBRANCH  23  25
ENDBRANCH  22  23
ENDBRANCH   4  22
TORSDOF 7
ENDMDL
MODEL 8
REMARK VINA RESULT:    -6.939      2.188      3.671
REMARK INTER + INTRA:         -10.682
REMARK INTER:                 -10.414
REMARK INTRA:                  -0.268
REMARK UNBOUND:                -0.904
REMARK  Name = 
REMARK  7 active torsions:
REMARK  status: ('A' for Active; 'I' for Inactive)
REMARK    1  A    between atoms: C_2  and  C_20
REMARK    2  A    between atoms: N_3  and  C_4
REMARK    3  A    between atoms: C_4  and  C_5
REMARK    4  A    between atoms: C_8  and  C_9
REMARK    5  A    between atoms: C_9  and  N_10
REMARK    6  A    between atoms: N_10  and  C_11
REMARK    7  A    between atoms: C_11  and  C_12
REMARK                            x       y       z     vdW  Elec       q    Type
REMARK                         _______ _______ _______ _____ _____    ______ ____
ROOT
ATOM      1  C   UNL     1      47.437   5.447  14.563  0.00  0.00    +0.000 A 
ATOM      2  C   UNL     1      48.164   6.159  15.531  0.00  0.00    +0.000 A 
ATOM      3  C   UNL     1      48.495   5.575  16.760  0.00  0.00    +0.000 A 
ATOM      4  C   UNL     1      48.095   4.263  17.062  0.00  0.00    +0.000 A 
ATOM      5  C   UNL     1      47.362   3.557  16.104  0.00  0.00    +0.000 A 
ATOM      6  C   UNL     1      47.060   4.128  14.860  0.00  0.00    +0.000 A 
ENDROOT
BRANCH   1   7
ATOM      7  C   UNL     1      47.067   6.063  13.240  0.00  0.00    +0.000 C 
BRANCH   7  10
ATOM      8  O   UNL     1      44.968   6.745  11.386  0.00  0.00    +0.000 OA
ATOM      9  C   UNL     1      45.293   5.562  11.566  0.00  0.00    +0.000 C 
ATOM     10  N   UNL     1      46.280   5.176  12.439  0.00  0.00    +0.000 N 
ATOM     11  H   UNL     1      46.154   4.210  12.759  0.00  0.00    +0.000 HD
BRANCH   9  12
ATOM     12  C   UNL     1      44.759   4.428  10.819  0.00  0.00    +0.000 A 
ATOM     13  N   UNL     1      43.977   3.510  11.439  0.00  0.00    +0.000 NA
ATOM     14  N   UNL     1      44.051   2.446  10.625  0.00  0.00    +0.000 N 
ATOM     15  C   UNL     1      44.923   2.610   9.595  0.00  0.00    +0.000 A 
ATOM     16  C   UNL     1      45.570   1.706   8.751  0.00  0.00    +0.000 A 
ATOM     17  C   UNL     1      46.272   2.252   7.674  0.00  0.00    +0.000 A 
ATOM     18  C   UNL     1      46.256   3.627   7.426  0.00  0.00    +0.000 A 
ATOM     19  C   UNL     1      45.702   4.518   8.351  0.00  0.00    +0.000 A 
ATOM     20  C   UNL     1      45.104   3.984   9.510  0.00  0.00    +0.000 A 
ATOM     21  H   UNL     1      43.488   1.629  10.848  0.00  0.00    +0.000 HD
ENDBRANCH   9  12
ENDBRANCH   7  10
ENDBRANCH   1   7
BRANCH   4  22
ATOM     22  C   UNL     1      48.466   3.594  18.371  0.00  0.00    +0.000 C 
BRANCH  22  23
ATOM     23  N   UNL     1      49.879   3.767  18.684  0.00  0.00    +0.000 NA
ATOM     24  H   UNL     1      50.155   3.050  19.357  0.00  0.00    +0.000 HD
BRANCH  23  25
ATOM     25  C   UNL     1      50.733   3.621  17.495  0.00  0.00    +0.000 C 
BRANCH  25  26
ATOM     26  C   UNL     1      51.903   2.691  17.773  0.00  0.00    +0.000 A 
ATOM     27  C   UNL     1      51.792   1.326  17.502  0.00  0.00    +0.000 A 
ATOM     28  C   UNL     1      52.894   0.501  17.715  0.00  0.00    +0.000 A 
ATOM     29  C   UNL     1      54.067   1.052  18.213  0.00  0.00    +0.000 A 
ATOM     30  C   UNL     1      54.090   2.412  18.472  0.00  0.00    +0.000 A 
ATOM     31  N   UNL     1      53.044   3.243  18.257  0.00  0.00    +0.000 NA
ENDBRANCH  25  26
ENDBRANCH  23  25
ENDBRANCH  22  23
ENDBRANCH   4  22
TORSDOF 7
ENDMDL
MODEL 9
REMARK VINA RESULT:    -6.900      1.935      8.298
REMARK INTER + INTRA:         -10.628
REMARK INTER:                  -9.502
REMARK INTRA:                  -1.127
REMARK UNBOUND:                -0.904
REMARK  Name = 
REMARK  7 active torsions:
REMARK  status: ('A' for Active; 'I' for Inactive)
REMARK    1  A    between atoms: C_2  and  C_20
REMARK    2  A    between atoms: N_3  and  C_4
REMARK    3  A    between atoms: C_4  and  C_5
REMARK    4  A    between atoms: C_8  and  C_9
REMARK    5  A    between atoms: C_9  and  N_10
REMARK    6  A    between atoms: N_10  and  C_11
REMARK    7  A    between atoms: C_11  and  C_12
REMARK                            x       y       z     vdW  Elec       q    Type
REMARK                         _______ _______ _______ _____ _____    ______ ____
ROOT
ATOM      1  C   UNL     1      46.110   7.425  12.389  0.00  0.00    +0.000 A 
ATOM      2  C   UNL     1      46.131   6.291  13.217  0.00  0.00    +0.000 A 
ATOM      3  C   UNL     1      45.094   5.351  13.180  0.00  0.00    +0.000 A 
ATOM      4  C   UNL     1      43.996   5.526  12.322  0.00  0.00    +0.000 A 
ATOM      5  C   UNL     1      43.969   6.660  11.506  0.00  0.00    +0.000 A 
ATOM      6  C   UNL     1      45.022   7.584  11.516  0.00  0.00    +0.000 A 
ENDROOT
BRANCH   1   7
ATOM      7  C   UNL     1      47.214   8.449  12.421  0.00  0.00    +0.000 C 
BRANCH   7  10
ATOM      8  O   UNL     1      49.792   7.171  12.259  0.00  0.00    +0.000 OA
ATOM      9  C   UNL     1      49.363   7.591  13.342  0.00  0.00    +0.000 C 
ATOM     10  N   UNL     1      48.140   8.203  13.483  0.00  0.00    +0.000 N 
ATOM     11  H   UNL     1      47.779   8.124  14.439  0.00  0.00    +0.000 HD
BRANCH   9  12
ATOM     12  C   UNL     1      50.115   7.594  14.593  0.00  0.00    +0.000 A 
ATOM     13  N   UNL     1      51.293   8.260  14.679  0.00  0.00    +0.000 NA
ATOM     14  N   UNL     1      51.884   7.699  15.744  0.00  0.00    +0.000 N 
ATOM     15  C   UNL     1      51.193   6.645  16.256  0.00  0.00    +0.000 A 
ATOM     16  C   UNL     1      51.564   5.584  17.084  0.00  0.00    +0.000 A 
ATOM     17  C   UNL     1      50.530   4.771  17.555  0.00  0.00    +0.000 A 
ATOM     18  C   UNL     1      49.195   5.063  17.266  0.00  0.00    +0.000 A 
ATOM     19  C   UNL     1      48.860   6.057  16.340  0.00  0.00    +0.000 A 
ATOM     20  C   UNL     1      49.907   6.799  15.757  0.00  0.00    +0.000 A 
ATOM     21  H   UNL     1      52.775   8.077  16.056  0.00  0.00    +0.000 HD
ENDBRANCH   9  12
ENDBRANCH   7  10
ENDBRANCH   1   7
BRANCH   4  22
ATOM     22  C   UNL     1      42.874   4.510  12.239  0.00  0.00    +0.000 C 
BRANCH  22  23
ATOM     23  N   UNL     1      42.944   3.729  11.009  0.00  0.00    +0.000 NA
ATOM     24  H   UNL     1      43.021   4.371  10.218  0.00  0.00    +0.000 HD
BRANCH  23  25
ATOM     25  C   UNL     1      44.115   2.840  10.982  0.00  0.00    +0.000 C 
BRANCH  25  26
ATOM     26  C   UNL     1      44.888   2.993   9.682  0.00  0.00    +0.000 A 
ATOM     27  C   UNL     1      45.152   4.264   9.169  0.00  0.00    +0.000 A 
ATOM     28  C   UNL     1      45.908   4.382   8.005  0.00  0.00    +0.000 A 
ATOM     29  C   UNL     1      46.358   3.233   7.371  0.00  0.00    +0.000 A 
ATOM     30  C   UNL     1      46.039   2.008   7.933  0.00  0.00    +0.000 A 
ATOM     31  N   UNL     1      45.326   1.862   9.073  0.00  0.00    +0.000 NA
ENDBRANCH  25  26
ENDBRANCH  23  25
ENDBRANCH  22  23
ENDBRANCH   4  22
TORSDOF 7
ENDMDL
