MODEL 1
REMARK VINA RESULT:    -6.892      0.000      0.000
REMARK INTER + INTRA:         -10.813
REMARK INTER:                 -10.115
REMARK INTRA:                  -0.698
REMARK UNBOUND:                -0.698
REMARK  Name = 
REMARK  9 active torsions:
REMARK  status: ('A' for Active; 'I' for Inactive)
REMARK    1  A    between atoms: C_1  and  O_2
REMARK    2  A    between atoms: O_2  and  C_3
REMARK    3  A    between atoms: C_3  and  C_4
REMARK    4  A    between atoms: C_4  and  N_5
REMARK    5  A    between atoms: N_5  and  C_6
REMARK    6  A    between atoms: C_6  and  C_7
REMARK    7  A    between atoms: C_10  and  C_11
REMARK    8  A    between atoms: C_11  and  N_12
REMARK    9  A    between atoms: C_20  and  C_22
REMARK                            x       y       z     vdW  Elec       q    Type
REMARK                         _______ _______ _______ _____ _____    ______ ____
ROOT
ATOM      1  N   UNL     1      45.947   6.132  13.230  0.00  0.00    +0.000 N 
ATOM      2  C   UNL     1      46.970   7.078  13.444  0.00  0.00    +0.000 C 
ATOM      3  O   UNL     1      47.872   6.860  14.253  0.00  0.00    +0.000 OA
ENDROOT
BRANCH   2   4
ATOM      4  C   UNL     1      46.965   8.359  12.710  0.00  0.00    +0.000 A 
ATOM      5  C   UNL     1      45.916   9.264  12.684  0.00  0.00    +0.000 A 
ATOM      6  S   UNL     1      46.259  10.693  11.810  0.00  0.00    +0.000 S 
ATOM      7  C   UNL     1      47.868  10.214  11.558  0.00  0.00    +0.000 A 
ATOM      8  N   UNL     1      48.768  11.046  10.967  0.00  0.00    +0.000 NA
ATOM      9  C   UNL     1      49.965  10.567  10.897  0.00  0.00    +0.000 A 
ATOM     10  N   UNL     1      50.341   9.317  11.334  0.00  0.00    +0.000 N 
ATOM     11  C   UNL     1      49.433   8.393  11.821  0.00  0.00    +0.000 A 
ATOM     12  O   UNL     1      49.746   7.218  11.975  0.00  0.00    +0.000 OA
ATOM     13  C   UNL     1      48.106   8.935  12.034  0.00  0.00    +0.000 A 
ATOM     14  H   UNL     1      51.277   8.980  11.190  0.00  0.00    +0.000 HD
ENDBRANCH   2   4
BRANCH   1  15
ATOM     15  C   UNL     1      45.999   4.899  14.032  0.00  0.00    +0.000 C 
BRANCH  15  16
ATOM     16  C   UNL     1      46.851   3.758  13.447  0.00  0.00    +0.000 C 
BRANCH  16  18
ATOM     17  C   UNL     1      47.402   3.735  15.739  0.00  0.00    +0.000 C 
ATOM     18  O   UNL     1      47.563   3.076  14.485  0.00  0.00    +0.000 OA
ENDBRANCH  16  18
ENDBRANCH  15  16
ENDBRANCH   1  15
BRANCH   1  19
ATOM     19  C   UNL     1      44.866   6.359  12.276  0.00  0.00    +0.000 C 
BRANCH  19  20
ATOM     20  C   UNL     1      44.836   5.680  10.928  0.00  0.00    +0.000 A 
ATOM     21  C   UNL     1      45.878   5.905  10.015  0.00  0.00    +0.000 A 
ATOM     22  C   UNL     1      46.064   5.052   8.925  0.00  0.00    +0.000 A 
ATOM     23  C   UNL     1      45.193   3.975   8.712  0.00  0.00    +0.000 A 
ATOM     24  C   UNL     1      44.079   3.834   9.552  0.00  0.00    +0.000 A 
ATOM     25  C   UNL     1      43.901   4.675  10.654  0.00  0.00    +0.000 A 
BRANCH  23  26
ATOM     26  C   UNL     1      45.482   2.933   7.650  0.00  0.00    +0.000 C 
BRANCH  26  27
ATOM     27  N   UNL     1      46.906   2.576   7.526  0.00  0.00    +0.000 NA
ATOM     28  C   UNL     1      47.524   3.251   6.363  0.00  0.00    +0.000 C 
ATOM     29  C   UNL     1      47.220   2.558   5.026  0.00  0.00    +0.000 C 
ATOM     30  O   UNL     1      47.742   1.227   5.035  0.00  0.00    +0.000 OA
ATOM     31  C   UNL     1      47.117   0.458   6.069  0.00  0.00    +0.000 C 
ATOM     32  C   UNL     1      47.213   1.130   7.455  0.00  0.00    +0.000 C 
ENDBRANCH  26  27
ENDBRANCH  23  26
ENDBRANCH  19  20
ENDBRANCH   1  19
TORSDOF 8
ENDMDL
MODEL 2
REMARK VINA RESULT:    -6.802      3.574      8.891
REMARK INTER + INTRA:         -10.682
REMARK INTER:                  -9.311
REMARK INTRA:                  -1.371
REMARK UNBOUND:                -0.698
REMARK  Name = 
REMARK  9 active torsions:
REMARK  status: ('A' for Active; 'I' for Inactive)
REMARK    1  A    between atoms: C_1  and  O_2
REMARK    2  A    between atoms: O_2  and  C_3
REMARK    3  A    between atoms: C_3  and  C_4
REMARK    4  A    between atoms: C_4  and  N_5
REMARK    5  A    between atoms: N_5  and  C_6
REMARK    6  A    between atoms: C_6  and  C_7
REMARK    7  A    between atoms: C_10  and  C_11
REMARK    8  A    between atoms: C_11  and  N_12
REMARK    9  A    between atoms: C_20  and  C_22
REMARK                            x       y       z     vdW  Elec       q    Type
REMARK                         _______ _______ _______ _____ _____    ______ ____
ROOT
ATOM      1  N   UNL     1      46.329   7.063  12.232  0.00  0.00    +0.000 N 
ATOM      2  C   UNL     1      45.016   6.713  11.856  0.00  0.00    +0.000 C 
ATOM      3  O   UNL     1      44.166   7.579  11.651  0.00  0.00    +0.000 OA
ENDROOT
BRANCH   2   4
ATOM      4  C   UNL     1      44.634   5.293  11.721  0.00  0.00    +0.000 A 
ATOM      5  C   UNL     1      43.917   4.563  12.657  0.00  0.00    +0.000 A 
ATOM      6  S   UNL     1      43.563   2.965  12.160  0.00  0.00    +0.000 S 
ATOM      7  C   UNL     1      44.229   3.241  10.624  0.00  0.00    +0.000 A 
ATOM      8  N   UNL     1      44.147   2.303   9.641  0.00  0.00    +0.000 NA
ATOM      9  C   UNL     1      44.646   2.676   8.510  0.00  0.00    +0.000 A 
ATOM     10  N   UNL     1      45.251   3.891   8.278  0.00  0.00    +0.000 N 
ATOM     11  C   UNL     1      45.471   4.819   9.281  0.00  0.00    +0.000 A 
ATOM     12  O   UNL     1      46.216   5.775   9.107  0.00  0.00    +0.000 OA
ATOM     13  C   UNL     1      44.814   4.492  10.531  0.00  0.00    +0.000 A 
ATOM     14  H   UNL     1      45.677   4.093   7.390  0.00  0.00    +0.000 HD
ENDBRANCH   2   4
BRANCH   1  15
ATOM     15  C   UNL     1      46.619   8.498  12.388  0.00  0.00    +0.000 C 
BRANCH  15  16
ATOM     16  C   UNL     1      48.063   8.926  12.068  0.00  0.00    +0.000 C 
BRANCH  16  18
ATOM     17  C   UNL     1      49.363  10.776  11.404  0.00  0.00    +0.000 C 
ATOM     18  O   UNL     1      48.076  10.165  11.352  0.00  0.00    +0.000 OA
ENDBRANCH  16  18
ENDBRANCH  15  16
ENDBRANCH   1  15
BRANCH   1  19
ATOM     19  C   UNL     1      47.360   6.060  12.479  0.00  0.00    +0.000 C 
BRANCH  19  20
ATOM     20  C   UNL     1      47.696   5.588  13.872  0.00  0.00    +0.000 A 
ATOM     21  C   UNL     1      48.468   6.403  14.714  0.00  0.00    +0.000 A 
ATOM     22  C   UNL     1      48.509   6.168  16.091  0.00  0.00    +0.000 A 
ATOM     23  C   UNL     1      47.801   5.093  16.646  0.00  0.00    +0.000 A 
ATOM     24  C   UNL     1      47.139   4.206  15.785  0.00  0.00    +0.000 A 
ATOM     25  C   UNL     1      47.082   4.450  14.410  0.00  0.00    +0.000 A 
BRANCH  23  26
ATOM     26  C   UNL     1      47.681   4.928  18.148  0.00  0.00    +0.000 C 
BRANCH  26  27
ATOM     27  N   UNL     1      48.483   5.888  18.926  0.00  0.00    +0.000 NA
ATOM     28  C   UNL     1      49.469   5.189  19.779  0.00  0.00    +0.000 C 
ATOM     29  C   UNL     1      48.862   4.625  21.073  0.00  0.00    +0.000 C 
ATOM     30  O   UNL     1      48.334   5.687  21.869  0.00  0.00    +0.000 OA
ATOM     31  C   UNL     1      47.287   6.361  21.162  0.00  0.00    +0.000 C 
ATOM     32  C   UNL     1      47.725   6.846  19.764  0.00  0.00    +0.000 C 
ENDBRANCH  26  27
ENDBRANCH  23  26
ENDBRANCH  19  20
ENDBRANCH   1  19
TORSDOF 8
ENDMDL
MODEL 3
REMARK VINA RESULT:    -6.461      5.025      7.891
REMARK INTER + INTRA:         -10.181
REMARK INTER:                  -8.814
REMARK INTRA:                  -1.367
REMARK UNBOUND:                -0.698
REMARK  Name = 
REMARK  9 active torsions:
REMARK  status: ('A' for Active; 'I' for Inactive)
REMARK    1  A    between atoms: C_1  and  O_2
REMARK    2  A    between atoms: O_2  and  C_3
REMARK    3  A    between atoms: C_3  and  C_4
REMARK    4  A    between atoms: C_4  and  N_5
REMARK    5  A    between atoms: N_5  and  C_6
REMARK    6  A    between atoms: C_6  and  C_7
REMARK    7  A    between atoms: C_10  and  C_11
REMARK    8  A    between atoms: C_11  and  N_12
REMARK    9  A    between atoms: C_20  and  C_22
REMARK                            x       y       z     vdW  Elec       q    Type
REMARK                         _______ _______ _______ _____ _____    ______ ____
ROOT
ATOM      1  N   UNL     1      48.907   6.276  18.467  0.00  0.00    +0.000 N 
ATOM      2  C   UNL     1      49.649   5.405  19.291  0.00  0.00    +0.000 C 
ATOM      3  O   UNL     1      49.230   5.078  20.402  0.00  0.00    +0.000 OA
ENDROOT
BRANCH   2   4
ATOM      4  C   UNL     1      50.955   4.886  18.840  0.00  0.00    +0.000 A 
ATOM      5  C   UNL     1      52.179   5.502  19.051  0.00  0.00    +0.000 A 
ATOM      6  S   UNL     1      53.513   4.598  18.477  0.00  0.00    +0.000 S 
ATOM      7  C   UNL     1      52.513   3.292  18.058  0.00  0.00    +0.000 A 
ATOM      8  N   UNL     1      53.037   2.118  17.612  0.00  0.00    +0.000 NA
ATOM      9  C   UNL     1      52.159   1.198  17.388  0.00  0.00    +0.000 A 
ATOM     10  N   UNL     1      50.800   1.352  17.539  0.00  0.00    +0.000 N 
ATOM     11  C   UNL     1      50.218   2.565  17.865  0.00  0.00    +0.000 A 
ATOM     12  O   UNL     1      49.010   2.737  17.758  0.00  0.00    +0.000 OA
ATOM     13  C   UNL     1      51.173   3.586  18.246  0.00  0.00    +0.000 A 
ATOM     14  H   UNL     1      50.166   0.615  17.286  0.00  0.00    +0.000 HD
ENDBRANCH   2   4
BRANCH   1  15
ATOM     15  C   UNL     1      47.635   6.785  19.007  0.00  0.00    +0.000 C 
BRANCH  15  16
ATOM     16  C   UNL     1      47.435   8.309  18.920  0.00  0.00    +0.000 C 
BRANCH  16  18
ATOM     17  C   UNL     1      47.458   8.076  21.266  0.00  0.00    +0.000 C 
ATOM     18  O   UNL     1      47.760   8.933  20.167  0.00  0.00    +0.000 OA
ENDBRANCH  16  18
ENDBRANCH  15  16
ENDBRANCH   1  15
BRANCH   1  19
ATOM     19  C   UNL     1      49.373   6.680  17.145  0.00  0.00    +0.000 C 
BRANCH  19  20
ATOM     20  C   UNL     1      48.742   6.153  15.880  0.00  0.00    +0.000 A 
ATOM     21  C   UNL     1      47.945   4.999  15.931  0.00  0.00    +0.000 A 
ATOM     22  C   UNL     1      47.082   4.683  14.879  0.00  0.00    +0.000 A 
ATOM     23  C   UNL     1      47.023   5.501  13.742  0.00  0.00    +0.000 A 
ATOM     24  C   UNL     1      47.916   6.578  13.640  0.00  0.00    +0.000 A 
ATOM     25  C   UNL     1      48.766   6.906  14.700  0.00  0.00    +0.000 A 
BRANCH  23  26
ATOM     26  C   UNL     1      45.968   5.284  12.676  0.00  0.00    +0.000 C 
BRANCH  26  27
ATOM     27  N   UNL     1      44.906   4.338  13.062  0.00  0.00    +0.000 NA
ATOM     28  C   UNL     1      44.941   3.125  12.216  0.00  0.00    +0.000 C 
ATOM     29  C   UNL     1      44.285   3.323  10.842  0.00  0.00    +0.000 C 
ATOM     30  O   UNL     1      42.903   3.654  11.002  0.00  0.00    +0.000 OA
ATOM     31  C   UNL     1      42.770   4.884  11.723  0.00  0.00    +0.000 C 
ATOM     32  C   UNL     1      43.526   4.874  13.068  0.00  0.00    +0.000 C 
ENDBRANCH  26  27
ENDBRANCH  23  26
ENDBRANCH  19  20
ENDBRANCH   1  19
TORSDOF 8
ENDMDL
MODEL 4
REMARK VINA RESULT:    -6.432      4.388      7.317
REMARK INTER + INTRA:         -10.138
REMARK INTER:                  -8.434
REMARK INTRA:                  -1.704
REMARK UNBOUND:                -0.698
REMARK  Name = 
REMARK  9 active torsions:
REMARK  status: ('A' for Active; 'I' for Inactive)
REMARK    1  A    between atoms: C_1  and  O_2
REMARK    2  A    between atoms: O_2  and  C_3
REMARK    3  A    between atoms: C_3  and  C_4
REMARK    4  A    between atoms: C_4  and  N_5
REMARK    5  A    between atoms: N_5  and  C_6
REMARK    6  A    between atoms: C_6  and  C_7
REMARK    7  A    between atoms: C_10  and  C_11
REMARK    8  A    between atoms: C_11  and  N_12
REMARK    9  A    between atoms: C_20  and  C_22
REMARK                            x       y       z     vdW  Elec       q    Type
REMARK                         _______ _______ _______ _____ _____    ______ ____
ROOT
ATOM      1  N   UNL     1      48.728   8.314  17.367  0.00  0.00    +0.000 N 
ATOM      2  C   UNL     1      49.039   7.288  18.282  0.00  0.00    +0.000 C 
ATOM      3  O   UNL     1      48.518   7.256  19.397  0.00  0.00    +0.000 OA
ENDROOT
BRANCH   2   4
ATOM      4  C   UNL     1      50.016   6.241  17.922  0.00  0.00    +0.000 A 
ATOM      5  C   UNL     1      51.392   6.349  18.052  0.00  0.00    +0.000 A 
ATOM      6  S   UNL     1      52.239   4.925  17.626  0.00  0.00    +0.000 S 
ATOM      7  C   UNL     1      50.790   4.073  17.391  0.00  0.00    +0.000 A 
ATOM      8  N   UNL     1      50.793   2.739  17.123  0.00  0.00    +0.000 NA
ATOM      9  C   UNL     1      49.615   2.216  17.027  0.00  0.00    +0.000 A 
ATOM     10  N   UNL     1      48.433   2.911  17.142  0.00  0.00    +0.000 N 
ATOM     11  C   UNL     1      48.386   4.287  17.285  0.00  0.00    +0.000 A 
ATOM     12  O   UNL     1      47.337   4.903  17.144  0.00  0.00    +0.000 OA
ATOM     13  C   UNL     1      49.681   4.892  17.523  0.00  0.00    +0.000 A 
ATOM     14  H   UNL     1      47.550   2.455  16.992  0.00  0.00    +0.000 HD
ENDBRANCH   2   4
BRANCH   1  15
ATOM     15  C   UNL     1      47.778   9.344  17.818  0.00  0.00    +0.000 C 
BRANCH  15  16
ATOM     16  C   UNL     1      48.406  10.641  18.361  0.00  0.00    +0.000 C 
BRANCH  16  18
ATOM     17  C   UNL     1      46.727  10.226  19.962  0.00  0.00    +0.000 C 
ATOM     18  O   UNL     1      47.952  10.904  19.692  0.00  0.00    +0.000 OA
ENDBRANCH  16  18
ENDBRANCH  15  16
ENDBRANCH   1  15
BRANCH   1  19
ATOM     19  C   UNL     1      49.326   8.379  16.038  0.00  0.00    +0.000 C 
BRANCH  19  20
ATOM     20  C   UNL     1      48.580   7.931  14.805  0.00  0.00    +0.000 A 
ATOM     21  C   UNL     1      48.692   6.601  14.372  0.00  0.00    +0.000 A 
ATOM     22  C   UNL     1      47.773   6.068  13.464  0.00  0.00    +0.000 A 
ATOM     23  C   UNL     1      46.742   6.866  12.951  0.00  0.00    +0.000 A 
ATOM     24  C   UNL     1      46.714   8.228  13.286  0.00  0.00    +0.000 A 
ATOM     25  C   UNL     1      47.621   8.758  14.209  0.00  0.00    +0.000 A 
BRANCH  23  26
ATOM     26  C   UNL     1      45.630   6.265  12.115  0.00  0.00    +0.000 C 
BRANCH  26  27
ATOM     27  N   UNL     1      44.882   5.190  12.789  0.00  0.00    +0.000 NA
ATOM     28  C   UNL     1      45.125   3.884  12.136  0.00  0.00    +0.000 C 
ATOM     29  C   UNL     1      44.297   3.679  10.859  0.00  0.00    +0.000 C 
ATOM     30  O   UNL     1      42.902   3.713  11.170  0.00  0.00    +0.000 OA
ATOM     31  C   UNL     1      42.547   4.989  11.712  0.00  0.00    +0.000 C 
ATOM     32  C   UNL     1      43.421   5.392  12.918  0.00  0.00    +0.000 C 
ENDBRANCH  26  27
ENDBRANCH  23  26
ENDBRANCH  19  20
ENDBRANCH   1  19
TORSDOF 8
ENDMDL
MODEL 5
REMARK VINA RESULT:    -6.279      3.791      8.708
REMARK INTER + INTRA:          -9.913
REMARK INTER:                  -8.868
REMARK INTRA:                  -1.046
REMARK UNBOUND:                -0.698
REMARK  Name = 
REMARK  9 active torsions:
REMARK  status: ('A' for Active; 'I' for Inactive)
REMARK    1  A    between atoms: C_1  and  O_2
REMARK    2  A    between atoms: O_2  and  C_3
REMARK    3  A    between atoms: C_3  and  C_4
REMARK    4  A    between atoms: C_4  and  N_5
REMARK    5  A    between atoms: N_5  and  C_6
REMARK    6  A    between atoms: C_6  and  C_7
REMARK    7  A    between atoms: C_10  and  C_11
REMARK    8  A    between atoms: C_11  and  N_12
REMARK    9  A    between atoms: C_20  and  C_22
REMARK                            x       y       z     vdW  Elec       q    Type
REMARK                         _______ _______ _______ _____ _____    ______ ____
ROOT
ATOM      1  N   UNL     1      46.439   6.873  12.685  0.00  0.00    +0.000 N 
ATOM      2  C   UNL     1      45.231   6.624  12.000  0.00  0.00    +0.000 C 
ATOM      3  O   UNL     1      44.535   7.552  11.589  0.00  0.00    +0.000 OA
ENDROOT
BRANCH   2   4
ATOM      4  C   UNL     1      44.771   5.238  11.783  0.00  0.00    +0.000 A 
ATOM      5  C   UNL     1      44.031   4.488  12.684  0.00  0.00    +0.000 A 
ATOM      6  S   UNL     1      43.583   2.947  12.094  0.00  0.00    +0.000 S 
ATOM      7  C   UNL     1      44.239   3.285  10.565  0.00  0.00    +0.000 A 
ATOM      8  N   UNL     1      44.090   2.418   9.527  0.00  0.00    +0.000 NA
ATOM      9  C   UNL     1      44.591   2.837   8.412  0.00  0.00    +0.000 A 
ATOM     10  N   UNL     1      45.256   4.030   8.246  0.00  0.00    +0.000 N 
ATOM     11  C   UNL     1      45.542   4.879   9.302  0.00  0.00    +0.000 A 
ATOM     12  O   UNL     1      46.335   5.804   9.174  0.00  0.00    +0.000 OA
ATOM     13  C   UNL     1      44.889   4.507  10.541  0.00  0.00    +0.000 A 
ATOM     14  H   UNL     1      45.679   4.267   7.365  0.00  0.00    +0.000 HD
ENDBRANCH   2   4
BRANCH   1  15
ATOM     15  C   UNL     1      46.806   8.282  12.899  0.00  0.00    +0.000 C 
BRANCH  15  16
ATOM     16  C   UNL     1      47.990   8.799  12.062  0.00  0.00    +0.000 C 
BRANCH  16  18
ATOM     17  C   UNL     1      48.681  10.746  13.197  0.00  0.00    +0.000 C 
ATOM     18  O   UNL     1      48.988   9.384  12.905  0.00  0.00    +0.000 OA
ENDBRANCH  16  18
ENDBRANCH  15  16
ENDBRANCH   1  15
BRANCH   1  19
ATOM     19  C   UNL     1      47.286   5.795  13.182  0.00  0.00    +0.000 C 
BRANCH  19  20
ATOM     20  C   UNL     1      47.683   5.696  14.634  0.00  0.00    +0.000 A 
ATOM     21  C   UNL     1      47.278   4.586  15.390  0.00  0.00    +0.000 A 
ATOM     22  C   UNL     1      47.897   4.289  16.607  0.00  0.00    +0.000 A 
ATOM     23  C   UNL     1      48.913   5.116  17.104  0.00  0.00    +0.000 A 
ATOM     24  C   UNL     1      49.222   6.295  16.410  0.00  0.00    +0.000 A 
ATOM     25  C   UNL     1      48.618   6.583  15.182  0.00  0.00    +0.000 A 
BRANCH  23  26
ATOM     26  C   UNL     1      49.722   4.716  18.322  0.00  0.00    +0.000 C 
BRANCH  26  27
ATOM     27  N   UNL     1      51.053   5.343  18.394  0.00  0.00    +0.000 NA
ATOM     28  C   UNL     1      52.061   4.536  17.672  0.00  0.00    +0.000 C 
ATOM     29  C   UNL     1      52.568   3.332  18.480  0.00  0.00    +0.000 C 
ATOM     30  O   UNL     1      53.206   3.781  19.678  0.00  0.00    +0.000 OA
ATOM     31  C   UNL     1      52.270   4.487  20.501  0.00  0.00    +0.000 C 
ATOM     32  C   UNL     1      51.564   5.637  19.753  0.00  0.00    +0.000 C 
ENDBRANCH  26  27
ENDBRANCH  23  26
ENDBRANCH  19  20
ENDBRANCH   1  19
TORSDOF 8
ENDMDL
MODEL 6
REMARK VINA RESULT:    -6.212      3.680      8.995
REMARK INTER + INTRA:          -9.815
REMARK INTER:                  -8.836
REMARK INTRA:                  -0.979
REMARK UNBOUND:                -0.698
REMARK  Name = 
REMARK  9 active torsions:
REMARK  status: ('A' for Active; 'I' for Inactive)
REMARK    1  A    between atoms: C_1  and  O_2
REMARK    2  A    between atoms: O_2  and  C_3
REMARK    3  A    between atoms: C_3  and  C_4
REMARK    4  A    between atoms: C_4  and  N_5
REMARK    5  A    between atoms: N_5  and  C_6
REMARK    6  A    between atoms: C_6  and  C_7
REMARK    7  A    between atoms: C_10  and  C_11
REMARK    8  A    between atoms: C_11  and  N_12
REMARK    9  A    between atoms: C_20  and  C_22
REMARK                            x       y       z     vdW  Elec       q    Type
REMARK                         _______ _______ _______ _____ _____    ______ ____
ROOT
ATOM      1  N   UNL     1      46.431   7.292  12.504  0.00  0.00    +0.000 N 
ATOM      2  C   UNL     1      45.368   7.246  11.579  0.00  0.00    +0.000 C 
ATOM      3  O   UNL     1      44.642   8.225  11.402  0.00  0.00    +0.000 OA
ENDROOT
BRANCH   2   4
ATOM      4  C   UNL     1      45.095   6.010  10.820  0.00  0.00    +0.000 A 
ATOM      5  C   UNL     1      45.605   5.710   9.566  0.00  0.00    +0.000 A 
ATOM      6  S   UNL     1      45.167   4.158   8.997  0.00  0.00    +0.000 S 
ATOM      7  C   UNL     1      44.402   3.780  10.464  0.00  0.00    +0.000 A 
ATOM      8  N   UNL     1      43.905   2.535  10.699  0.00  0.00    +0.000 NA
ATOM      9  C   UNL     1      43.405   2.380  11.880  0.00  0.00    +0.000 A 
ATOM     10  N   UNL     1      43.326   3.364  12.838  0.00  0.00    +0.000 N 
ATOM     11  C   UNL     1      43.700   4.674  12.595  0.00  0.00    +0.000 A 
ATOM     12  O   UNL     1      43.400   5.573  13.371  0.00  0.00    +0.000 OA
ATOM     13  C   UNL     1      44.382   4.860  11.330  0.00  0.00    +0.000 A 
ATOM     14  H   UNL     1      42.865   3.194  13.715  0.00  0.00    +0.000 HD
ENDBRANCH   2   4
BRANCH   1  15
ATOM     15  C   UNL     1      46.611   8.547  13.253  0.00  0.00    +0.000 C 
BRANCH  15  16
ATOM     16  C   UNL     1      47.408   9.648  12.530  0.00  0.00    +0.000 C 
BRANCH  16  18
ATOM     17  C   UNL     1      49.711   9.372  12.114  0.00  0.00    +0.000 C 
ATOM     18  O   UNL     1      48.392   9.074  11.664  0.00  0.00    +0.000 OA
ENDBRANCH  16  18
ENDBRANCH  15  16
ENDBRANCH   1  15
BRANCH   1  19
ATOM     19  C   UNL     1      47.310   6.151  12.735  0.00  0.00    +0.000 C 
BRANCH  19  20
ATOM     20  C   UNL     1      47.962   5.904  14.073  0.00  0.00    +0.000 A 
ATOM     21  C   UNL     1      48.972   6.768  14.523  0.00  0.00    +0.000 A 
ATOM     22  C   UNL     1      49.349   6.781  15.869  0.00  0.00    +0.000 A 
ATOM     23  C   UNL     1      48.743   5.909  16.782  0.00  0.00    +0.000 A 
ATOM     24  C   UNL     1      47.829   4.959  16.302  0.00  0.00    +0.000 A 
ATOM     25  C   UNL     1      47.437   4.957  14.960  0.00  0.00    +0.000 A 
BRANCH  23  26
ATOM     26  C   UNL     1      49.000   6.032  18.271  0.00  0.00    +0.000 C 
BRANCH  26  27
ATOM     27  N   UNL     1      48.093   5.229  19.108  0.00  0.00    +0.000 NA
ATOM     28  C   UNL     1      47.127   6.091  19.825  0.00  0.00    +0.000 C 
ATOM     29  C   UNL     1      47.718   6.756  21.077  0.00  0.00    +0.000 C 
ATOM     30  O   UNL     1      48.128   5.757  22.015  0.00  0.00    +0.000 OA
ATOM     31  C   UNL     1      49.149   4.932  21.443  0.00  0.00    +0.000 C 
ATOM     32  C   UNL     1      48.737   4.323  20.086  0.00  0.00    +0.000 C 
ENDBRANCH  26  27
ENDBRANCH  23  26
ENDBRANCH  19  20
ENDBRANCH   1  19
TORSDOF 8
ENDMDL
MODEL 7
REMARK VINA RESULT:    -6.095      3.911      6.724
REMARK INTER + INTRA:          -9.643
REMARK INTER:                  -8.022
REMARK INTRA:                  -1.621
REMARK UNBOUND:                -0.698
REMARK  Name = 
REMARK  9 active torsions:
REMARK  status: ('A' for Active; 'I' for Inactive)
REMARK    1  A    between atoms: C_1  and  O_2
REMARK    2  A    between atoms: O_2  and  C_3
REMARK    3  A    between atoms: C_3  and  C_4
REMARK    4  A    between atoms: C_4  and  N_5
REMARK    5  A    between atoms: N_5  and  C_6
REMARK    6  A    between atoms: C_6  and  C_7
REMARK    7  A    between atoms: C_10  and  C_11
REMARK    8  A    between atoms: C_11  and  N_12
REMARK    9  A    between atoms: C_20  and  C_22
REMARK                            x       y       z     vdW  Elec       q    Type
REMARK                         _______ _______ _______ _____ _____    ______ ____
ROOT
ATOM      1  N   UNL     1      50.349   9.127  15.672  0.00  0.00    +0.000 N 
ATOM      2  C   UNL     1      50.629   8.552  16.929  0.00  0.00    +0.000 C 
ATOM      3  O   UNL     1      51.789   8.435  17.325  0.00  0.00    +0.000 OA
ENDROOT
BRANCH   2   4
ATOM      4  C   UNL     1      49.531   8.064  17.786  0.00  0.00    +0.000 A 
ATOM      5  C   UNL     1      48.730   8.857  18.594  0.00  0.00    +0.000 A 
ATOM      6  S   UNL     1      47.490   7.994  19.395  0.00  0.00    +0.000 S 
ATOM      7  C   UNL     1      47.891   6.560  18.580  0.00  0.00    +0.000 A 
ATOM      8  N   UNL     1      47.134   5.438  18.714  0.00  0.00    +0.000 NA
ATOM      9  C   UNL     1      47.527   4.444  17.989  0.00  0.00    +0.000 A 
ATOM     10  N   UNL     1      48.629   4.457  17.164  0.00  0.00    +0.000 N 
ATOM     11  C   UNL     1      49.498   5.533  17.098  0.00  0.00    +0.000 A 
ATOM     12  O   UNL     1      50.589   5.432  16.550  0.00  0.00    +0.000 OA
ATOM     13  C   UNL     1      49.023   6.710  17.797  0.00  0.00    +0.000 A 
ATOM     14  H   UNL     1      48.918   3.628  16.676  0.00  0.00    +0.000 HD
ENDBRANCH   2   4
BRANCH   1  15
ATOM     15  C   UNL     1      51.501   9.550  14.859  0.00  0.00    +0.000 C 
BRANCH  15  16
ATOM     16  C   UNL     1      52.093   8.474  13.930  0.00  0.00    +0.000 C 
BRANCH  16  18
ATOM     17  C   UNL     1      51.294   8.426  11.714  0.00  0.00    +0.000 C 
ATOM     18  O   UNL     1      52.257   8.986  12.604  0.00  0.00    +0.000 OA
ENDBRANCH  16  18
ENDBRANCH  15  16
ENDBRANCH   1  15
BRANCH   1  19
ATOM     19  C   UNL     1      48.986   9.283  15.176  0.00  0.00    +0.000 C 
BRANCH  19  20
ATOM     20  C   UNL     1      48.443   8.437  14.051  0.00  0.00    +0.000 A 
ATOM     21  C   UNL     1      48.711   7.059  14.029  0.00  0.00    +0.000 A 
ATOM     22  C   UNL     1      47.960   6.202  13.220  0.00  0.00    +0.000 A 
ATOM     23  C   UNL     1      46.947   6.712  12.397  0.00  0.00    +0.000 A 
ATOM     24  C   UNL     1      46.773   8.101  12.326  0.00  0.00    +0.000 A 
ATOM     25  C   UNL     1      47.510   8.959  13.148  0.00  0.00    +0.000 A 
BRANCH  23  26
ATOM     26  C   UNL     1      46.002   5.787  11.656  0.00  0.00    +0.000 C 
BRANCH  26  27
ATOM     27  N   UNL     1      45.209   4.908  12.532  0.00  0.00    +0.000 NA
ATOM     28  C   UNL     1      45.216   3.514  12.034  0.00  0.00    +0.000 C 
ATOM     29  C   UNL     1      44.233   3.276  10.878  0.00  0.00    +0.000 C 
ATOM     30  O   UNL     1      42.895   3.533  11.314  0.00  0.00    +0.000 OA
ATOM     31  C   UNL     1      42.761   4.900  11.717  0.00  0.00    +0.000 C 
ATOM     32  C   UNL     1      43.806   5.318  12.773  0.00  0.00    +0.000 C 
ENDBRANCH  26  27
ENDBRANCH  23  26
ENDBRANCH  19  20
ENDBRANCH   1  19
TORSDOF 8
ENDMDL
MODEL 8
REMARK VINA RESULT:    -5.901      4.178      7.046
REMARK INTER + INTRA:          -9.359
REMARK INTER:                  -7.712
REMARK INTRA:                  -1.648
REMARK UNBOUND:                -0.698
REMARK  Name = 
REMARK  9 active torsions:
REMARK  status: ('A' for Active; 'I' for Inactive)
REMARK    1  A    between atoms: C_1  and  O_2
REMARK    2  A    between atoms: O_2  and  C_3
REMARK    3  A    between atoms: C_3  and  C_4
REMARK    4  A    between atoms: C_4  and  N_5
REMARK    5  A    between atoms: N_5  and  C_6
REMARK    6  A    between atoms: C_6  and  C_7
REMARK    7  A    between atoms: C_10  and  C_11
REMARK    8  A    between atoms: C_11  and  N_12
REMARK    9  A    between atoms: C_20  and  C_22
REMARK                            x       y       z     vdW  Elec       q    Type
REMARK                         _______ _______ _______ _____ _____    ______ ____
ROOT
ATOM      1  N   UNL     1      51.070   8.946  15.079  0.00  0.00    +0.000 N 
ATOM      2  C   UNL     1      51.036   8.704  16.468  0.00  0.00    +0.000 C 
ATOM      3  O   UNL     1      51.267   9.607  17.272  0.00  0.00    +0.000 OA
ENDROOT
BRANCH   2   4
ATOM      4  C   UNL     1      50.738   7.352  16.980  0.00  0.00    +0.000 A 
ATOM      5  C   UNL     1      51.641   6.301  17.043  0.00  0.00    +0.000 A 
ATOM      6  S   UNL     1      51.007   4.889  17.769  0.00  0.00    +0.000 S 
ATOM      7  C   UNL     1      49.554   5.678  18.154  0.00  0.00    +0.000 A 
ATOM      8  N   UNL     1      48.596   5.066  18.902  0.00  0.00    +0.000 NA
ATOM      9  C   UNL     1      47.573   5.810  19.162  0.00  0.00    +0.000 A 
ATOM     10  N   UNL     1      47.402   7.100  18.716  0.00  0.00    +0.000 N 
ATOM     11  C   UNL     1      48.290   7.713  17.848  0.00  0.00    +0.000 A 
ATOM     12  O   UNL     1      47.999   8.759  17.279  0.00  0.00    +0.000 OA
ATOM     13  C   UNL     1      49.510   6.961  17.635  0.00  0.00    +0.000 A 
ATOM     14  H   UNL     1      46.551   7.602  18.901  0.00  0.00    +0.000 HD
ENDBRANCH   2   4
BRANCH   1  15
ATOM     15  C   UNL     1      51.416  10.310  14.647  0.00  0.00    +0.000 C 
BRANCH  15  16
ATOM     16  C   UNL     1      50.257  11.143  14.071  0.00  0.00    +0.000 C 
BRANCH  16  18
ATOM     17  C   UNL     1      49.127  12.356  15.747  0.00  0.00    +0.000 C 
ATOM     18  O   UNL     1      49.147  11.157  14.974  0.00  0.00    +0.000 OA
ENDBRANCH  16  18
ENDBRANCH  15  16
ENDBRANCH   1  15
BRANCH   1  19
ATOM     19  C   UNL     1      50.798   7.898  14.101  0.00  0.00    +0.000 C 
BRANCH  19  20
ATOM     20  C   UNL     1      49.405   7.630  13.585  0.00  0.00    +0.000 A 
ATOM     21  C   UNL     1      49.066   8.004  12.276  0.00  0.00    +0.000 A 
ATOM     22  C   UNL     1      47.930   7.476  11.657  0.00  0.00    +0.000 A 
ATOM     23  C   UNL     1      47.096   6.587  12.348  0.00  0.00    +0.000 A 
ATOM     24  C   UNL     1      47.368   6.319  13.697  0.00  0.00    +0.000 A 
ATOM     25  C   UNL     1      48.515   6.831  14.313  0.00  0.00    +0.000 A 
BRANCH  23  26
ATOM     26  C   UNL     1      45.969   5.862  11.641  0.00  0.00    +0.000 C 
BRANCH  26  27
ATOM     27  N   UNL     1      45.134   5.034  12.528  0.00  0.00    +0.000 NA
ATOM     28  C   UNL     1      45.114   3.625  12.078  0.00  0.00    +0.000 C 
ATOM     29  C   UNL     1      44.148   3.373  10.910  0.00  0.00    +0.000 C 
ATOM     30  O   UNL     1      42.809   3.680  11.308  0.00  0.00    +0.000 OA
ATOM     31  C   UNL     1      42.704   5.063  11.662  0.00  0.00    +0.000 C 
ATOM     32  C   UNL     1      43.739   5.489  12.725  0.00  0.00    +0.000 C 
ENDBRANCH  26  27
ENDBRANCH  23  26
ENDBRANCH  19  20
ENDBRANCH   1  19
TORSDOF 8
ENDMDL
MODEL 9
REMARK VINA RESULT:    -5.870      3.850      6.765
REMARK INTER + INTRA:          -9.314
REMARK INTER:                  -7.234
REMARK INTRA:                  -2.080
REMARK UNBOUND:                -0.698
REMARK  Name = 
REMARK  9 active torsions:
REMARK  status: ('A' for Active; 'I' for Inactive)
REMARK    1  A    between atoms: C_1  and  O_2
REMARK    2  A    between atoms: O_2  and  C_3
REMARK    3  A    between atoms: C_3  and  C_4
REMARK    4  A    between atoms: C_4  and  N_5
REMARK    5  A    between atoms: N_5  and  C_6
REMARK    6  A    between atoms: C_6  and  C_7
REMARK    7  A    between atoms: C_10  and  C_11
REMARK    8  A    between atoms: C_11  and  N_12
REMARK    9  A    between atoms: C_20  and  C_22
REMARK                            x       y       z     vdW  Elec       q    Type
REMARK                         _______ _______ _______ _____ _____    ______ ____
ROOT
ATOM      1  N   UNL     1      50.470  10.411  13.949  0.00  0.00    +0.000 N 
ATOM      2  C   UNL     1      50.775  10.057  15.279  0.00  0.00    +0.000 C 
ATOM      3  O   UNL     1      50.714  10.889  16.184  0.00  0.00    +0.000 OA
ENDROOT
BRANCH   2   4
ATOM      4  C   UNL     1      51.192   8.679  15.605  0.00  0.00    +0.000 A 
ATOM      5  C   UNL     1      52.503   8.235  15.681  0.00  0.00    +0.000 A 
ATOM      6  S   UNL     1      52.651   6.602  16.167  0.00  0.00    +0.000 S 
ATOM      7  C   UNL     1      50.979   6.476  16.431  0.00  0.00    +0.000 A 
ATOM      8  N   UNL     1      50.434   5.354  16.976  0.00  0.00    +0.000 NA
ATOM      9  C   UNL     1      49.159   5.427  17.171  0.00  0.00    +0.000 A 
ATOM     10  N   UNL     1      48.371   6.506  16.841  0.00  0.00    +0.000 N 
ATOM     11  C   UNL     1      48.863   7.611  16.168  0.00  0.00    +0.000 A 
ATOM     12  O   UNL     1      48.108   8.441  15.676  0.00  0.00    +0.000 OA
ATOM     13  C   UNL     1      50.307   7.623  16.045  0.00  0.00    +0.000 A 
ATOM     14  H   UNL     1      47.374   6.472  16.960  0.00  0.00    +0.000 HD
ENDBRANCH   2   4
BRANCH   1  15
ATOM     15  C   UNL     1      50.104  11.815  13.699  0.00  0.00    +0.000 C 
BRANCH  15  16
ATOM     16  C   UNL     1      50.374  12.332  12.274  0.00  0.00    +0.000 C 
BRANCH  16  18
ATOM     17  C   UNL     1      49.340  11.859  10.209  0.00  0.00    +0.000 C 
ATOM     18  O   UNL     1      49.160  12.392  11.519  0.00  0.00    +0.000 OA
ENDBRANCH  16  18
ENDBRANCH  15  16
ENDBRANCH   1  15
BRANCH   1  19
ATOM     19  C   UNL     1      50.529   9.447  12.855  0.00  0.00    +0.000 C 
BRANCH  19  20
ATOM     20  C   UNL     1      49.357   8.564  12.505  0.00  0.00    +0.000 A 
ATOM     21  C   UNL     1      49.483   7.170  12.613  0.00  0.00    +0.000 A 
ATOM     22  C   UNL     1      48.349   6.354  12.634  0.00  0.00    +0.000 A 
ATOM     23  C   UNL     1      47.071   6.915  12.517  0.00  0.00    +0.000 A 
ATOM     24  C   UNL     1      46.959   8.292  12.278  0.00  0.00    +0.000 A 
ATOM     25  C   UNL     1      48.090   9.113  12.276  0.00  0.00    +0.000 A 
BRANCH  23  26
ATOM     26  C   UNL     1      45.826   6.074  12.722  0.00  0.00    +0.000 C 
BRANCH  26  27
ATOM     27  N   UNL     1      45.701   4.944  11.786  0.00  0.00    +0.000 NA
ATOM     28  C   UNL     1      44.861   5.307  10.623  0.00  0.00    +0.000 C 
ATOM     29  C   UNL     1      43.355   5.248  10.919  0.00  0.00    +0.000 C 
ATOM     30  O   UNL     1      42.978   3.916  11.278  0.00  0.00    +0.000 OA
ATOM     31  C   UNL     1      43.666   3.513  12.468  0.00  0.00    +0.000 C 
ATOM     32  C   UNL     1      45.196   3.674  12.359  0.00  0.00    +0.000 C 
ENDBRANCH  26  27
ENDBRANCH  23  26
ENDBRANCH  19  20
ENDBRANCH   1  19
TORSDOF 8
ENDMDL
