MODEL 1
REMARK VINA RESULT:    -7.947      0.000      0.000
REMARK INTER + INTRA:         -12.435
REMARK INTER:                 -11.199
REMARK INTRA:                  -1.236
REMARK UNBOUND:                -1.236
REMARK  Name = 
REMARK  9 active torsions:
REMARK  status: ('A' for Active; 'I' for Inactive)
REMARK    1  A    between atoms: C_1  and  C_2
REMARK    2  A    between atoms: C_2  and  N_3
REMARK    3  A    between atoms: C_2  and  C_11
REMARK    4  A    between atoms: N_3  and  C_4
REMARK    5  A    between atoms: C_4  and  C_5
REMARK    6  A    between atoms: C_14  and  C_15
REMARK    7  A    between atoms: C_15  and  N_16
REMARK    8  A    between atoms: N_16  and  C_17
REMARK    9  A    between atoms: C_18  and  C_20
REMARK                            x       y       z     vdW  Elec       q    Type
REMARK                         _______ _______ _______ _____ _____    ______ ____
ROOT
ATOM      1  C   UNL     1      45.242   5.184  12.223  0.00  0.00    +0.000 A 
ATOM      2  C   UNL     1      45.831   4.704  13.405  0.00  0.00    +0.000 A 
ATOM      3  C   UNL     1      47.018   5.276  13.912  0.00  0.00    +0.000 A 
ATOM      4  C   UNL     1      47.664   6.331  13.248  0.00  0.00    +0.000 A 
ATOM      5  C   UNL     1      47.114   6.780  12.049  0.00  0.00    +0.000 A 
ATOM      6  C   UNL     1      45.923   6.230  11.563  0.00  0.00    +0.000 A 
ENDROOT
BRANCH   1   8
ATOM      7  C   UNL     1      43.774   3.099  12.221  0.00  0.00    +0.000 C 
ATOM      8  C   UNL     1      43.995   4.504  11.617  0.00  0.00    +0.000 C 
BRANCH   8   9
ATOM      9  N   UNL     1      43.994   4.418  10.127  0.00  0.00    +0.000 NA
ATOM     10  H   UNL     1      43.061   4.639   9.783  0.00  0.00    +0.000 HD
BRANCH   9  11
ATOM     11  C   UNL     1      44.313   3.040   9.695  0.00  0.00    +0.000 C 
BRANCH  11  12
ATOM     12  C   UNL     1      45.310   2.834   8.574  0.00  0.00    +0.000 A 
ATOM     13  C   UNL     1      45.824   3.853   7.763  0.00  0.00    +0.000 A 
ATOM     14  C   UNL     1      46.881   3.588   6.882  0.00  0.00    +0.000 A 
ATOM     15  C   UNL     1      47.442   2.311   6.805  0.00  0.00    +0.000 A 
ATOM     16  C   UNL     1      46.934   1.285   7.590  0.00  0.00    +0.000 A 
ATOM     17  C   UNL     1      45.874   1.543   8.460  0.00  0.00    +0.000 A 
ENDBRANCH  11  12
ENDBRANCH   9  11
ENDBRANCH   8   9
ENDBRANCH   1   8
BRANCH   4  18
ATOM     18  C   UNL     1      48.861   7.048  13.842  0.00  0.00    +0.000 C 
BRANCH  18  19
ATOM     19  N   UNL     1      48.748   7.525  15.225  0.00  0.00    +0.000 N 
ATOM     20  C   UNL     1      48.126   8.823  15.448  0.00  0.00    +0.000 C 
ATOM     21  C   UNL     1      49.519   6.838  16.186  0.00  0.00    +0.000 C 
ATOM     22  O   UNL     1      50.169   5.841  15.875  0.00  0.00    +0.000 OA
BRANCH  21  23
ATOM     23  C   UNL     1      49.518   7.283  17.589  0.00  0.00    +0.000 A 
ATOM     24  C   UNL     1      50.233   8.367  18.070  0.00  0.00    +0.000 A 
ATOM     25  S   UNL     1      49.979   8.677  19.731  0.00  0.00    +0.000 S 
ATOM     26  C   UNL     1      48.794   7.463  19.833  0.00  0.00    +0.000 A 
ATOM     27  N   UNL     1      48.086   7.269  20.978  0.00  0.00    +0.000 NA
ATOM     28  C   UNL     1      47.174   6.358  20.890  0.00  0.00    +0.000 A 
ATOM     29  N   UNL     1      46.935   5.596  19.775  0.00  0.00    +0.000 N 
ATOM     30  C   UNL     1      47.722   5.664  18.638  0.00  0.00    +0.000 A 
ATOM     31  O   UNL     1      47.634   4.799  17.771  0.00  0.00    +0.000 OA
ATOM     32  C   UNL     1      48.673   6.758  18.644  0.00  0.00    +0.000 A 
ATOM     33  H   UNL     1      46.255   4.851  19.795  0.00  0.00    +0.000 HD
ENDBRANCH  21  23
ENDBRANCH  18  19
ENDBRANCH   4  18
TORSDOF 7
ENDMDL
MODEL 2
REMARK VINA RESULT:    -7.856      1.780      2.262
REMARK INTER + INTRA:         -12.307
REMARK INTER:                 -11.262
REMARK INTRA:                  -1.045
REMARK UNBOUND:                -1.236
REMARK  Name = 
REMARK  9 active torsions:
REMARK  status: ('A' for Active; 'I' for Inactive)
REMARK    1  A    between atoms: C_1  and  C_2
REMARK    2  A    between atoms: C_2  and  N_3
REMARK    3  A    between atoms: C_2  and  C_11
REMARK    4  A    between atoms: N_3  and  C_4
REMARK    5  A    between atoms: C_4  and  C_5
REMARK    6  A    between atoms: C_14  and  C_15
REMARK    7  A    between atoms: C_15  and  N_16
REMARK    8  A    between atoms: N_16  and  C_17
REMARK    9  A    between atoms: C_18  and  C_20
REMARK                            x       y       z     vdW  Elec       q    Type
REMARK                         _______ _______ _______ _____ _____    ______ ____
ROOT
ATOM      1  C   UNL     1      44.893   5.799  11.832  0.00  0.00    +0.000 A 
ATOM      2  C   UNL     1      45.941   6.654  11.447  0.00  0.00    +0.000 A 
ATOM      3  C   UNL     1      47.110   6.770  12.228  0.00  0.00    +0.000 A 
ATOM      4  C   UNL     1      47.266   6.052  13.425  0.00  0.00    +0.000 A 
ATOM      5  C   UNL     1      46.213   5.240  13.839  0.00  0.00    +0.000 A 
ATOM      6  C   UNL     1      45.066   5.106  13.050  0.00  0.00    +0.000 A 
ENDROOT
BRANCH   1   8
ATOM      7  C   UNL     1      42.443   5.096  11.862  0.00  0.00    +0.000 C 
ATOM      8  C   UNL     1      43.576   5.735  11.029  0.00  0.00    +0.000 C 
BRANCH   8   9
ATOM      9  N   UNL     1      43.683   5.044   9.710  0.00  0.00    +0.000 NA
ATOM     10  H   UNL     1      42.747   4.898   9.335  0.00  0.00    +0.000 HD
BRANCH   9  11
ATOM     11  C   UNL     1      44.305   3.713   9.881  0.00  0.00    +0.000 C 
BRANCH  11  12
ATOM     12  C   UNL     1      45.207   3.177   8.788  0.00  0.00    +0.000 A 
ATOM     13  C   UNL     1      45.910   3.969   7.873  0.00  0.00    +0.000 A 
ATOM     14  C   UNL     1      46.863   3.389   7.025  0.00  0.00    +0.000 A 
ATOM     15  C   UNL     1      47.131   2.020   7.085  0.00  0.00    +0.000 A 
ATOM     16  C   UNL     1      46.430   1.217   7.976  0.00  0.00    +0.000 A 
ATOM     17  C   UNL     1      45.473   1.790   8.813  0.00  0.00    +0.000 A 
ENDBRANCH  11  12
ENDBRANCH   9  11
ENDBRANCH   8   9
ENDBRANCH   1   8
BRANCH   4  18
ATOM     18  C   UNL     1      48.565   6.060  14.208  0.00  0.00    +0.000 C 
BRANCH  18  19
ATOM     19  N   UNL     1      48.499   6.427  15.627  0.00  0.00    +0.000 N 
ATOM     20  C   UNL     1      48.766   7.814  15.985  0.00  0.00    +0.000 C 
ATOM     21  C   UNL     1      48.487   5.357  16.547  0.00  0.00    +0.000 C 
ATOM     22  O   UNL     1      48.441   4.192  16.156  0.00  0.00    +0.000 OA
BRANCH  21  23
ATOM     23  C   UNL     1      48.483   5.627  17.994  0.00  0.00    +0.000 A 
ATOM     24  C   UNL     1      47.381   6.065  18.709  0.00  0.00    +0.000 A 
ATOM     25  S   UNL     1      47.667   6.226  20.385  0.00  0.00    +0.000 S 
ATOM     26  C   UNL     1      49.231   5.578  20.237  0.00  0.00    +0.000 A 
ATOM     27  N   UNL     1      49.998   5.340  21.334  0.00  0.00    +0.000 NA
ATOM     28  C   UNL     1      51.135   4.784  21.077  0.00  0.00    +0.000 A 
ATOM     29  N   UNL     1      51.591   4.484  19.819  0.00  0.00    +0.000 N 
ATOM     30  C   UNL     1      50.905   4.836  18.669  0.00  0.00    +0.000 A 
ATOM     31  O   UNL     1      51.459   4.778  17.574  0.00  0.00    +0.000 OA
ATOM     32  C   UNL     1      49.569   5.344  18.912  0.00  0.00    +0.000 A 
ATOM     33  H   UNL     1      52.520   4.116  19.681  0.00  0.00    +0.000 HD
ENDBRANCH  21  23
ENDBRANCH  18  19
ENDBRANCH   4  18
TORSDOF 7
ENDMDL
MODEL 3
REMARK VINA RESULT:    -7.785      1.859      2.413
REMARK INTER + INTRA:         -12.206
REMARK INTER:                 -11.195
REMARK INTRA:                  -1.011
REMARK UNBOUND:                -1.236
REMARK  Name = 
REMARK  9 active torsions:
REMARK  status: ('A' for Active; 'I' for Inactive)
REMARK    1  A    between atoms: C_1  and  C_2
REMARK    2  A    between atoms: C_2  and  N_3
REMARK    3  A    between atoms: C_2  and  C_11
REMARK    4  A    between atoms: N_3  and  C_4
REMARK    5  A    between atoms: C_4  and  C_5
REMARK    6  A    between atoms: C_14  and  C_15
REMARK    7  A    between atoms: C_15  and  N_16
REMARK    8  A    between atoms: N_16  and  C_17
REMARK    9  A    between atoms: C_18  and  C_20
REMARK                            x       y       z     vdW  Elec       q    Type
REMARK                         _______ _______ _______ _____ _____    ______ ____
ROOT
ATOM      1  C   UNL     1      44.540   4.876  11.068  0.00  0.00    +0.000 A 
ATOM      2  C   UNL     1      45.449   5.523  10.213  0.00  0.00    +0.000 A 
ATOM      3  C   UNL     1      46.249   6.591  10.675  0.00  0.00    +0.000 A 
ATOM      4  C   UNL     1      46.155   7.059  11.995  0.00  0.00    +0.000 A 
ATOM      5  C   UNL     1      45.221   6.456  12.835  0.00  0.00    +0.000 A 
ATOM      6  C   UNL     1      44.449   5.381  12.384  0.00  0.00    +0.000 A 
ENDROOT
BRANCH   1   8
ATOM      7  C   UNL     1      43.482   2.610  11.563  0.00  0.00    +0.000 C 
ATOM      8  C   UNL     1      43.600   3.768  10.546  0.00  0.00    +0.000 C 
BRANCH   8   9
ATOM      9  N   UNL     1      43.963   3.225   9.204  0.00  0.00    +0.000 NA
ATOM     10  H   UNL     1      43.195   2.650   8.861  0.00  0.00    +0.000 HD
BRANCH   9  11
ATOM     11  C   UNL     1      45.156   2.357   9.310  0.00  0.00    +0.000 C 
BRANCH  11  12
ATOM     12  C   UNL     1      46.085   2.236   8.120  0.00  0.00    +0.000 A 
ATOM     13  C   UNL     1      46.650   1.039   7.665  0.00  0.00    +0.000 A 
ATOM     14  C   UNL     1      47.340   1.004   6.446  0.00  0.00    +0.000 A 
ATOM     15  C   UNL     1      47.469   2.155   5.666  0.00  0.00    +0.000 A 
ATOM     16  C   UNL     1      46.928   3.354   6.110  0.00  0.00    +0.000 A 
ATOM     17  C   UNL     1      46.250   3.395   7.328  0.00  0.00    +0.000 A 
ENDBRANCH  11  12
ENDBRANCH   9  11
ENDBRANCH   8   9
ENDBRANCH   1   8
BRANCH   4  18
ATOM     18  C   UNL     1      47.095   8.113  12.547  0.00  0.00    +0.000 C 
BRANCH  18  19
ATOM     19  N   UNL     1      47.669   7.879  13.877  0.00  0.00    +0.000 N 
ATOM     20  C   UNL     1      47.471   8.904  14.894  0.00  0.00    +0.000 C 
ATOM     21  C   UNL     1      48.617   6.838  13.973  0.00  0.00    +0.000 C 
ATOM     22  O   UNL     1      48.863   6.121  13.004  0.00  0.00    +0.000 OA
BRANCH  21  23
ATOM     23  C   UNL     1      49.292   6.569  15.253  0.00  0.00    +0.000 A 
ATOM     24  C   UNL     1      50.415   7.241  15.706  0.00  0.00    +0.000 A 
ATOM     25  S   UNL     1      50.930   6.751  17.259  0.00  0.00    +0.000 S 
ATOM     26  C   UNL     1      49.587   5.727  17.442  0.00  0.00    +0.000 A 
ATOM     27  N   UNL     1      49.360   5.072  18.613  0.00  0.00    +0.000 NA
ATOM     28  C   UNL     1      48.268   4.382  18.632  0.00  0.00    +0.000 A 
ATOM     29  N   UNL     1      47.405   4.255  17.573  0.00  0.00    +0.000 N 
ATOM     30  C   UNL     1      47.668   4.790  16.324  0.00  0.00    +0.000 A 
ATOM     31  O   UNL     1      47.005   4.445  15.349  0.00  0.00    +0.000 OA
ATOM     32  C   UNL     1      48.815   5.676  16.291  0.00  0.00    +0.000 A 
ATOM     33  H   UNL     1      46.605   3.643  17.630  0.00  0.00    +0.000 HD
ENDBRANCH  21  23
ENDBRANCH  18  19
ENDBRANCH   4  18
TORSDOF 7
ENDMDL
MODEL 4
REMARK VINA RESULT:    -7.462      1.349      2.076
REMARK INTER + INTRA:         -11.751
REMARK INTER:                 -10.456
REMARK INTRA:                  -1.295
REMARK UNBOUND:                -1.236
REMARK  Name = 
REMARK  9 active torsions:
REMARK  status: ('A' for Active; 'I' for Inactive)
REMARK    1  A    between atoms: C_1  and  C_2
REMARK    2  A    between atoms: C_2  and  N_3
REMARK    3  A    between atoms: C_2  and  C_11
REMARK    4  A    between atoms: N_3  and  C_4
REMARK    5  A    between atoms: C_4  and  C_5
REMARK    6  A    between atoms: C_14  and  C_15
REMARK    7  A    between atoms: C_15  and  N_16
REMARK    8  A    between atoms: N_16  and  C_17
REMARK    9  A    between atoms: C_18  and  C_20
REMARK                            x       y       z     vdW  Elec       q    Type
REMARK                         _______ _______ _______ _____ _____    ______ ____
ROOT
ATOM      1  C   UNL     1      45.058   5.422  11.913  0.00  0.00    +0.000 A 
ATOM      2  C   UNL     1      45.745   4.604  12.827  0.00  0.00    +0.000 A 
ATOM      3  C   UNL     1      46.947   5.036  13.430  0.00  0.00    +0.000 A 
ATOM      4  C   UNL     1      47.510   6.286  13.128  0.00  0.00    +0.000 A 
ATOM      5  C   UNL     1      46.862   7.082  12.187  0.00  0.00    +0.000 A 
ATOM      6  C   UNL     1      45.658   6.665  11.611  0.00  0.00    +0.000 A 
ENDROOT
BRANCH   1   8
ATOM      7  C   UNL     1      43.201   3.677  11.884  0.00  0.00    +0.000 C 
ATOM      8  C   UNL     1      43.793   4.921  11.185  0.00  0.00    +0.000 C 
BRANCH   8   9
ATOM      9  N   UNL     1      43.981   4.641   9.731  0.00  0.00    +0.000 NA
ATOM     10  H   UNL     1      43.106   4.822   9.242  0.00  0.00    +0.000 HD
BRANCH   9  11
ATOM     11  C   UNL     1      44.317   3.215   9.525  0.00  0.00    +0.000 C 
BRANCH  11  12
ATOM     12  C   UNL     1      45.356   2.847   8.486  0.00  0.00    +0.000 A 
ATOM     13  C   UNL     1      46.039   3.765   7.679  0.00  0.00    +0.000 A 
ATOM     14  C   UNL     1      47.115   3.343   6.887  0.00  0.00    +0.000 A 
ATOM     15  C   UNL     1      47.525   2.008   6.895  0.00  0.00    +0.000 A 
ATOM     16  C   UNL     1      46.848   1.082   7.676  0.00  0.00    +0.000 A 
ATOM     17  C   UNL     1      45.770   1.497   8.458  0.00  0.00    +0.000 A 
ENDBRANCH  11  12
ENDBRANCH   9  11
ENDBRANCH   8   9
ENDBRANCH   1   8
BRANCH   4  18
ATOM     18  C   UNL     1      48.724   6.823  13.861  0.00  0.00    +0.000 C 
BRANCH  18  19
ATOM     19  N   UNL     1      48.523   7.339  15.220  0.00  0.00    +0.000 N 
ATOM     20  C   UNL     1      48.259   8.763  15.375  0.00  0.00    +0.000 C 
ATOM     21  C   UNL     1      48.902   6.482  16.275  0.00  0.00    +0.000 C 
ATOM     22  O   UNL     1      49.290   5.337  16.046  0.00  0.00    +0.000 OA
BRANCH  21  23
ATOM     23  C   UNL     1      48.794   6.935  17.671  0.00  0.00    +0.000 A 
ATOM     24  C   UNL     1      47.729   6.649  18.510  0.00  0.00    +0.000 A 
ATOM     25  S   UNL     1      47.920   7.257  20.094  0.00  0.00    +0.000 S 
ATOM     26  C   UNL     1      49.495   7.799  19.757  0.00  0.00    +0.000 A 
ATOM     27  N   UNL     1      50.276   8.333  20.734  0.00  0.00    +0.000 NA
ATOM     28  C   UNL     1      51.471   8.639  20.349  0.00  0.00    +0.000 A 
ATOM     29  N   UNL     1      51.940   8.498  19.068  0.00  0.00    +0.000 N 
ATOM     30  C   UNL     1      51.137   8.092  18.016  0.00  0.00    +0.000 A 
ATOM     31  O   UNL     1      51.521   8.220  16.857  0.00  0.00    +0.000 OA
ATOM     32  C   UNL     1      49.829   7.617  18.423  0.00  0.00    +0.000 A 
ATOM     33  H   UNL     1      52.861   8.824  18.817  0.00  0.00    +0.000 HD
ENDBRANCH  21  23
ENDBRANCH  18  19
ENDBRANCH   4  18
TORSDOF 7
ENDMDL
MODEL 5
REMARK VINA RESULT:    -7.316      2.322      2.855
REMARK INTER + INTRA:         -11.545
REMARK INTER:                 -10.465
REMARK INTRA:                  -1.080
REMARK UNBOUND:                -1.236
REMARK  Name = 
REMARK  9 active torsions:
REMARK  status: ('A' for Active; 'I' for Inactive)
REMARK    1  A    between atoms: C_1  and  C_2
REMARK    2  A    between atoms: C_2  and  N_3
REMARK    3  A    between atoms: C_2  and  C_11
REMARK    4  A    between atoms: N_3  and  C_4
REMARK    5  A    between atoms: C_4  and  C_5
REMARK    6  A    between atoms: C_14  and  C_15
REMARK    7  A    between atoms: C_15  and  N_16
REMARK    8  A    between atoms: N_16  and  C_17
REMARK    9  A    between atoms: C_18  and  C_20
REMARK                            x       y       z     vdW  Elec       q    Type
REMARK                         _______ _______ _______ _____ _____    ______ ____
ROOT
ATOM      1  C   UNL     1      45.040   4.710  11.679  0.00  0.00    +0.000 A 
ATOM      2  C   UNL     1      45.873   4.585  12.804  0.00  0.00    +0.000 A 
ATOM      3  C   UNL     1      46.670   5.664  13.244  0.00  0.00    +0.000 A 
ATOM      4  C   UNL     1      46.675   6.894  12.568  0.00  0.00    +0.000 A 
ATOM      5  C   UNL     1      45.890   7.011  11.423  0.00  0.00    +0.000 A 
ATOM      6  C   UNL     1      45.081   5.950  11.004  0.00  0.00    +0.000 A 
ENDROOT
BRANCH   1   8
ATOM      7  C   UNL     1      43.266   2.959  12.211  0.00  0.00    +0.000 C 
ATOM      8  C   UNL     1      44.235   3.507  11.141  0.00  0.00    +0.000 C 
BRANCH   8   9
ATOM      9  N   UNL     1      45.068   2.394  10.597  0.00  0.00    +0.000 NA
ATOM     10  H   UNL     1      46.048   2.668  10.628  0.00  0.00    +0.000 HD
BRANCH   9  11
ATOM     11  C   UNL     1      44.722   2.143   9.181  0.00  0.00    +0.000 C 
BRANCH  11  12
ATOM     12  C   UNL     1      45.820   2.188   8.138  0.00  0.00    +0.000 A 
ATOM     13  C   UNL     1      46.622   1.100   7.774  0.00  0.00    +0.000 A 
ATOM     14  C   UNL     1      47.477   1.193   6.668  0.00  0.00    +0.000 A 
ATOM     15  C   UNL     1      47.537   2.364   5.910  0.00  0.00    +0.000 A 
ATOM     16  C   UNL     1      46.761   3.458   6.267  0.00  0.00    +0.000 A 
ATOM     17  C   UNL     1      45.916   3.373   7.374  0.00  0.00    +0.000 A 
ENDBRANCH  11  12
ENDBRANCH   9  11
ENDBRANCH   8   9
ENDBRANCH   1   8
BRANCH   4  18
ATOM     18  C   UNL     1      47.418   8.105  13.099  0.00  0.00    +0.000 C 
BRANCH  18  19
ATOM     19  N   UNL     1      48.820   7.922  13.491  0.00  0.00    +0.000 N 
ATOM     20  C   UNL     1      49.733   7.353  12.508  0.00  0.00    +0.000 C 
ATOM     21  C   UNL     1      49.099   8.022  14.870  0.00  0.00    +0.000 C 
ATOM     22  O   UNL     1      48.218   8.338  15.669  0.00  0.00    +0.000 OA
BRANCH  21  23
ATOM     23  C   UNL     1      50.466   7.794  15.366  0.00  0.00    +0.000 A 
ATOM     24  C   UNL     1      51.524   8.670  15.188  0.00  0.00    +0.000 A 
ATOM     25  S   UNL     1      52.973   8.161  15.934  0.00  0.00    +0.000 S 
ATOM     26  C   UNL     1      52.202   6.823  16.644  0.00  0.00    +0.000 A 
ATOM     27  N   UNL     1      52.864   6.012  17.512  0.00  0.00    +0.000 NA
ATOM     28  C   UNL     1      52.136   5.077  18.025  0.00  0.00    +0.000 A 
ATOM     29  N   UNL     1      50.819   4.854  17.717  0.00  0.00    +0.000 N 
ATOM     30  C   UNL     1      50.147   5.566  16.738  0.00  0.00    +0.000 A 
ATOM     31  O   UNL     1      49.061   5.173  16.320  0.00  0.00    +0.000 OA
ATOM     32  C   UNL     1      50.884   6.706  16.229  0.00  0.00    +0.000 A 
ATOM     33  H   UNL     1      50.326   4.061  18.099  0.00  0.00    +0.000 HD
ENDBRANCH  21  23
ENDBRANCH  18  19
ENDBRANCH   4  18
TORSDOF 7
ENDMDL
MODEL 6
REMARK VINA RESULT:    -7.086      4.053      6.054
REMARK INTER + INTRA:         -11.221
REMARK INTER:                 -10.160
REMARK INTRA:                  -1.061
REMARK UNBOUND:                -1.236
REMARK  Name = 
REMARK  9 active torsions:
REMARK  status: ('A' for Active; 'I' for Inactive)
REMARK    1  A    between atoms: C_1  and  C_2
REMARK    2  A    between atoms: C_2  and  N_3
REMARK    3  A    between atoms: C_2  and  C_11
REMARK    4  A    between atoms: N_3  and  C_4
REMARK    5  A    between atoms: C_4  and  C_5
REMARK    6  A    between atoms: C_14  and  C_15
REMARK    7  A    between atoms: C_15  and  N_16
REMARK    8  A    between atoms: N_16  and  C_17
REMARK    9  A    between atoms: C_18  and  C_20
REMARK                            x       y       z     vdW  Elec       q    Type
REMARK                         _______ _______ _______ _____ _____    ______ ____
ROOT
ATOM      1  C   UNL     1      45.413   4.949  11.645  0.00  0.00    +0.000 A 
ATOM      2  C   UNL     1      46.002   4.517  12.846  0.00  0.00    +0.000 A 
ATOM      3  C   UNL     1      47.080   5.224  13.423  0.00  0.00    +0.000 A 
ATOM      4  C   UNL     1      47.615   6.370  12.814  0.00  0.00    +0.000 A 
ATOM      5  C   UNL     1      47.069   6.775  11.598  0.00  0.00    +0.000 A 
ATOM      6  C   UNL     1      45.984   6.090  11.041  0.00  0.00    +0.000 A 
ENDROOT
BRANCH   1   8
ATOM      7  C   UNL     1      42.957   4.270  11.725  0.00  0.00    +0.000 C 
ATOM      8  C   UNL     1      44.294   4.131  10.964  0.00  0.00    +0.000 C 
BRANCH   8   9
ATOM      9  N   UNL     1      44.613   2.687  10.763  0.00  0.00    +0.000 NA
ATOM     10  H   UNL     1      45.592   2.528  10.994  0.00  0.00    +0.000 HD
BRANCH   9  11
ATOM     11  C   UNL     1      44.427   2.316   9.343  0.00  0.00    +0.000 C 
BRANCH  11  12
ATOM     12  C   UNL     1      45.624   2.339   8.415  0.00  0.00    +0.000 A 
ATOM     13  C   UNL     1      46.400   1.222   8.085  0.00  0.00    +0.000 A 
ATOM     14  C   UNL     1      47.366   1.308   7.073  0.00  0.00    +0.000 A 
ATOM     15  C   UNL     1      47.562   2.501   6.376  0.00  0.00    +0.000 A 
ATOM     16  C   UNL     1      46.812   3.623   6.701  0.00  0.00    +0.000 A 
ATOM     17  C   UNL     1      45.858   3.544   7.715  0.00  0.00    +0.000 A 
ENDBRANCH  11  12
ENDBRANCH   9  11
ENDBRANCH   8   9
ENDBRANCH   1   8
BRANCH   4  18
ATOM     18  C   UNL     1      48.680   7.217  13.482  0.00  0.00    +0.000 C 
BRANCH  18  19
ATOM     19  N   UNL     1      49.421   8.163  12.639  0.00  0.00    +0.000 N 
ATOM     20  C   UNL     1      50.305   7.616  11.618  0.00  0.00    +0.000 C 
ATOM     21  C   UNL     1      49.455   9.501  13.086  0.00  0.00    +0.000 C 
ATOM     22  O   UNL     1      48.815   9.849  14.077  0.00  0.00    +0.000 OA
BRANCH  21  23
ATOM     23  C   UNL     1      50.225  10.509  12.339  0.00  0.00    +0.000 A 
ATOM     24  C   UNL     1      51.569  10.776  12.536  0.00  0.00    +0.000 A 
ATOM     25  S   UNL     1      52.200  11.954  11.473  0.00  0.00    +0.000 S 
ATOM     26  C   UNL     1      50.736  12.045  10.616  0.00  0.00    +0.000 A 
ATOM     27  N   UNL     1      50.626  12.807   9.494  0.00  0.00    +0.000 NA
ATOM     28  C   UNL     1      49.477  12.728   8.909  0.00  0.00    +0.000 A 
ATOM     29  N   UNL     1      48.416  11.990   9.367  0.00  0.00    +0.000 N 
ATOM     30  C   UNL     1      48.439  11.313  10.575  0.00  0.00    +0.000 A 
ATOM     31  O   UNL     1      47.399  10.880  11.063  0.00  0.00    +0.000 OA
ATOM     32  C   UNL     1      49.746  11.269  11.200  0.00  0.00    +0.000 A 
ATOM     33  H   UNL     1      47.522  12.028   8.902  0.00  0.00    +0.000 HD
ENDBRANCH  21  23
ENDBRANCH  18  19
ENDBRANCH   4  18
TORSDOF 7
ENDMDL
MODEL 7
REMARK VINA RESULT:    -6.670      1.743      2.104
REMARK INTER + INTRA:         -10.635
REMARK INTER:                 -10.300
REMARK INTRA:                  -0.335
REMARK UNBOUND:                -1.236
REMARK  Name = 
REMARK  9 active torsions:
REMARK  status: ('A' for Active; 'I' for Inactive)
REMARK    1  A    between atoms: C_1  and  C_2
REMARK    2  A    between atoms: C_2  and  N_3
REMARK    3  A    between atoms: C_2  and  C_11
REMARK    4  A    between atoms: N_3  and  C_4
REMARK    5  A    between atoms: C_4  and  C_5
REMARK    6  A    between atoms: C_14  and  C_15
REMARK    7  A    between atoms: C_15  and  N_16
REMARK    8  A    between atoms: N_16  and  C_17
REMARK    9  A    between atoms: C_18  and  C_20
REMARK                            x       y       z     vdW  Elec       q    Type
REMARK                         _______ _______ _______ _____ _____    ______ ____
ROOT
ATOM      1  C   UNL     1      45.175   4.035  12.051  0.00  0.00    +0.000 A 
ATOM      2  C   UNL     1      45.156   5.437  12.165  0.00  0.00    +0.000 A 
ATOM      3  C   UNL     1      46.073   6.112  12.999  0.00  0.00    +0.000 A 
ATOM      4  C   UNL     1      47.025   5.413  13.758  0.00  0.00    +0.000 A 
ATOM      5  C   UNL     1      47.019   4.022  13.689  0.00  0.00    +0.000 A 
ATOM      6  C   UNL     1      46.127   3.356  12.842  0.00  0.00    +0.000 A 
ENDROOT
BRANCH   1   8
ATOM      7  C   UNL     1      43.218   2.403  12.103  0.00  0.00    +0.000 C 
ATOM      8  C   UNL     1      44.119   3.286  11.211  0.00  0.00    +0.000 C 
BRANCH   8   9
ATOM      9  N   UNL     1      44.677   2.469  10.094  0.00  0.00    +0.000 NA
ATOM     10  H   UNL     1      45.500   1.969  10.428  0.00  0.00    +0.000 HD
BRANCH   9  11
ATOM     11  C   UNL     1      45.111   3.348   8.986  0.00  0.00    +0.000 C 
BRANCH  11  12
ATOM     12  C   UNL     1      45.893   2.749   7.836  0.00  0.00    +0.000 A 
ATOM     13  C   UNL     1      46.299   3.449   6.694  0.00  0.00    +0.000 A 
ATOM     14  C   UNL     1      47.179   2.857   5.779  0.00  0.00    +0.000 A 
ATOM     15  C   UNL     1      47.670   1.568   5.994  0.00  0.00    +0.000 A 
ATOM     16  C   UNL     1      47.266   0.853   7.114  0.00  0.00    +0.000 A 
ATOM     17  C   UNL     1      46.381   1.435   8.021  0.00  0.00    +0.000 A 
ENDBRANCH  11  12
ENDBRANCH   9  11
ENDBRANCH   8   9
ENDBRANCH   1   8
BRANCH   4  18
ATOM     18  C   UNL     1      48.103   6.123  14.554  0.00  0.00    +0.000 C 
BRANCH  18  19
ATOM     19  N   UNL     1      48.319   5.690  15.939  0.00  0.00    +0.000 N 
ATOM     20  C   UNL     1      47.396   4.711  16.498  0.00  0.00    +0.000 C 
ATOM     21  C   UNL     1      49.205   6.476  16.706  0.00  0.00    +0.000 C 
ATOM     22  O   UNL     1      49.820   7.410  16.195  0.00  0.00    +0.000 OA
BRANCH  21  23
ATOM     23  C   UNL     1      49.438   6.155  18.124  0.00  0.00    +0.000 A 
ATOM     24  C   UNL     1      50.282   5.153  18.575  0.00  0.00    +0.000 A 
ATOM     25  S   UNL     1      50.397   5.065  20.276  0.00  0.00    +0.000 S 
ATOM     26  C   UNL     1      49.439   6.455  20.469  0.00  0.00    +0.000 A 
ATOM     27  N   UNL     1      49.228   6.996  21.699  0.00  0.00    +0.000 NA
ATOM     28  C   UNL     1      48.537   8.087  21.688  0.00  0.00    +0.000 A 
ATOM     29  N   UNL     1      48.003   8.662  20.563  0.00  0.00    +0.000 N 
ATOM     30  C   UNL     1      48.074   8.071  19.313  0.00  0.00    +0.000 A 
ATOM     31  O   UNL     1      47.375   8.484  18.391  0.00  0.00    +0.000 OA
ATOM     32  C   UNL     1      48.947   6.915  19.257  0.00  0.00    +0.000 A 
ATOM     33  H   UNL     1      47.411   9.477  20.631  0.00  0.00    +0.000 HD
ENDBRANCH  21  23
ENDBRANCH  18  19
ENDBRANCH   4  18
TORSDOF 7
ENDMDL
MODEL 8
REMARK VINA RESULT:    -6.530      4.258      5.735
REMARK INTER + INTRA:         -10.438
REMARK INTER:                  -9.225
REMARK INTRA:                  -1.212
REMARK UNBOUND:                -1.236
REMARK  Name = 
REMARK  9 active torsions:
REMARK  status: ('A' for Active; 'I' for Inactive)
REMARK    1  A    between atoms: C_1  and  C_2
REMARK    2  A    between atoms: C_2  and  N_3
REMARK    3  A    between atoms: C_2  and  C_11
REMARK    4  A    between atoms: N_3  and  C_4
REMARK    5  A    between atoms: C_4  and  C_5
REMARK    6  A    between atoms: C_14  and  C_15
REMARK    7  A    between atoms: C_15  and  N_16
REMARK    8  A    between atoms: N_16  and  C_17
REMARK    9  A    between atoms: C_18  and  C_20
REMARK                            x       y       z     vdW  Elec       q    Type
REMARK                         _______ _______ _______ _____ _____    ______ ____
ROOT
ATOM      1  C   UNL     1      45.163   5.092  11.669  0.00  0.00    +0.000 A 
ATOM      2  C   UNL     1      46.067   4.668  12.658  0.00  0.00    +0.000 A 
ATOM      3  C   UNL     1      47.003   5.563  13.221  0.00  0.00    +0.000 A 
ATOM      4  C   UNL     1      47.080   6.901  12.804  0.00  0.00    +0.000 A 
ATOM      5  C   UNL     1      46.220   7.317  11.789  0.00  0.00    +0.000 A 
ATOM      6  C   UNL     1      45.276   6.436  11.252  0.00  0.00    +0.000 A 
ENDROOT
BRANCH   1   8
ATOM      7  C   UNL     1      42.869   3.986  11.766  0.00  0.00    +0.000 C 
ATOM      8  C   UNL     1      44.198   4.098  10.988  0.00  0.00    +0.000 C 
BRANCH   8   9
ATOM      9  N   UNL     1      44.766   2.736  10.761  0.00  0.00    +0.000 NA
ATOM     10  H   UNL     1      45.775   2.771  10.895  0.00  0.00    +0.000 HD
BRANCH   9  11
ATOM     11  C   UNL     1      44.517   2.305   9.368  0.00  0.00    +0.000 C 
BRANCH  11  12
ATOM     12  C   UNL     1      45.668   2.303   8.383  0.00  0.00    +0.000 A 
ATOM     13  C   UNL     1      46.445   1.183   8.064  0.00  0.00    +0.000 A 
ATOM     14  C   UNL     1      47.359   1.238   7.004  0.00  0.00    +0.000 A 
ATOM     15  C   UNL     1      47.503   2.402   6.247  0.00  0.00    +0.000 A 
ATOM     16  C   UNL     1      46.752   3.528   6.560  0.00  0.00    +0.000 A 
ATOM     17  C   UNL     1      45.850   3.480   7.622  0.00  0.00    +0.000 A 
ENDBRANCH  11  12
ENDBRANCH   9  11
ENDBRANCH   8   9
ENDBRANCH   1   8
BRANCH   4  18
ATOM     18  C   UNL     1      47.983   7.910  13.486  0.00  0.00    +0.000 C 
BRANCH  18  19
ATOM     19  N   UNL     1      48.986   8.590  12.659  0.00  0.00    +0.000 N 
ATOM     20  C   UNL     1      50.130   7.813  12.200  0.00  0.00    +0.000 C 
ATOM     21  C   UNL     1      48.921   9.999  12.633  0.00  0.00    +0.000 C 
ATOM     22  O   UNL     1      48.011  10.597  13.205  0.00  0.00    +0.000 OA
BRANCH  21  23
ATOM     23  C   UNL     1      49.923  10.772  11.880  0.00  0.00    +0.000 A 
ATOM     24  C   UNL     1      49.751  11.229  10.584  0.00  0.00    +0.000 A 
ATOM     25  S   UNL     1      51.063  12.154  10.001  0.00  0.00    +0.000 S 
ATOM     26  C   UNL     1      51.844  12.098  11.509  0.00  0.00    +0.000 A 
ATOM     27  N   UNL     1      52.993  12.793  11.729  0.00  0.00    +0.000 NA
ATOM     28  C   UNL     1      53.439  12.712  12.939  0.00  0.00    +0.000 A 
ATOM     29  N   UNL     1      52.863  11.967  13.936  0.00  0.00    +0.000 N 
ATOM     30  C   UNL     1      51.776  11.137  13.719  0.00  0.00    +0.000 A 
ATOM     31  O   UNL     1      51.452  10.306  14.563  0.00  0.00    +0.000 OA
ATOM     32  C   UNL     1      51.167  11.294  12.413  0.00  0.00    +0.000 A 
ATOM     33  H   UNL     1      53.301  11.889  14.841  0.00  0.00    +0.000 HD
ENDBRANCH  21  23
ENDBRANCH  18  19
ENDBRANCH   4  18
TORSDOF 7
ENDMDL
MODEL 9
REMARK VINA RESULT:    -6.449      4.828      8.578
REMARK INTER + INTRA:         -10.323
REMARK INTER:                  -9.043
REMARK INTRA:                  -1.280
REMARK UNBOUND:                -1.236
REMARK  Name = 
REMARK  9 active torsions:
REMARK  status: ('A' for Active; 'I' for Inactive)
REMARK    1  A    between atoms: C_1  and  C_2
REMARK    2  A    between atoms: C_2  and  N_3
REMARK    3  A    between atoms: C_2  and  C_11
REMARK    4  A    between atoms: N_3  and  C_4
REMARK    5  A    between atoms: C_4  and  C_5
REMARK    6  A    between atoms: C_14  and  C_15
REMARK    7  A    between atoms: C_15  and  N_16
REMARK    8  A    between atoms: N_16  and  C_17
REMARK    9  A    between atoms: C_18  and  C_20
REMARK                            x       y       z     vdW  Elec       q    Type
REMARK                         _______ _______ _______ _____ _____    ______ ____
ROOT
ATOM      1  C   UNL     1      51.308   8.459  12.558  0.00  0.00    +0.000 A 
ATOM      2  C   UNL     1      50.677   8.523  13.812  0.00  0.00    +0.000 A 
ATOM      3  C   UNL     1      49.272   8.437  13.926  0.00  0.00    +0.000 A 
ATOM      4  C   UNL     1      48.452   8.303  12.794  0.00  0.00    +0.000 A 
ATOM      5  C   UNL     1      49.066   8.289  11.543  0.00  0.00    +0.000 A 
ATOM      6  C   UNL     1      50.460   8.347  11.434  0.00  0.00    +0.000 A 
ENDROOT
BRANCH   1   8
ATOM      7  C   UNL     1      53.175   9.874  11.553  0.00  0.00    +0.000 C 
ATOM      8  C   UNL     1      52.835   8.641  12.420  0.00  0.00    +0.000 C 
BRANCH   8   9
ATOM      9  N   UNL     1      53.560   7.444  11.902  0.00  0.00    +0.000 NA
ATOM     10  H   UNL     1      54.259   7.159  12.586  0.00  0.00    +0.000 HD
BRANCH   9  11
ATOM     11  C   UNL     1      54.275   7.782  10.652  0.00  0.00    +0.000 C 
BRANCH  11  12
ATOM     12  C   UNL     1      53.954   7.008   9.390  0.00  0.00    +0.000 A 
ATOM     13  C   UNL     1      54.588   5.825   8.995  0.00  0.00    +0.000 A 
ATOM     14  C   UNL     1      54.090   5.085   7.914  0.00  0.00    +0.000 A 
ATOM     15  C   UNL     1      52.955   5.510   7.222  0.00  0.00    +0.000 A 
ATOM     16  C   UNL     1      52.323   6.691   7.590  0.00  0.00    +0.000 A 
ATOM     17  C   UNL     1      52.822   7.435   8.658  0.00  0.00    +0.000 A 
ENDBRANCH  11  12
ENDBRANCH   9  11
ENDBRANCH   8   9
ENDBRANCH   1   8
BRANCH   4  18
ATOM     18  C   UNL     1      46.957   8.076  12.901  0.00  0.00    +0.000 C 
BRANCH  18  19
ATOM     19  N   UNL     1      46.471   6.696  12.786  0.00  0.00    +0.000 N 
ATOM     20  C   UNL     1      47.329   5.629  13.283  0.00  0.00    +0.000 C 
ATOM     21  C   UNL     1      45.364   6.495  11.935  0.00  0.00    +0.000 C 
ATOM     22  O   UNL     1      44.797   7.449  11.404  0.00  0.00    +0.000 OA
BRANCH  21  23
ATOM     23  C   UNL     1      44.843   5.137  11.709  0.00  0.00    +0.000 A 
ATOM     24  C   UNL     1      44.085   4.423  12.623  0.00  0.00    +0.000 A 
ATOM     25  S   UNL     1      43.571   2.899  12.049  0.00  0.00    +0.000 S 
ATOM     26  C   UNL     1      44.219   3.199  10.507  0.00  0.00    +0.000 A 
ATOM     27  N   UNL     1      44.032   2.321   9.485  0.00  0.00    +0.000 NA
ATOM     28  C   UNL     1      44.522   2.710   8.355  0.00  0.00    +0.000 A 
ATOM     29  N   UNL     1      45.218   3.876   8.164  0.00  0.00    +0.000 N 
ATOM     30  C   UNL     1      45.551   4.728   9.203  0.00  0.00    +0.000 A 
ATOM     31  O   UNL     1      46.380   5.618   9.033  0.00  0.00    +0.000 OA
ATOM     32  C   UNL     1      44.914   4.398  10.463  0.00  0.00    +0.000 A 
ATOM     33  H   UNL     1      45.637   4.087   7.271  0.00  0.00    +0.000 HD
ENDBRANCH  21  23
ENDBRANCH  18  19
ENDBRANCH   4  18
TORSDOF 7
ENDMDL
