MODEL 1
REMARK VINA RESULT:    -8.007      0.000      0.000
REMARK INTER + INTRA:         -12.169
REMARK INTER:                 -11.283
REMARK INTRA:                  -0.885
REMARK UNBOUND:                -0.885
REMARK  Name = 
REMARK  7 active torsions:
REMARK  status: ('A' for Active; 'I' for Inactive)
REMARK    1  A    between atoms: C_2  and  C_4
REMARK    2  A    between atoms: C_7  and  N_8
REMARK    3  A    between atoms: N_8  and  C_9
REMARK    4  A    between atoms: C_9  and  C_10
REMARK    5  A    between atoms: C_10  and  C_11
REMARK    6  A    between atoms: C_15  and  N_16
REMARK    7  A    between atoms: N_16  and  C_17
REMARK                            x       y       z     vdW  Elec       q    Type
REMARK                         _______ _______ _______ _____ _____    ______ ____
ROOT
ATOM      1  C   UNL     1      43.437   5.076  11.103  0.00  0.00    +0.000 C 
ENDROOT
BRANCH   1   2
ATOM      2  N   UNL     1      43.547   4.875   9.658  0.00  0.00    +0.000 N 
ATOM      3  H   UNL     1      42.659   4.833   9.162  0.00  0.00    +0.000 HD
BRANCH   2   7
ATOM      4  C   UNL     1      46.215   2.046   8.005  0.00  0.00    +0.000 A 
ATOM      5  C   UNL     1      46.338   3.394   7.658  0.00  0.00    +0.000 A 
ATOM      6  C   UNL     1      45.472   4.343   8.211  0.00  0.00    +0.000 A 
ATOM      7  C   UNL     1      44.486   3.982   9.138  0.00  0.00    +0.000 A 
ATOM      8  C   UNL     1      44.362   2.619   9.456  0.00  0.00    +0.000 A 
ATOM      9  C   UNL     1      45.213   1.658   8.896  0.00  0.00    +0.000 A 
BRANCH   4  11
ATOM     10  N   UNL     1      48.067   1.429   6.546  0.00  0.00    +0.000 N 
ATOM     11  C   UNL     1      47.099   1.007   7.415  0.00  0.00    +0.000 C 
ATOM     12  O   UNL     1      46.994  -0.171   7.721  0.00  0.00    +0.000 OA
ATOM     13  H   UNL     1      48.722   0.725   6.230  0.00  0.00    +0.000 HD
ATOM     14  H   UNL     1      48.345   2.396   6.474  0.00  0.00    +0.000 HD
ENDBRANCH   4  11
ENDBRANCH   2   7
ENDBRANCH   1   2
BRANCH   1  15
ATOM     15  C   UNL     1      44.074   6.410  11.512  0.00  0.00    +0.000 C 
BRANCH  15  16
ATOM     16  C   UNL     1      45.393   6.219  12.222  0.00  0.00    +0.000 A 
ATOM     17  C   UNL     1      46.531   6.915  11.801  0.00  0.00    +0.000 A 
ATOM     18  C   UNL     1      47.754   6.722  12.444  0.00  0.00    +0.000 A 
ATOM     19  C   UNL     1      47.859   5.817  13.503  0.00  0.00    +0.000 A 
ATOM     20  C   UNL     1      46.738   5.106  13.936  0.00  0.00    +0.000 A 
ATOM     21  C   UNL     1      45.509   5.320  13.295  0.00  0.00    +0.000 A 
BRANCH  20  22
ATOM     22  N   UNL     1      46.783   4.184  15.007  0.00  0.00    +0.000 N 
ATOM     23  H   UNL     1      45.833   4.032  15.346  0.00  0.00    +0.000 HD
BRANCH  22  24
ATOM     24  C   UNL     1      47.744   4.191  16.073  0.00  0.00    +0.000 C 
ATOM     25  C   UNL     1      48.250   2.774  16.417  0.00  0.00    +0.000 C 
ATOM     26  C   UNL     1      47.923   3.045  17.893  0.00  0.00    +0.000 C 
ATOM     27  C   UNL     1      47.048   4.228  17.451  0.00  0.00    +0.000 C 
ENDBRANCH  22  24
ENDBRANCH  20  22
ENDBRANCH  15  16
ENDBRANCH   1  15
TORSDOF 7
ENDMDL
MODEL 2
REMARK VINA RESULT:    -7.561      2.922      5.001
REMARK INTER + INTRA:         -11.541
REMARK INTER:                 -10.620
REMARK INTRA:                  -0.921
REMARK UNBOUND:                -0.885
REMARK  Name = 
REMARK  7 active torsions:
REMARK  status: ('A' for Active; 'I' for Inactive)
REMARK    1  A    between atoms: C_2  and  C_4
REMARK    2  A    between atoms: C_7  and  N_8
REMARK    3  A    between atoms: N_8  and  C_9
REMARK    4  A    between atoms: C_9  and  C_10
REMARK    5  A    between atoms: C_10  and  C_11
REMARK    6  A    between atoms: C_15  and  N_16
REMARK    7  A    between atoms: N_16  and  C_17
REMARK                            x       y       z     vdW  Elec       q    Type
REMARK                         _______ _______ _______ _____ _____    ______ ____
ROOT
ATOM      1  C   UNL     1      44.053   4.989  11.479  0.00  0.00    +0.000 C 
ENDROOT
BRANCH   1   2
ATOM      2  N   UNL     1      43.830   4.882  10.036  0.00  0.00    +0.000 N 
ATOM      3  H   UNL     1      42.853   4.836   9.756  0.00  0.00    +0.000 HD
BRANCH   2   7
ATOM      4  C   UNL     1      46.477   2.520   7.742  0.00  0.00    +0.000 A 
ATOM      5  C   UNL     1      45.599   1.901   8.635  0.00  0.00    +0.000 A 
ATOM      6  C   UNL     1      44.706   2.670   9.388  0.00  0.00    +0.000 A 
ATOM      7  C   UNL     1      44.645   4.062   9.253  0.00  0.00    +0.000 A 
ATOM      8  C   UNL     1      45.551   4.669   8.368  0.00  0.00    +0.000 A 
ATOM      9  C   UNL     1      46.461   3.910   7.620  0.00  0.00    +0.000 A 
BRANCH   4  11
ATOM     10  N   UNL     1      48.548   2.406   6.462  0.00  0.00    +0.000 N 
ATOM     11  C   UNL     1      47.459   1.737   6.947  0.00  0.00    +0.000 C 
ATOM     12  O   UNL     1      47.322   0.536   6.764  0.00  0.00    +0.000 OA
ATOM     13  H   UNL     1      49.254   1.842   6.007  0.00  0.00    +0.000 HD
ATOM     14  H   UNL     1      48.820   3.316   6.805  0.00  0.00    +0.000 HD
ENDBRANCH   4  11
ENDBRANCH   2   7
ENDBRANCH   1   2
BRANCH   1  15
ATOM     15  C   UNL     1      45.550   5.125  11.784  0.00  0.00    +0.000 C 
BRANCH  15  16
ATOM     16  C   UNL     1      45.977   6.568  11.919  0.00  0.00    +0.000 A 
ATOM     17  C   UNL     1      47.331   6.913  11.864  0.00  0.00    +0.000 A 
ATOM     18  C   UNL     1      47.726   8.243  12.009  0.00  0.00    +0.000 A 
ATOM     19  C   UNL     1      46.775   9.241  12.231  0.00  0.00    +0.000 A 
ATOM     20  C   UNL     1      45.418   8.918  12.296  0.00  0.00    +0.000 A 
ATOM     21  C   UNL     1      45.029   7.581  12.131  0.00  0.00    +0.000 A 
BRANCH  20  22
ATOM     22  N   UNL     1      44.410   9.888  12.510  0.00  0.00    +0.000 N 
ATOM     23  H   UNL     1      43.635   9.448  13.007  0.00  0.00    +0.000 HD
BRANCH  22  24
ATOM     24  C   UNL     1      43.959  10.848  11.543  0.00  0.00    +0.000 C 
ATOM     25  C   UNL     1      42.421  10.861  11.401  0.00  0.00    +0.000 C 
ATOM     26  C   UNL     1      42.588  10.721   9.881  0.00  0.00    +0.000 C 
ATOM     27  C   UNL     1      44.040  10.275  10.111  0.00  0.00    +0.000 C 
ENDBRANCH  22  24
ENDBRANCH  20  22
ENDBRANCH  15  16
ENDBRANCH   1  15
TORSDOF 7
ENDMDL
MODEL 3
REMARK VINA RESULT:    -7.412      1.952      3.175
REMARK INTER + INTRA:         -11.331
REMARK INTER:                 -10.344
REMARK INTRA:                  -0.986
REMARK UNBOUND:                -0.885
REMARK  Name = 
REMARK  7 active torsions:
REMARK  status: ('A' for Active; 'I' for Inactive)
REMARK    1  A    between atoms: C_2  and  C_4
REMARK    2  A    between atoms: C_7  and  N_8
REMARK    3  A    between atoms: N_8  and  C_9
REMARK    4  A    between atoms: C_9  and  C_10
REMARK    5  A    between atoms: C_10  and  C_11
REMARK    6  A    between atoms: C_15  and  N_16
REMARK    7  A    between atoms: N_16  and  C_17
REMARK                            x       y       z     vdW  Elec       q    Type
REMARK                         _______ _______ _______ _____ _____    ______ ____
ROOT
ATOM      1  C   UNL     1      43.577   5.104  10.496  0.00  0.00    +0.000 C 
ENDROOT
BRANCH   1   2
ATOM      2  N   UNL     1      43.649   3.722  10.017  0.00  0.00    +0.000 N 
ATOM      3  H   UNL     1      43.434   3.014  10.716  0.00  0.00    +0.000 HD
BRANCH   2   7
ATOM      4  C   UNL     1      46.616   2.351   7.340  0.00  0.00    +0.000 A 
ATOM      5  C   UNL     1      46.234   3.694   7.316  0.00  0.00    +0.000 A 
ATOM      6  C   UNL     1      45.265   4.165   8.208  0.00  0.00    +0.000 A 
ATOM      7  C   UNL     1      44.675   3.324   9.159  0.00  0.00    +0.000 A 
ATOM      8  C   UNL     1      45.054   1.970   9.152  0.00  0.00    +0.000 A 
ATOM      9  C   UNL     1      46.012   1.485   8.253  0.00  0.00    +0.000 A 
BRANCH   4  11
ATOM     10  N   UNL     1      48.826   2.454   6.318  0.00  0.00    +0.000 N 
ATOM     11  C   UNL     1      47.621   1.811   6.388  0.00  0.00    +0.000 C 
ATOM     12  O   UNL     1      47.399   0.810   5.722  0.00  0.00    +0.000 OA
ATOM     13  H   UNL     1      49.533   2.018   5.740  0.00  0.00    +0.000 HD
ATOM     14  H   UNL     1      49.132   3.107   7.024  0.00  0.00    +0.000 HD
ENDBRANCH   4  11
ENDBRANCH   2   7
ENDBRANCH   1   2
BRANCH   1  15
ATOM     15  C   UNL     1      43.519   5.141  12.027  0.00  0.00    +0.000 C 
BRANCH  15  16
ATOM     16  C   UNL     1      44.895   5.137  12.651  0.00  0.00    +0.000 A 
ATOM     17  C   UNL     1      45.524   3.928  12.969  0.00  0.00    +0.000 A 
ATOM     18  C   UNL     1      46.786   3.925  13.563  0.00  0.00    +0.000 A 
ATOM     19  C   UNL     1      47.426   5.129  13.865  0.00  0.00    +0.000 A 
ATOM     20  C   UNL     1      46.814   6.347  13.563  0.00  0.00    +0.000 A 
ATOM     21  C   UNL     1      45.554   6.340  12.949  0.00  0.00    +0.000 A 
BRANCH  20  22
ATOM     22  N   UNL     1      47.419   7.596  13.839  0.00  0.00    +0.000 N 
ATOM     23  H   UNL     1      46.716   8.217  14.240  0.00  0.00    +0.000 HD
BRANCH  22  24
ATOM     24  C   UNL     1      48.325   8.293  12.970  0.00  0.00    +0.000 C 
ATOM     25  C   UNL     1      48.433   7.629  11.580  0.00  0.00    +0.000 C 
ATOM     26  C   UNL     1      49.962   7.634  11.728  0.00  0.00    +0.000 C 
ATOM     27  C   UNL     1      49.786   7.870  13.236  0.00  0.00    +0.000 C 
ENDBRANCH  22  24
ENDBRANCH  20  22
ENDBRANCH  15  16
ENDBRANCH   1  15
TORSDOF 7
ENDMDL
MODEL 4
REMARK VINA RESULT:    -7.051      3.097      7.566
REMARK INTER + INTRA:         -10.822
REMARK INTER:                 -10.120
REMARK INTRA:                  -0.701
REMARK UNBOUND:                -0.885
REMARK  Name = 
REMARK  7 active torsions:
REMARK  status: ('A' for Active; 'I' for Inactive)
REMARK    1  A    between atoms: C_2  and  C_4
REMARK    2  A    between atoms: C_7  and  N_8
REMARK    3  A    between atoms: N_8  and  C_9
REMARK    4  A    between atoms: C_9  and  C_10
REMARK    5  A    between atoms: C_10  and  C_11
REMARK    6  A    between atoms: C_15  and  N_16
REMARK    7  A    between atoms: N_16  and  C_17
REMARK                            x       y       z     vdW  Elec       q    Type
REMARK                         _______ _______ _______ _____ _____    ______ ____
ROOT
ATOM      1  C   UNL     1      43.115   3.981  11.548  0.00  0.00    +0.000 C 
ENDROOT
BRANCH   1   2
ATOM      2  N   UNL     1      43.603   4.358  12.875  0.00  0.00    +0.000 N 
ATOM      3  H   UNL     1      42.876   4.584  13.551  0.00  0.00    +0.000 HD
BRANCH   2   7
ATOM      4  C   UNL     1      47.113   6.693  13.150  0.00  0.00    +0.000 A 
ATOM      5  C   UNL     1      45.929   7.280  12.700  0.00  0.00    +0.000 A 
ATOM      6  C   UNL     1      44.755   6.523  12.620  0.00  0.00    +0.000 A 
ATOM      7  C   UNL     1      44.724   5.179  13.010  0.00  0.00    +0.000 A 
ATOM      8  C   UNL     1      45.931   4.598  13.437  0.00  0.00    +0.000 A 
ATOM      9  C   UNL     1      47.115   5.343  13.506  0.00  0.00    +0.000 A 
BRANCH   4  11
ATOM     10  N   UNL     1      49.499   6.875  12.686  0.00  0.00    +0.000 N 
ATOM     11  C   UNL     1      48.385   7.460  13.220  0.00  0.00    +0.000 C 
ATOM     12  O   UNL     1      48.428   8.583  13.700  0.00  0.00    +0.000 OA
ATOM     13  H   UNL     1      50.333   7.447  12.653  0.00  0.00    +0.000 HD
ATOM     14  H   UNL     1      49.447   6.082  12.064  0.00  0.00    +0.000 HD
ENDBRANCH   4  11
ENDBRANCH   2   7
ENDBRANCH   1   2
BRANCH   1  15
ATOM     15  C   UNL     1      43.864   2.748  11.028  0.00  0.00    +0.000 C 
BRANCH  15  16
ATOM     16  C   UNL     1      44.769   3.079   9.865  0.00  0.00    +0.000 A 
ATOM     17  C   UNL     1      44.990   4.411   9.496  0.00  0.00    +0.000 A 
ATOM     18  C   UNL     1      45.810   4.715   8.409  0.00  0.00    +0.000 A 
ATOM     19  C   UNL     1      46.403   3.692   7.665  0.00  0.00    +0.000 A 
ATOM     20  C   UNL     1      46.191   2.356   8.010  0.00  0.00    +0.000 A 
ATOM     21  C   UNL     1      45.380   2.061   9.115  0.00  0.00    +0.000 A 
BRANCH  20  22
ATOM     22  N   UNL     1      46.772   1.280   7.299  0.00  0.00    +0.000 N 
ATOM     23  H   UNL     1      47.234   0.661   7.964  0.00  0.00    +0.000 HD
BRANCH  22  24
ATOM     24  C   UNL     1      47.499   1.392   6.067  0.00  0.00    +0.000 C 
ATOM     25  C   UNL     1      46.787   2.306   5.045  0.00  0.00    +0.000 C 
ATOM     26  C   UNL     1      46.917   1.190   3.998  0.00  0.00    +0.000 C 
ATOM     27  C   UNL     1      47.202   0.197   5.135  0.00  0.00    +0.000 C 
ENDBRANCH  22  24
ENDBRANCH  20  22
ENDBRANCH  15  16
ENDBRANCH   1  15
TORSDOF 7
ENDMDL
MODEL 5
REMARK VINA RESULT:    -6.731      3.450      8.353
REMARK INTER + INTRA:         -10.371
REMARK INTER:                  -9.741
REMARK INTRA:                  -0.630
REMARK UNBOUND:                -0.885
REMARK  Name = 
REMARK  7 active torsions:
REMARK  status: ('A' for Active; 'I' for Inactive)
REMARK    1  A    between atoms: C_2  and  C_4
REMARK    2  A    between atoms: C_7  and  N_8
REMARK    3  A    between atoms: N_8  and  C_9
REMARK    4  A    between atoms: C_9  and  C_10
REMARK    5  A    between atoms: C_10  and  C_11
REMARK    6  A    between atoms: C_15  and  N_16
REMARK    7  A    between atoms: N_16  and  C_17
REMARK                            x       y       z     vdW  Elec       q    Type
REMARK                         _______ _______ _______ _____ _____    ______ ____
ROOT
ATOM      1  C   UNL     1      46.983   3.759  14.380  0.00  0.00    +0.000 C 
ENDROOT
BRANCH   1   2
ATOM      2  N   UNL     1      47.023   3.587  15.833  0.00  0.00    +0.000 N 
ATOM      3  H   UNL     1      46.249   4.014  16.337  0.00  0.00    +0.000 HD
BRANCH   2   7
ATOM      4  C   UNL     1      50.776   3.796  17.762  0.00  0.00    +0.000 A 
ATOM      5  C   UNL     1      50.090   4.974  17.461  0.00  0.00    +0.000 A 
ATOM      6  C   UNL     1      48.839   4.918  16.837  0.00  0.00    +0.000 A 
ATOM      7  C   UNL     1      48.231   3.697  16.526  0.00  0.00    +0.000 A 
ATOM      8  C   UNL     1      48.946   2.523  16.815  0.00  0.00    +0.000 A 
ATOM      9  C   UNL     1      50.207   2.567  17.425  0.00  0.00    +0.000 A 
BRANCH   4  11
ATOM     10  N   UNL     1      52.165   3.830  19.765  0.00  0.00    +0.000 N 
ATOM     11  C   UNL     1      52.120   3.818  18.399  0.00  0.00    +0.000 C 
ATOM     12  O   UNL     1      53.143   3.788  17.733  0.00  0.00    +0.000 OA
ATOM     13  H   UNL     1      53.082   3.746  20.184  0.00  0.00    +0.000 HD
ATOM     14  H   UNL     1      51.364   3.597  20.335  0.00  0.00    +0.000 HD
ENDBRANCH   4  11
ENDBRANCH   2   7
ENDBRANCH   1   2
BRANCH   1  15
ATOM     15  C   UNL     1      46.225   5.039  14.010  0.00  0.00    +0.000 C 
BRANCH  15  16
ATOM     16  C   UNL     1      45.164   4.792  12.963  0.00  0.00    +0.000 A 
ATOM     17  C   UNL     1      44.042   5.624  12.883  0.00  0.00    +0.000 A 
ATOM     18  C   UNL     1      43.052   5.383  11.929  0.00  0.00    +0.000 A 
ATOM     19  C   UNL     1      43.163   4.296  11.058  0.00  0.00    +0.000 A 
ATOM     20  C   UNL     1      44.271   3.449  11.125  0.00  0.00    +0.000 A 
ATOM     21  C   UNL     1      45.268   3.710  12.074  0.00  0.00    +0.000 A 
BRANCH  20  22
ATOM     22  N   UNL     1      44.439   2.340  10.263  0.00  0.00    +0.000 N 
ATOM     23  H   UNL     1      45.098   1.691  10.693  0.00  0.00    +0.000 HD
BRANCH  22  24
ATOM     24  C   UNL     1      44.597   2.408   8.839  0.00  0.00    +0.000 C 
ATOM     25  C   UNL     1      45.876   1.693   8.353  0.00  0.00    +0.000 C 
ATOM     26  C   UNL     1      46.255   2.959   7.572  0.00  0.00    +0.000 C 
ATOM     27  C   UNL     1      45.239   3.747   8.413  0.00  0.00    +0.000 C 
ENDBRANCH  22  24
ENDBRANCH  20  22
ENDBRANCH  15  16
ENDBRANCH   1  15
TORSDOF 7
ENDMDL
MODEL 6
REMARK VINA RESULT:    -6.695      3.763      7.591
REMARK INTER + INTRA:         -10.320
REMARK INTER:                  -9.106
REMARK INTRA:                  -1.213
REMARK UNBOUND:                -0.885
REMARK  Name = 
REMARK  7 active torsions:
REMARK  status: ('A' for Active; 'I' for Inactive)
REMARK    1  A    between atoms: C_2  and  C_4
REMARK    2  A    between atoms: C_7  and  N_8
REMARK    3  A    between atoms: N_8  and  C_9
REMARK    4  A    between atoms: C_9  and  C_10
REMARK    5  A    between atoms: C_10  and  C_11
REMARK    6  A    between atoms: C_15  and  N_16
REMARK    7  A    between atoms: N_16  and  C_17
REMARK                            x       y       z     vdW  Elec       q    Type
REMARK                         _______ _______ _______ _____ _____    ______ ____
ROOT
ATOM      1  C   UNL     1      47.502   5.821  13.374  0.00  0.00    +0.000 C 
ENDROOT
BRANCH   1   2
ATOM      2  N   UNL     1      47.289   7.145  13.961  0.00  0.00    +0.000 N 
ATOM      3  H   UNL     1      46.805   7.144  14.857  0.00  0.00    +0.000 HD
BRANCH   2   7
ATOM      4  C   UNL     1      46.009  10.476  11.699  0.00  0.00    +0.000 A 
ATOM      5  C   UNL     1      47.372  10.289  11.939  0.00  0.00    +0.000 A 
ATOM      6  C   UNL     1      47.811   9.182  12.673  0.00  0.00    +0.000 A 
ATOM      7  C   UNL     1      46.913   8.224  13.158  0.00  0.00    +0.000 A 
ATOM      8  C   UNL     1      45.544   8.440  12.927  0.00  0.00    +0.000 A 
ATOM      9  C   UNL     1      45.093   9.554  12.207  0.00  0.00    +0.000 A 
BRANCH   4  11
ATOM     10  N   UNL     1      46.408  12.345  10.186  0.00  0.00    +0.000 N 
ATOM     11  C   UNL     1      45.506  11.656  10.948  0.00  0.00    +0.000 C 
ATOM     12  O   UNL     1      44.327  11.977  10.976  0.00  0.00    +0.000 OA
ATOM     13  H   UNL     1      46.032  13.083   9.606  0.00  0.00    +0.000 HD
ATOM     14  H   UNL     1      47.309  11.963   9.938  0.00  0.00    +0.000 HD
ENDBRANCH   4  11
ENDBRANCH   2   7
ENDBRANCH   1   2
BRANCH   1  15
ATOM     15  C   UNL     1      46.355   4.875  13.748  0.00  0.00    +0.000 C 
BRANCH  15  16
ATOM     16  C   UNL     1      45.228   4.919  12.743  0.00  0.00    +0.000 A 
ATOM     17  C   UNL     1      43.903   5.051  13.172  0.00  0.00    +0.000 A 
ATOM     18  C   UNL     1      42.860   5.072  12.244  0.00  0.00    +0.000 A 
ATOM     19  C   UNL     1      43.128   4.939  10.880  0.00  0.00    +0.000 A 
ATOM     20  C   UNL     1      44.443   4.799  10.430  0.00  0.00    +0.000 A 
ATOM     21  C   UNL     1      45.485   4.799  11.368  0.00  0.00    +0.000 A 
BRANCH  20  22
ATOM     22  N   UNL     1      44.773   4.671   9.060  0.00  0.00    +0.000 N 
ATOM     23  H   UNL     1      44.352   5.446   8.549  0.00  0.00    +0.000 HD
BRANCH  22  24
ATOM     24  C   UNL     1      44.750   3.449   8.309  0.00  0.00    +0.000 C 
ATOM     25  C   UNL     1      45.021   2.211   9.191  0.00  0.00    +0.000 C 
ATOM     26  C   UNL     1      46.104   1.772   8.195  0.00  0.00    +0.000 C 
ATOM     27  C   UNL     1      46.107   3.195   7.616  0.00  0.00    +0.000 C 
ENDBRANCH  22  24
ENDBRANCH  20  22
ENDBRANCH  15  16
ENDBRANCH   1  15
TORSDOF 7
ENDMDL
MODEL 7
REMARK VINA RESULT:    -6.680      2.782      7.194
REMARK INTER + INTRA:         -10.299
REMARK INTER:                  -9.437
REMARK INTRA:                  -0.862
REMARK UNBOUND:                -0.885
REMARK  Name = 
REMARK  7 active torsions:
REMARK  status: ('A' for Active; 'I' for Inactive)
REMARK    1  A    between atoms: C_2  and  C_4
REMARK    2  A    between atoms: C_7  and  N_8
REMARK    3  A    between atoms: N_8  and  C_9
REMARK    4  A    between atoms: C_9  and  C_10
REMARK    5  A    between atoms: C_10  and  C_11
REMARK    6  A    between atoms: C_15  and  N_16
REMARK    7  A    between atoms: N_16  and  C_17
REMARK                            x       y       z     vdW  Elec       q    Type
REMARK                         _______ _______ _______ _____ _____    ______ ____
ROOT
ATOM      1  C   UNL     1      45.870   7.707  12.679  0.00  0.00    +0.000 C 
ENDROOT
BRANCH   1   2
ATOM      2  N   UNL     1      47.127   6.976  12.846  0.00  0.00    +0.000 N 
ATOM      3  H   UNL     1      47.489   6.545  11.997  0.00  0.00    +0.000 HD
BRANCH   2   7
ATOM      4  C   UNL     1      47.830   4.399  16.119  0.00  0.00    +0.000 A 
ATOM      5  C   UNL     1      48.469   5.640  16.070  0.00  0.00    +0.000 A 
ATOM      6  C   UNL     1      48.232   6.509  15.000  0.00  0.00    +0.000 A 
ATOM      7  C   UNL     1      47.339   6.181  13.974  0.00  0.00    +0.000 A 
ATOM      8  C   UNL     1      46.724   4.919  14.028  0.00  0.00    +0.000 A 
ATOM      9  C   UNL     1      46.965   4.033  15.086  0.00  0.00    +0.000 A 
BRANCH   4  11
ATOM     10  N   UNL     1      47.002   2.753  17.714  0.00  0.00    +0.000 N 
ATOM     11  C   UNL     1      48.079   3.438  17.226  0.00  0.00    +0.000 C 
ATOM     12  O   UNL     1      49.204   3.237  17.657  0.00  0.00    +0.000 OA
ATOM     13  H   UNL     1      47.201   2.033  18.398  0.00  0.00    +0.000 HD
ATOM     14  H   UNL     1      46.124   2.701  17.219  0.00  0.00    +0.000 HD
ENDBRANCH   4  11
ENDBRANCH   2   7
ENDBRANCH   1   2
BRANCH   1  15
ATOM     15  C   UNL     1      45.172   7.290  11.379  0.00  0.00    +0.000 C 
BRANCH  15  16
ATOM     16  C   UNL     1      44.565   5.910  11.474  0.00  0.00    +0.000 A 
ATOM     17  C   UNL     1      43.468   5.676  12.310  0.00  0.00    +0.000 A 
ATOM     18  C   UNL     1      42.921   4.397  12.413  0.00  0.00    +0.000 A 
ATOM     19  C   UNL     1      43.475   3.333  11.698  0.00  0.00    +0.000 A 
ATOM     20  C   UNL     1      44.575   3.542  10.863  0.00  0.00    +0.000 A 
ATOM     21  C   UNL     1      45.106   4.835  10.752  0.00  0.00    +0.000 A 
BRANCH  20  22
ATOM     22  N   UNL     1      45.172   2.505  10.109  0.00  0.00    +0.000 N 
ATOM     23  H   UNL     1      46.109   2.335  10.473  0.00  0.00    +0.000 HD
BRANCH  22  24
ATOM     24  C   UNL     1      45.113   2.373   8.681  0.00  0.00    +0.000 C 
ATOM     25  C   UNL     1      46.231   1.463   8.128  0.00  0.00    +0.000 C 
ATOM     26  C   UNL     1      46.599   2.570   7.128  0.00  0.00    +0.000 C 
ATOM     27  C   UNL     1      45.801   3.566   7.983  0.00  0.00    +0.000 C 
ENDBRANCH  22  24
ENDBRANCH  20  22
ENDBRANCH  15  16
ENDBRANCH   1  15
TORSDOF 7
ENDMDL
MODEL 8
REMARK VINA RESULT:    -6.541      1.840      2.064
REMARK INTER + INTRA:         -10.103
REMARK INTER:                  -9.151
REMARK INTRA:                  -0.952
REMARK UNBOUND:                -0.885
REMARK  Name = 
REMARK  7 active torsions:
REMARK  status: ('A' for Active; 'I' for Inactive)
REMARK    1  A    between atoms: C_2  and  C_4
REMARK    2  A    between atoms: C_7  and  N_8
REMARK    3  A    between atoms: N_8  and  C_9
REMARK    4  A    between atoms: C_9  and  C_10
REMARK    5  A    between atoms: C_10  and  C_11
REMARK    6  A    between atoms: C_15  and  N_16
REMARK    7  A    between atoms: N_16  and  C_17
REMARK                            x       y       z     vdW  Elec       q    Type
REMARK                         _______ _______ _______ _____ _____    ______ ____
ROOT
ATOM      1  C   UNL     1      44.032   5.764  11.316  0.00  0.00    +0.000 C 
ENDROOT
BRANCH   1   2
ATOM      2  N   UNL     1      43.580   4.938  10.196  0.00  0.00    +0.000 N 
ATOM      3  H   UNL     1      42.681   4.482  10.335  0.00  0.00    +0.000 HD
BRANCH   2   7
ATOM      4  C   UNL     1      46.132   2.376   8.012  0.00  0.00    +0.000 A 
ATOM      5  C   UNL     1      46.267   3.760   7.878  0.00  0.00    +0.000 A 
ATOM      6  C   UNL     1      45.439   4.619   8.608  0.00  0.00    +0.000 A 
ATOM      7  C   UNL     1      44.483   4.128   9.504  0.00  0.00    +0.000 A 
ATOM      8  C   UNL     1      44.346   2.734   9.608  0.00  0.00    +0.000 A 
ATOM      9  C   UNL     1      45.158   1.863   8.870  0.00  0.00    +0.000 A 
BRANCH   4  11
ATOM     10  N   UNL     1      46.897   0.107   7.556  0.00  0.00    +0.000 N 
ATOM     11  C   UNL     1      46.975   1.433   7.231  0.00  0.00    +0.000 C 
ATOM     12  O   UNL     1      47.680   1.817   6.310  0.00  0.00    +0.000 OA
ATOM     13  H   UNL     1      47.400  -0.532   6.954  0.00  0.00    +0.000 HD
ATOM     14  H   UNL     1      46.149  -0.268   8.121  0.00  0.00    +0.000 HD
ENDBRANCH   4  11
ENDBRANCH   2   7
ENDBRANCH   1   2
BRANCH   1  15
ATOM     15  C   UNL     1      45.021   4.988  12.194  0.00  0.00    +0.000 C 
BRANCH  15  16
ATOM     16  C   UNL     1      46.273   5.781  12.482  0.00  0.00    +0.000 A 
ATOM     17  C   UNL     1      46.795   6.653  11.521  0.00  0.00    +0.000 A 
ATOM     18  C   UNL     1      47.964   7.371  11.780  0.00  0.00    +0.000 A 
ATOM     19  C   UNL     1      48.635   7.209  12.994  0.00  0.00    +0.000 A 
ATOM     20  C   UNL     1      48.136   6.339  13.965  0.00  0.00    +0.000 A 
ATOM     21  C   UNL     1      46.952   5.637  13.703  0.00  0.00    +0.000 A 
BRANCH  20  22
ATOM     22  N   UNL     1      48.769   6.143  15.215  0.00  0.00    +0.000 N 
ATOM     23  H   UNL     1      48.464   5.248  15.598  0.00  0.00    +0.000 HD
BRANCH  22  24
ATOM     24  C   UNL     1      48.930   7.142  16.233  0.00  0.00    +0.000 C 
ATOM     25  C   UNL     1      50.390   7.254  16.721  0.00  0.00    +0.000 C 
ATOM     26  C   UNL     1      49.888   7.122  18.167  0.00  0.00    +0.000 C 
ATOM     27  C   UNL     1      48.556   6.583  17.624  0.00  0.00    +0.000 C 
ENDBRANCH  22  24
ENDBRANCH  20  22
ENDBRANCH  15  16
ENDBRANCH   1  15
TORSDOF 7
ENDMDL
MODEL 9
REMARK VINA RESULT:    -6.171      3.083      5.485
REMARK INTER + INTRA:          -9.582
REMARK INTER:                  -8.679
REMARK INTRA:                  -0.903
REMARK UNBOUND:                -0.885
REMARK  Name = 
REMARK  7 active torsions:
REMARK  status: ('A' for Active; 'I' for Inactive)
REMARK    1  A    between atoms: C_2  and  C_4
REMARK    2  A    between atoms: C_7  and  N_8
REMARK    3  A    between atoms: N_8  and  C_9
REMARK    4  A    between atoms: C_9  and  C_10
REMARK    5  A    between atoms: C_10  and  C_11
REMARK    6  A    between atoms: C_15  and  N_16
REMARK    7  A    between atoms: N_16  and  C_17
REMARK                            x       y       z     vdW  Elec       q    Type
REMARK                         _______ _______ _______ _____ _____    ______ ____
ROOT
ATOM      1  C   UNL     1      48.649   6.690  14.473  0.00  0.00    +0.000 C 
ENDROOT
BRANCH   1   2
ATOM      2  N   UNL     1      47.320   7.015  13.951  0.00  0.00    +0.000 N 
ATOM      3  H   UNL     1      46.754   7.606  14.557  0.00  0.00    +0.000 HD
BRANCH   2   7
ATOM      4  C   UNL     1      45.103   4.152  11.775  0.00  0.00    +0.000 A 
ATOM      5  C   UNL     1      45.942   3.732  12.811  0.00  0.00    +0.000 A 
ATOM      6  C   UNL     1      46.668   4.672  13.550  0.00  0.00    +0.000 A 
ATOM      7  C   UNL     1      46.559   6.044  13.298  0.00  0.00    +0.000 A 
ATOM      8  C   UNL     1      45.730   6.445  12.237  0.00  0.00    +0.000 A 
ATOM      9  C   UNL     1      45.009   5.512  11.480  0.00  0.00    +0.000 A 
BRANCH   4  11
ATOM     10  N   UNL     1      45.051   2.393  10.089  0.00  0.00    +0.000 N 
ATOM     11  C   UNL     1      44.338   3.179  10.951  0.00  0.00    +0.000 C 
ATOM     12  O   UNL     1      43.128   3.058  11.064  0.00  0.00    +0.000 OA
ATOM     13  H   UNL     1      44.530   1.671   9.608  0.00  0.00    +0.000 HD
ATOM     14  H   UNL     1      46.052   2.285  10.157  0.00  0.00    +0.000 HD
ENDBRANCH   4  11
ENDBRANCH   2   7
ENDBRANCH   1   2
BRANCH   1  15
ATOM     15  C   UNL     1      48.678   6.832  15.999  0.00  0.00    +0.000 C 
BRANCH  15  16
ATOM     16  C   UNL     1      48.681   5.493  16.698  0.00  0.00    +0.000 A 
ATOM     17  C   UNL     1      47.488   4.781  16.867  0.00  0.00    +0.000 A 
ATOM     18  C   UNL     1      47.489   3.553  17.530  0.00  0.00    +0.000 A 
ATOM     19  C   UNL     1      48.676   3.033  18.050  0.00  0.00    +0.000 A 
ATOM     20  C   UNL     1      49.876   3.730  17.899  0.00  0.00    +0.000 A 
ATOM     21  C   UNL     1      49.869   4.953  17.215  0.00  0.00    +0.000 A 
BRANCH  20  22
ATOM     22  N   UNL     1      51.110   3.247  18.397  0.00  0.00    +0.000 N 
ATOM     23  H   UNL     1      51.497   3.941  19.035  0.00  0.00    +0.000 HD
BRANCH  22  24
ATOM     24  C   UNL     1      52.126   2.599  17.618  0.00  0.00    +0.000 C 
ATOM     25  C   UNL     1      51.837   1.097  17.407  0.00  0.00    +0.000 C 
ATOM     26  C   UNL     1      53.257   0.783  17.903  0.00  0.00    +0.000 C 
ATOM     27  C   UNL     1      53.330   2.197  18.498  0.00  0.00    +0.000 C 
ENDBRANCH  22  24
ENDBRANCH  20  22
ENDBRANCH  15  16
ENDBRANCH   1  15
TORSDOF 7
ENDMDL
