MODEL 1
REMARK VINA RESULT:    -8.651      0.000      0.000
REMARK INTER + INTRA:         -12.593
REMARK INTER:                 -11.686
REMARK INTRA:                  -0.907
REMARK UNBOUND:                -0.907
REMARK  Name = 
REMARK  6 active torsions:
REMARK  status: ('A' for Active; 'I' for Inactive)
REMARK    1  A    between atoms: C_2  and  C_4
REMARK    2  A    between atoms: N_8  and  C_9
REMARK    3  A    between atoms: C_9  and  C_10
REMARK    4  A    between atoms: C_10  and  C_11
REMARK    5  A    between atoms: C_16  and  O_17
REMARK    6  A    between atoms: O_17  and  C_18
REMARK                            x       y       z     vdW  Elec       q    Type
REMARK                         _______ _______ _______ _____ _____    ______ ____
ROOT
ATOM      1  C   UNL     1      43.244   4.306  11.117  0.00  0.00    +0.000 C 
ENDROOT
BRANCH   1   6
ATOM      2  C   UNL     1      46.497   2.474   7.710  0.00  0.00    +0.000 A 
ATOM      3  C   UNL     1      45.668   1.815   8.609  0.00  0.00    +0.000 A 
ATOM      4  C   UNL     1      44.727   2.550   9.323  0.00  0.00    +0.000 A 
ATOM      5  C   UNL     1      44.640   3.930   9.152  0.00  0.00    +0.000 A 
ATOM      6  N   UNL     1      43.662   4.696   9.779  0.00  0.00    +0.000 N 
ATOM      7  N   UNL     1      45.465   4.584   8.310  0.00  0.00    +0.000 NA
ATOM      8  C   UNL     1      46.378   3.851   7.613  0.00  0.00    +0.000 A 
ATOM      9  H   UNL     1      43.893   5.676   9.630  0.00  0.00    +0.000 HD
BRANCH   2  11
ATOM     10  N   UNL     1      48.560   2.468   6.440  0.00  0.00    +0.000 N 
ATOM     11  C   UNL     1      47.480   1.751   6.879  0.00  0.00    +0.000 C 
ATOM     12  O   UNL     1      47.352   0.562   6.622  0.00  0.00    +0.000 OA
ATOM     13  H   UNL     1      49.279   1.954   5.946  0.00  0.00    +0.000 HD
ATOM     14  H   UNL     1      48.821   3.357   6.839  0.00  0.00    +0.000 HD
ENDBRANCH   2  11
ENDBRANCH   1   6
BRANCH   1  15
ATOM     15  C   UNL     1      43.507   5.415  12.141  0.00  0.00    +0.000 C 
BRANCH  15  16
ATOM     16  C   UNL     1      44.989   5.523  12.426  0.00  0.00    +0.000 A 
ATOM     17  C   UNL     1      45.759   6.555  11.873  0.00  0.00    +0.000 A 
ATOM     18  C   UNL     1      47.104   6.667  12.211  0.00  0.00    +0.000 A 
ATOM     19  F   UNL     1      47.837   7.653  11.670  0.00  0.00    +0.000 F 
ATOM     20  C   UNL     1      47.692   5.796  13.120  0.00  0.00    +0.000 A 
ATOM     21  C   UNL     1      46.930   4.786  13.707  0.00  0.00    +0.000 A 
ATOM     22  C   UNL     1      45.591   4.630  13.334  0.00  0.00    +0.000 A 
BRANCH  21  23
ATOM     23  O   UNL     1      47.571   3.998  14.634  0.00  0.00    +0.000 OA
BRANCH  23  24
ATOM     24  C   UNL     1      47.318   4.244  16.041  0.00  0.00    +0.000 C 
ATOM     25  C   UNL     1      48.362   5.096  16.804  0.00  0.00    +0.000 C 
ATOM     26  C   UNL     1      48.350   4.066  17.941  0.00  0.00    +0.000 C 
ATOM     27  C   UNL     1      47.662   3.071  16.995  0.00  0.00    +0.000 C 
ENDBRANCH  23  24
ENDBRANCH  21  23
ENDBRANCH  15  16
ENDBRANCH   1  15
TORSDOF 6
ENDMDL
MODEL 2
REMARK VINA RESULT:    -8.102      2.033      3.299
REMARK INTER + INTRA:         -11.851
REMARK INTER:                 -10.997
REMARK INTRA:                  -0.854
REMARK UNBOUND:                -0.907
REMARK  Name = 
REMARK  6 active torsions:
REMARK  status: ('A' for Active; 'I' for Inactive)
REMARK    1  A    between atoms: C_2  and  C_4
REMARK    2  A    between atoms: N_8  and  C_9
REMARK    3  A    between atoms: C_9  and  C_10
REMARK    4  A    between atoms: C_10  and  C_11
REMARK    5  A    between atoms: C_16  and  O_17
REMARK    6  A    between atoms: O_17  and  C_18
REMARK                            x       y       z     vdW  Elec       q    Type
REMARK                         _______ _______ _______ _____ _____    ______ ____
ROOT
ATOM      1  C   UNL     1      43.345   4.307  10.990  0.00  0.00    +0.000 C 
ENDROOT
BRANCH   1   6
ATOM      2  C   UNL     1      46.580   2.507   7.547  0.00  0.00    +0.000 A 
ATOM      3  C   UNL     1      45.749   1.839   8.439  0.00  0.00    +0.000 A 
ATOM      4  C   UNL     1      44.814   2.569   9.166  0.00  0.00    +0.000 A 
ATOM      5  C   UNL     1      44.734   3.952   9.016  0.00  0.00    +0.000 A 
ATOM      6  N   UNL     1      43.762   4.714   9.656  0.00  0.00    +0.000 N 
ATOM      7  N   UNL     1      45.560   4.613   8.181  0.00  0.00    +0.000 NA
ATOM      8  C   UNL     1      46.468   3.886   7.470  0.00  0.00    +0.000 A 
ATOM      9  H   UNL     1      43.998   5.695   9.521  0.00  0.00    +0.000 HD
BRANCH   2  11
ATOM     10  N   UNL     1      48.690   2.476   6.358  0.00  0.00    +0.000 N 
ATOM     11  C   UNL     1      47.557   1.791   6.703  0.00  0.00    +0.000 C 
ATOM     12  O   UNL     1      47.377   0.633   6.356  0.00  0.00    +0.000 OA
ATOM     13  H   UNL     1      49.401   1.959   5.856  0.00  0.00    +0.000 HD
ATOM     14  H   UNL     1      48.981   3.318   6.831  0.00  0.00    +0.000 HD
ENDBRANCH   2  11
ENDBRANCH   1   6
BRANCH   1  15
ATOM     15  C   UNL     1      43.342   5.485  11.969  0.00  0.00    +0.000 C 
BRANCH  15  16
ATOM     16  C   UNL     1      44.677   5.585  12.674  0.00  0.00    +0.000 A 
ATOM     17  C   UNL     1      45.356   4.436  13.102  0.00  0.00    +0.000 A 
ATOM     18  C   UNL     1      46.614   4.558  13.685  0.00  0.00    +0.000 A 
ATOM     19  F   UNL     1      47.254   3.454  14.100  0.00  0.00    +0.000 F 
ATOM     20  C   UNL     1      47.229   5.797  13.816  0.00  0.00    +0.000 A 
ATOM     21  C   UNL     1      46.581   6.946  13.361  0.00  0.00    +0.000 A 
ATOM     22  C   UNL     1      45.294   6.842  12.824  0.00  0.00    +0.000 A 
BRANCH  21  23
ATOM     23  O   UNL     1      47.277   8.126  13.480  0.00  0.00    +0.000 OA
BRANCH  23  24
ATOM     24  C   UNL     1      47.989   8.627  12.320  0.00  0.00    +0.000 C 
ATOM     25  C   UNL     1      48.825   7.604  11.514  0.00  0.00    +0.000 C 
ATOM     26  C   UNL     1      49.995   8.596  11.497  0.00  0.00    +0.000 C 
ATOM     27  C   UNL     1      49.308   9.382  12.623  0.00  0.00    +0.000 C 
ENDBRANCH  23  24
ENDBRANCH  21  23
ENDBRANCH  15  16
ENDBRANCH   1  15
TORSDOF 6
ENDMDL
MODEL 3
REMARK VINA RESULT:    -7.471      3.496      7.991
REMARK INTER + INTRA:         -10.998
REMARK INTER:                 -10.221
REMARK INTRA:                  -0.777
REMARK UNBOUND:                -0.907
REMARK  Name = 
REMARK  6 active torsions:
REMARK  status: ('A' for Active; 'I' for Inactive)
REMARK    1  A    between atoms: C_2  and  C_4
REMARK    2  A    between atoms: N_8  and  C_9
REMARK    3  A    between atoms: C_9  and  C_10
REMARK    4  A    between atoms: C_10  and  C_11
REMARK    5  A    between atoms: C_16  and  O_17
REMARK    6  A    between atoms: O_17  and  C_18
REMARK                            x       y       z     vdW  Elec       q    Type
REMARK                         _______ _______ _______ _____ _____    ______ ____
ROOT
ATOM      1  C   UNL     1      45.906   6.375  12.859  0.00  0.00    +0.000 C 
ENDROOT
BRANCH   1   6
ATOM      2  C   UNL     1      48.347   4.198  16.713  0.00  0.00    +0.000 A 
ATOM      3  C   UNL     1      47.370   3.692  15.865  0.00  0.00    +0.000 A 
ATOM      4  C   UNL     1      46.982   4.443  14.759  0.00  0.00    +0.000 A 
ATOM      5  C   UNL     1      47.552   5.693  14.525  0.00  0.00    +0.000 A 
ATOM      6  N   UNL     1      47.260   6.442  13.391  0.00  0.00    +0.000 N 
ATOM      7  N   UNL     1      48.473   6.208  15.363  0.00  0.00    +0.000 NA
ATOM      8  C   UNL     1      48.848   5.461  16.440  0.00  0.00    +0.000 A 
ATOM      9  H   UNL     1      47.665   7.367  13.517  0.00  0.00    +0.000 HD
BRANCH   2  11
ATOM     10  N   UNL     1      48.035   3.389  18.975  0.00  0.00    +0.000 N 
ATOM     11  C   UNL     1      48.846   3.434  17.873  0.00  0.00    +0.000 C 
ATOM     12  O   UNL     1      49.917   2.845  17.840  0.00  0.00    +0.000 OA
ATOM     13  H   UNL     1      48.335   2.793  19.737  0.00  0.00    +0.000 HD
ATOM     14  H   UNL     1      47.059   3.639  18.941  0.00  0.00    +0.000 HD
ENDBRANCH   2  11
ENDBRANCH   1   6
BRANCH   1  15
ATOM     15  C   UNL     1      45.886   6.542  11.336  0.00  0.00    +0.000 C 
BRANCH  15  16
ATOM     16  C   UNL     1      45.398   5.270  10.676  0.00  0.00    +0.000 A 
ATOM     17  C   UNL     1      44.552   4.382  11.355  0.00  0.00    +0.000 A 
ATOM     18  C   UNL     1      44.065   3.257  10.695  0.00  0.00    +0.000 A 
ATOM     19  F   UNL     1      43.262   2.407  11.355  0.00  0.00    +0.000 F 
ATOM     20  C   UNL     1      44.370   3.016   9.362  0.00  0.00    +0.000 A 
ATOM     21  C   UNL     1      45.182   3.910   8.663  0.00  0.00    +0.000 A 
ATOM     22  C   UNL     1      45.722   5.015   9.330  0.00  0.00    +0.000 A 
BRANCH  21  23
ATOM     23  O   UNL     1      45.396   3.629   7.334  0.00  0.00    +0.000 OA
BRANCH  23  24
ATOM     24  C   UNL     1      46.730   3.243   6.916  0.00  0.00    +0.000 C 
ATOM     25  C   UNL     1      46.913   2.839   5.433  0.00  0.00    +0.000 C 
ATOM     26  C   UNL     1      47.709   1.607   5.882  0.00  0.00    +0.000 C 
ATOM     27  C   UNL     1      47.160   1.805   7.302  0.00  0.00    +0.000 C 
ENDBRANCH  23  24
ENDBRANCH  21  23
ENDBRANCH  15  16
ENDBRANCH   1  15
TORSDOF 6
ENDMDL
MODEL 4
REMARK VINA RESULT:    -7.020      4.058      8.553
REMARK INTER + INTRA:         -10.389
REMARK INTER:                  -9.796
REMARK INTRA:                  -0.593
REMARK UNBOUND:                -0.907
REMARK  Name = 
REMARK  6 active torsions:
REMARK  status: ('A' for Active; 'I' for Inactive)
REMARK    1  A    between atoms: C_2  and  C_4
REMARK    2  A    between atoms: N_8  and  C_9
REMARK    3  A    between atoms: C_9  and  C_10
REMARK    4  A    between atoms: C_10  and  C_11
REMARK    5  A    between atoms: C_16  and  O_17
REMARK    6  A    between atoms: O_17  and  C_18
REMARK                            x       y       z     vdW  Elec       q    Type
REMARK                         _______ _______ _______ _____ _____    ______ ____
ROOT
ATOM      1  C   UNL     1      47.266   4.602  13.969  0.00  0.00    +0.000 C 
ENDROOT
BRANCH   1   6
ATOM      2  C   UNL     1      48.593   4.289  18.837  0.00  0.00    +0.000 A 
ATOM      3  C   UNL     1      48.667   5.356  17.950  0.00  0.00    +0.000 A 
ATOM      4  C   UNL     1      48.066   5.238  16.700  0.00  0.00    +0.000 A 
ATOM      5  C   UNL     1      47.423   4.055  16.341  0.00  0.00    +0.000 A 
ATOM      6  N   UNL     1      46.737   3.917  15.139  0.00  0.00    +0.000 N 
ATOM      7  N   UNL     1      47.379   3.001  17.180  0.00  0.00    +0.000 NA
ATOM      8  C   UNL     1      47.966   3.132  18.403  0.00  0.00    +0.000 A 
ATOM      9  H   UNL     1      46.491   2.935  15.033  0.00  0.00    +0.000 HD
BRANCH   2  11
ATOM     10  N   UNL     1      50.503   4.604  20.293  0.00  0.00    +0.000 N 
ATOM     11  C   UNL     1      49.159   4.364  20.198  0.00  0.00    +0.000 C 
ATOM     12  O   UNL     1      48.456   4.250  21.192  0.00  0.00    +0.000 OA
ATOM     13  H   UNL     1      50.877   4.744  21.224  0.00  0.00    +0.000 HD
ATOM     14  H   UNL     1      51.049   4.952  19.520  0.00  0.00    +0.000 HD
ENDBRANCH   2  11
ENDBRANCH   1   6
BRANCH   1  15
ATOM     15  C   UNL     1      46.326   5.711  13.485  0.00  0.00    +0.000 C 
BRANCH  15  16
ATOM     16  C   UNL     1      45.195   5.120  12.671  0.00  0.00    +0.000 A 
ATOM     17  C   UNL     1      43.927   5.716  12.656  0.00  0.00    +0.000 A 
ATOM     18  C   UNL     1      42.929   5.188  11.841  0.00  0.00    +0.000 A 
ATOM     19  F   UNL     1      41.714   5.759  11.839  0.00  0.00    +0.000 F 
ATOM     20  C   UNL     1      43.177   4.102  11.012  0.00  0.00    +0.000 A 
ATOM     21  C   UNL     1      44.445   3.521  10.989  0.00  0.00    +0.000 A 
ATOM     22  C   UNL     1      45.440   4.008  11.843  0.00  0.00    +0.000 A 
BRANCH  21  23
ATOM     23  O   UNL     1      44.625   2.483  10.104  0.00  0.00    +0.000 OA
BRANCH  23  24
ATOM     24  C   UNL     1      44.817   2.799   8.701  0.00  0.00    +0.000 C 
ATOM     25  C   UNL     1      46.054   2.180   8.005  0.00  0.00    +0.000 C 
ATOM     26  C   UNL     1      46.377   3.550   7.395  0.00  0.00    +0.000 C 
ATOM     27  C   UNL     1      45.420   4.195   8.409  0.00  0.00    +0.000 C 
ENDBRANCH  23  24
ENDBRANCH  21  23
ENDBRANCH  15  16
ENDBRANCH   1  15
TORSDOF 6
ENDMDL
MODEL 5
REMARK VINA RESULT:    -6.631      3.836      8.014
REMARK INTER + INTRA:          -9.864
REMARK INTER:                  -9.214
REMARK INTRA:                  -0.650
REMARK UNBOUND:                -0.907
REMARK  Name = 
REMARK  6 active torsions:
REMARK  status: ('A' for Active; 'I' for Inactive)
REMARK    1  A    between atoms: C_2  and  C_4
REMARK    2  A    between atoms: N_8  and  C_9
REMARK    3  A    between atoms: C_9  and  C_10
REMARK    4  A    between atoms: C_10  and  C_11
REMARK    5  A    between atoms: C_16  and  O_17
REMARK    6  A    between atoms: O_17  and  C_18
REMARK                            x       y       z     vdW  Elec       q    Type
REMARK                         _______ _______ _______ _____ _____    ______ ____
ROOT
ATOM      1  C   UNL     1      45.261   6.632  12.752  0.00  0.00    +0.000 C 
ENDROOT
BRANCH   1   6
ATOM      2  C   UNL     1      49.628   8.782  14.117  0.00  0.00    +0.000 A 
ATOM      3  C   UNL     1      48.355   9.325  13.998  0.00  0.00    +0.000 A 
ATOM      4  C   UNL     1      47.276   8.475  13.775  0.00  0.00    +0.000 A 
ATOM      5  C   UNL     1      47.481   7.102  13.649  0.00  0.00    +0.000 A 
ATOM      6  N   UNL     1      46.428   6.204  13.510  0.00  0.00    +0.000 N 
ATOM      7  N   UNL     1      48.716   6.570  13.725  0.00  0.00    +0.000 NA
ATOM      8  C   UNL     1      49.763   7.413  13.949  0.00  0.00    +0.000 A 
ATOM      9  H   UNL     1      46.824   5.295  13.282  0.00  0.00    +0.000 HD
BRANCH   2  11
ATOM     10  N   UNL     1      51.147  10.554  13.469  0.00  0.00    +0.000 N 
ATOM     11  C   UNL     1      50.810   9.617  14.407  0.00  0.00    +0.000 C 
ATOM     12  O   UNL     1      51.438   9.498  15.450  0.00  0.00    +0.000 OA
ATOM     13  H   UNL     1      51.902  11.186  13.706  0.00  0.00    +0.000 HD
ATOM     14  H   UNL     1      50.514  10.845  12.740  0.00  0.00    +0.000 HD
ENDBRANCH   2  11
ENDBRANCH   1   6
BRANCH   1  15
ATOM     15  C   UNL     1      45.524   6.608  11.243  0.00  0.00    +0.000 C 
BRANCH  15  16
ATOM     16  C   UNL     1      45.159   5.257  10.669  0.00  0.00    +0.000 A 
ATOM     17  C   UNL     1      44.386   4.345  11.400  0.00  0.00    +0.000 A 
ATOM     18  C   UNL     1      44.009   3.139  10.816  0.00  0.00    +0.000 A 
ATOM     19  F   UNL     1      43.276   2.267  11.527  0.00  0.00    +0.000 F 
ATOM     20  C   UNL     1      44.350   2.837   9.504  0.00  0.00    +0.000 A 
ATOM     21  C   UNL     1      45.089   3.751   8.751  0.00  0.00    +0.000 A 
ATOM     22  C   UNL     1      45.520   4.941   9.345  0.00  0.00    +0.000 A 
BRANCH  21  23
ATOM     23  O   UNL     1      45.343   3.401   7.446  0.00  0.00    +0.000 OA
BRANCH  23  24
ATOM     24  C   UNL     1      46.686   2.982   7.093  0.00  0.00    +0.000 C 
ATOM     25  C   UNL     1      46.981   2.760   5.589  0.00  0.00    +0.000 C 
ATOM     26  C   UNL     1      47.660   1.428   5.933  0.00  0.00    +0.000 C 
ATOM     27  C   UNL     1      46.996   1.480   7.317  0.00  0.00    +0.000 C 
ENDBRANCH  23  24
ENDBRANCH  21  23
ENDBRANCH  15  16
ENDBRANCH   1  15
TORSDOF 6
ENDMDL
MODEL 6
REMARK VINA RESULT:    -6.431      4.047      7.484
REMARK INTER + INTRA:          -9.593
REMARK INTER:                  -8.904
REMARK INTRA:                  -0.689
REMARK UNBOUND:                -0.907
REMARK  Name = 
REMARK  6 active torsions:
REMARK  status: ('A' for Active; 'I' for Inactive)
REMARK    1  A    between atoms: C_2  and  C_4
REMARK    2  A    between atoms: N_8  and  C_9
REMARK    3  A    between atoms: C_9  and  C_10
REMARK    4  A    between atoms: C_10  and  C_11
REMARK    5  A    between atoms: C_16  and  O_17
REMARK    6  A    between atoms: O_17  and  C_18
REMARK                            x       y       z     vdW  Elec       q    Type
REMARK                         _______ _______ _______ _____ _____    ______ ____
ROOT
ATOM      1  C   UNL     1      47.363   6.033  12.957  0.00  0.00    +0.000 C 
ENDROOT
BRANCH   1   6
ATOM      2  C   UNL     1      45.749  10.675  11.773  0.00  0.00    +0.000 A 
ATOM      3  C   UNL     1      45.068   9.464  11.799  0.00  0.00    +0.000 A 
ATOM      4  C   UNL     1      45.700   8.346  12.337  0.00  0.00    +0.000 A 
ATOM      5  C   UNL     1      47.004   8.442  12.817  0.00  0.00    +0.000 A 
ATOM      6  N   UNL     1      47.647   7.377  13.439  0.00  0.00    +0.000 N 
ATOM      7  N   UNL     1      47.686   9.604  12.762  0.00  0.00    +0.000 NA
ATOM      8  C   UNL     1      47.054  10.692  12.238  0.00  0.00    +0.000 A 
ATOM      9  H   UNL     1      48.625   7.632  13.559  0.00  0.00    +0.000 HD
BRANCH   2  11
ATOM     10  N   UNL     1      45.690  12.481  10.159  0.00  0.00    +0.000 N 
ATOM     11  C   UNL     1      45.123  11.912  11.268  0.00  0.00    +0.000 C 
ATOM     12  O   UNL     1      44.127  12.388  11.795  0.00  0.00    +0.000 OA
ATOM     13  H   UNL     1      45.209  13.278   9.760  0.00  0.00    +0.000 HD
ATOM     14  H   UNL     1      46.334  11.984   9.564  0.00  0.00    +0.000 HD
ENDBRANCH   2  11
ENDBRANCH   1   6
BRANCH   1  15
ATOM     15  C   UNL     1      46.263   5.355  13.780  0.00  0.00    +0.000 C 
BRANCH  15  16
ATOM     16  C   UNL     1      45.173   4.834  12.868  0.00  0.00    +0.000 A 
ATOM     17  C   UNL     1      43.912   5.443  12.826  0.00  0.00    +0.000 A 
ATOM     18  C   UNL     1      42.955   4.982  11.926  0.00  0.00    +0.000 A 
ATOM     19  F   UNL     1      41.747   5.566  11.899  0.00  0.00    +0.000 F 
ATOM     20  C   UNL     1      43.239   3.953  11.038  0.00  0.00    +0.000 A 
ATOM     21  C   UNL     1      44.503   3.360  11.043  0.00  0.00    +0.000 A 
ATOM     22  C   UNL     1      45.454   3.777  11.980  0.00  0.00    +0.000 A 
BRANCH  21  23
ATOM     23  O   UNL     1      44.721   2.384  10.100  0.00  0.00    +0.000 OA
BRANCH  23  24
ATOM     24  C   UNL     1      44.873   2.784   8.714  0.00  0.00    +0.000 C 
ATOM     25  C   UNL     1      46.076   2.193   7.939  0.00  0.00    +0.000 C 
ATOM     26  C   UNL     1      46.402   3.594   7.406  0.00  0.00    +0.000 C 
ATOM     27  C   UNL     1      45.490   4.188   8.490  0.00  0.00    +0.000 C 
ENDBRANCH  23  24
ENDBRANCH  21  23
ENDBRANCH  15  16
ENDBRANCH   1  15
TORSDOF 6
ENDMDL
MODEL 7
REMARK VINA RESULT:    -6.269      3.517      5.611
REMARK INTER + INTRA:          -9.374
REMARK INTER:                  -8.504
REMARK INTRA:                  -0.870
REMARK UNBOUND:                -0.907
REMARK  Name = 
REMARK  6 active torsions:
REMARK  status: ('A' for Active; 'I' for Inactive)
REMARK    1  A    between atoms: C_2  and  C_4
REMARK    2  A    between atoms: N_8  and  C_9
REMARK    3  A    between atoms: C_9  and  C_10
REMARK    4  A    between atoms: C_10  and  C_11
REMARK    5  A    between atoms: C_16  and  O_17
REMARK    6  A    between atoms: O_17  and  C_18
REMARK                            x       y       z     vdW  Elec       q    Type
REMARK                         _______ _______ _______ _____ _____    ______ ____
ROOT
ATOM      1  C   UNL     1      48.442   6.452  14.340  0.00  0.00    +0.000 C 
ENDROOT
BRANCH   1   6
ATOM      2  C   UNL     1      44.873   4.105  11.636  0.00  0.00    +0.000 A 
ATOM      3  C   UNL     1      45.662   3.641  12.681  0.00  0.00    +0.000 A 
ATOM      4  C   UNL     1      46.453   4.546  13.383  0.00  0.00    +0.000 A 
ATOM      5  C   UNL     1      46.467   5.892  13.021  0.00  0.00    +0.000 A 
ATOM      6  N   UNL     1      47.174   6.848  13.743  0.00  0.00    +0.000 N 
ATOM      7  N   UNL     1      45.733   6.345  11.985  0.00  0.00    +0.000 NA
ATOM      8  C   UNL     1      44.959   5.450  11.310  0.00  0.00    +0.000 A 
ATOM      9  H   UNL     1      47.162   7.713  13.207  0.00  0.00    +0.000 HD
BRANCH   2  11
ATOM     10  N   UNL     1      44.171   3.130   9.533  0.00  0.00    +0.000 N 
ATOM     11  C   UNL     1      43.969   3.213  10.884  0.00  0.00    +0.000 C 
ATOM     12  O   UNL     1      43.103   2.557  11.445  0.00  0.00    +0.000 OA
ATOM     13  H   UNL     1      43.611   2.452   9.029  0.00  0.00    +0.000 HD
ATOM     14  H   UNL     1      45.019   3.448   9.090  0.00  0.00    +0.000 HD
ENDBRANCH   2  11
ENDBRANCH   1   6
BRANCH   1  15
ATOM     15  C   UNL     1      48.495   6.787  15.834  0.00  0.00    +0.000 C 
BRANCH  15  16
ATOM     16  C   UNL     1      48.608   5.519  16.652  0.00  0.00    +0.000 A 
ATOM     17  C   UNL     1      47.523   4.642  16.781  0.00  0.00    +0.000 A 
ATOM     18  C   UNL     1      47.682   3.450  17.481  0.00  0.00    +0.000 A 
ATOM     19  F   UNL     1      46.635   2.619  17.608  0.00  0.00    +0.000 F 
ATOM     20  C   UNL     1      48.909   3.093  18.024  0.00  0.00    +0.000 A 
ATOM     21  C   UNL     1      50.009   3.939  17.873  0.00  0.00    +0.000 A 
ATOM     22  C   UNL     1      49.848   5.164  17.219  0.00  0.00    +0.000 A 
BRANCH  21  23
ATOM     23  O   UNL     1      51.200   3.490  18.395  0.00  0.00    +0.000 OA
BRANCH  23  24
ATOM     24  C   UNL     1      52.116   2.788  17.517  0.00  0.00    +0.000 C 
ATOM     25  C   UNL     1      52.227   1.254  17.699  0.00  0.00    +0.000 C 
ATOM     26  C   UNL     1      53.756   1.375  17.662  0.00  0.00    +0.000 C 
ATOM     27  C   UNL     1      53.614   2.885  17.902  0.00  0.00    +0.000 C 
ENDBRANCH  23  24
ENDBRANCH  21  23
ENDBRANCH  15  16
ENDBRANCH   1  15
TORSDOF 6
ENDMDL
MODEL 8
REMARK VINA RESULT:    -6.209      3.422      4.932
REMARK INTER + INTRA:          -9.294
REMARK INTER:                  -8.054
REMARK INTRA:                  -1.240
REMARK UNBOUND:                -0.907
REMARK  Name = 
REMARK  6 active torsions:
REMARK  status: ('A' for Active; 'I' for Inactive)
REMARK    1  A    between atoms: C_2  and  C_4
REMARK    2  A    between atoms: N_8  and  C_9
REMARK    3  A    between atoms: C_9  and  C_10
REMARK    4  A    between atoms: C_10  and  C_11
REMARK    5  A    between atoms: C_16  and  O_17
REMARK    6  A    between atoms: O_17  and  C_18
REMARK                            x       y       z     vdW  Elec       q    Type
REMARK                         _______ _______ _______ _____ _____    ______ ____
ROOT
ATOM      1  C   UNL     1      48.729   7.716  12.291  0.00  0.00    +0.000 C 
ENDROOT
BRANCH   1   6
ATOM      2  C   UNL     1      45.050   4.265  11.962  0.00  0.00    +0.000 A 
ATOM      3  C   UNL     1      45.999   4.478  12.954  0.00  0.00    +0.000 A 
ATOM      4  C   UNL     1      46.796   5.617  12.892  0.00  0.00    +0.000 A 
ATOM      5  C   UNL     1      46.655   6.514  11.834  0.00  0.00    +0.000 A 
ATOM      6  N   UNL     1      47.368   7.706  11.772  0.00  0.00    +0.000 N 
ATOM      7  N   UNL     1      45.763   6.296  10.848  0.00  0.00    +0.000 NA
ATOM      8  C   UNL     1      44.985   5.180  10.923  0.00  0.00    +0.000 A 
ATOM      9  H   UNL     1      47.219   8.109  10.849  0.00  0.00    +0.000 HD
BRANCH   2  11
ATOM     10  N   UNL     1      44.009   2.391  10.834  0.00  0.00    +0.000 N 
ATOM     11  C   UNL     1      44.133   3.108  11.993  0.00  0.00    +0.000 C 
ATOM     12  O   UNL     1      43.539   2.788  13.013  0.00  0.00    +0.000 OA
ATOM     13  H   UNL     1      43.452   1.546  10.878  0.00  0.00    +0.000 HD
ATOM     14  H   UNL     1      44.666   2.471  10.073  0.00  0.00    +0.000 HD
ENDBRANCH   2  11
ENDBRANCH   1   6
BRANCH   1  15
ATOM     15  C   UNL     1      48.971   8.905  13.227  0.00  0.00    +0.000 C 
BRANCH  15  16
ATOM     16  C   UNL     1      48.943   8.449  14.670  0.00  0.00    +0.000 A 
ATOM     17  C   UNL     1      48.472   9.291  15.686  0.00  0.00    +0.000 A 
ATOM     18  C   UNL     1      48.394   8.816  16.992  0.00  0.00    +0.000 A 
ATOM     19  F   UNL     1      47.949   9.633  17.961  0.00  0.00    +0.000 F 
ATOM     20  C   UNL     1      48.739   7.508  17.303  0.00  0.00    +0.000 A 
ATOM     21  C   UNL     1      49.176   6.646  16.296  0.00  0.00    +0.000 A 
ATOM     22  C   UNL     1      49.310   7.127  14.990  0.00  0.00    +0.000 A 
BRANCH  21  23
ATOM     23  O   UNL     1      49.450   5.353  16.677  0.00  0.00    +0.000 OA
BRANCH  23  24
ATOM     24  C   UNL     1      48.493   4.666  17.523  0.00  0.00    +0.000 C 
ATOM     25  C   UNL     1      48.806   3.193  17.885  0.00  0.00    +0.000 C 
ATOM     26  C   UNL     1      47.360   2.816  17.538  0.00  0.00    +0.000 C 
ATOM     27  C   UNL     1      47.215   4.159  16.808  0.00  0.00    +0.000 C 
ENDBRANCH  23  24
ENDBRANCH  21  23
ENDBRANCH  15  16
ENDBRANCH   1  15
TORSDOF 6
ENDMDL
MODEL 9
REMARK VINA RESULT:    -6.167      3.994      6.764
REMARK INTER + INTRA:          -9.237
REMARK INTER:                  -8.488
REMARK INTRA:                  -0.750
REMARK UNBOUND:                -0.907
REMARK  Name = 
REMARK  6 active torsions:
REMARK  status: ('A' for Active; 'I' for Inactive)
REMARK    1  A    between atoms: C_2  and  C_4
REMARK    2  A    between atoms: N_8  and  C_9
REMARK    3  A    between atoms: C_9  and  C_10
REMARK    4  A    between atoms: C_10  and  C_11
REMARK    5  A    between atoms: C_16  and  O_17
REMARK    6  A    between atoms: O_17  and  C_18
REMARK                            x       y       z     vdW  Elec       q    Type
REMARK                         _______ _______ _______ _____ _____    ______ ____
ROOT
ATOM      1  C   UNL     1      46.155   8.402  12.929  0.00  0.00    +0.000 C 
ENDROOT
BRANCH   1   6
ATOM      2  C   UNL     1      50.939   8.447  11.296  0.00  0.00    +0.000 A 
ATOM      3  C   UNL     1      50.045   7.392  11.438  0.00  0.00    +0.000 A 
ATOM      4  C   UNL     1      48.716   7.671  11.742  0.00  0.00    +0.000 A 
ATOM      5  C   UNL     1      48.300   8.988  11.925  0.00  0.00    +0.000 A 
ATOM      6  N   UNL     1      46.969   9.322  12.147  0.00  0.00    +0.000 N 
ATOM      7  N   UNL     1      49.168  10.015  11.826  0.00  0.00    +0.000 NA
ATOM      8  C   UNL     1      50.465   9.729  11.522  0.00  0.00    +0.000 A 
ATOM      9  H   UNL     1      46.935  10.307  12.403  0.00  0.00    +0.000 HD
BRANCH   2  11
ATOM     10  N   UNL     1      52.708   6.953  10.583  0.00  0.00    +0.000 N 
ATOM     11  C   UNL     1      52.350   8.230  10.921  0.00  0.00    +0.000 C 
ATOM     12  O   UNL     1      53.152   9.152  10.882  0.00  0.00    +0.000 OA
ATOM     13  H   UNL     1      53.651   6.819  10.240  0.00  0.00    +0.000 HD
ATOM     14  H   UNL     1      52.030   6.241  10.358  0.00  0.00    +0.000 HD
ENDBRANCH   2  11
ENDBRANCH   1   6
BRANCH   1  15
ATOM     15  C   UNL     1      45.080   7.727  12.072  0.00  0.00    +0.000 C 
BRANCH  15  16
ATOM     16  C   UNL     1      45.258   6.224  12.096  0.00  0.00    +0.000 A 
ATOM     17  C   UNL     1      46.046   5.605  13.075  0.00  0.00    +0.000 A 
ATOM     18  C   UNL     1      46.133   4.216  13.111  0.00  0.00    +0.000 A 
ATOM     19  F   UNL     1      46.897   3.631  14.048  0.00  0.00    +0.000 F 
ATOM     20  C   UNL     1      45.422   3.428  12.217  0.00  0.00    +0.000 A 
ATOM     21  C   UNL     1      44.604   4.029  11.258  0.00  0.00    +0.000 A 
ATOM     22  C   UNL     1      44.552   5.424  11.178  0.00  0.00    +0.000 A 
BRANCH  21  23
ATOM     23  O   UNL     1      43.894   3.179  10.443  0.00  0.00    +0.000 OA
BRANCH  23  24
ATOM     24  C   UNL     1      44.351   2.988   9.080  0.00  0.00    +0.000 C 
ATOM     25  C   UNL     1      45.475   1.946   8.856  0.00  0.00    +0.000 C 
ATOM     26  C   UNL     1      46.216   2.958   7.973  0.00  0.00    +0.000 C 
ATOM     27  C   UNL     1      45.324   4.069   8.546  0.00  0.00    +0.000 C 
ENDBRANCH  23  24
ENDBRANCH  21  23
ENDBRANCH  15  16
ENDBRANCH   1  15
TORSDOF 6
ENDMDL
