MODEL 1
REMARK VINA RESULT:    -8.459      0.000      0.000
REMARK INTER + INTRA:         -13.196
REMARK INTER:                 -12.169
REMARK INTRA:                  -1.027
REMARK UNBOUND:                -1.027
REMARK  Name = 
REMARK  10 active torsions:
REMARK  status: ('A' for Active; 'I' for Inactive)
REMARK    1  A    between atoms: C_1  and  C_2
REMARK    2  A    between atoms: C_6  and  C_7
REMARK    3  A    between atoms: C_7  and  O_8
REMARK    4  A    between atoms: O_8  and  C_9
REMARK    5  A    between atoms: C_9  and  C_10
REMARK    6  A    between atoms: C_13  and  C_14
REMARK    7  A    between atoms: C_14  and  N_15
REMARK    8  A    between atoms: C_16  and  C_18
REMARK    9  A    between atoms: C_19  and  C_20
REMARK   10  A    between atoms: C_26  and  O_27
REMARK                            x       y       z     vdW  Elec       q    Type
REMARK                         _______ _______ _______ _____ _____    ______ ____
ROOT
ATOM      1  C   UNL     1      47.968   6.141  14.067  0.00  0.00    +0.000 C 
ENDROOT
BRANCH   1   5
ATOM      2  C   UNL     1      44.264   5.482  11.943  0.00  0.00    +0.000 A 
ATOM      3  C   UNL     1      45.089   6.563  11.604  0.00  0.00    +0.000 A 
ATOM      4  C   UNL     1      46.288   6.779  12.288  0.00  0.00    +0.000 A 
ATOM      5  C   UNL     1      46.684   5.914  13.315  0.00  0.00    +0.000 A 
ATOM      6  C   UNL     1      45.847   4.846  13.665  0.00  0.00    +0.000 A 
ATOM      7  C   UNL     1      44.649   4.628  12.983  0.00  0.00    +0.000 A 
BRANCH   2   8
ATOM      8  C   UNL     1      43.010   5.204  11.150  0.00  0.00    +0.000 C 
BRANCH   8   9
ATOM      9  O   UNL     1      43.298   4.535   9.921  0.00  0.00    +0.000 OA
BRANCH   9  10
ATOM     10  C   UNL     1      44.001   3.306  10.115  0.00  0.00    +0.000 C 
BRANCH  10  16
ATOM     11  C   UNL     1      46.980   0.264   7.456  0.00  0.00    +0.000 C 
ATOM     12  C   UNL     1      46.512   1.653   7.772  0.00  0.00    +0.000 A 
ATOM     13  C   UNL     1      47.044   2.764   7.111  0.00  0.00    +0.000 A 
ATOM     14  C   UNL     1      46.596   4.050   7.418  0.00  0.00    +0.000 A 
ATOM     15  C   UNL     1      45.614   4.236   8.389  0.00  0.00    +0.000 A 
ATOM     16  C   UNL     1      45.078   3.140   9.075  0.00  0.00    +0.000 A 
ATOM     17  C   UNL     1      45.526   1.849   8.747  0.00  0.00    +0.000 A 
ENDBRANCH  10  16
ENDBRANCH   9  10
ENDBRANCH   8   9
ENDBRANCH   2   8
ENDBRANCH   1   5
BRANCH   1  18
ATOM     18  N   UNL     1      47.829   5.765  15.449  0.00  0.00    +0.000 N 
ATOM     19  C   UNL     1      48.896   5.804  16.304  0.00  0.00    +0.000 C 
ATOM     20  O   UNL     1      50.010   6.174  15.940  0.00  0.00    +0.000 OA
ATOM     21  H   UNL     1      46.986   5.277  15.729  0.00  0.00    +0.000 HD
BRANCH  19  22
ATOM     22  C   UNL     1      48.608   5.419  17.689  0.00  0.00    +0.000 A 
ATOM     23  C   UNL     1      48.763   4.127  18.202  0.00  0.00    +0.000 A 
ATOM     24  C   UNL     1      49.240   2.861  17.578  0.00  0.00    +0.000 C 
ATOM     25  N   UNL     1      48.409   4.150  19.529  0.00  0.00    +0.000 N 
ATOM     26  C   UNL     1      48.036   5.412  19.891  0.00  0.00    +0.000 A 
ATOM     27  N   UNL     1      47.640   5.767  21.125  0.00  0.00    +0.000 NA
ATOM     28  C   UNL     1      47.330   7.074  21.188  0.00  0.00    +0.000 A 
ATOM     29  N   UNL     1      47.379   7.990  20.201  0.00  0.00    +0.000 NA
ATOM     30  C   UNL     1      47.786   7.555  19.004  0.00  0.00    +0.000 A 
ATOM     31  C   UNL     1      48.143   6.230  18.780  0.00  0.00    +0.000 A 
ATOM     32  H   UNL     1      48.426   3.369  20.167  0.00  0.00    +0.000 HD
BRANCH  30  33
ATOM     33  O   UNL     1      47.841   8.521  18.042  0.00  0.00    +0.000 OA
ATOM     34  H   UNL     1      48.700   8.930  18.254  0.00  0.00    +0.000 HD
ENDBRANCH  30  33
ENDBRANCH  19  22
ENDBRANCH   1  18
TORSDOF 8
ENDMDL
MODEL 2
REMARK VINA RESULT:    -8.214      1.075      2.286
REMARK INTER + INTRA:         -12.843
REMARK INTER:                 -11.689
REMARK INTRA:                  -1.154
REMARK UNBOUND:                -1.027
REMARK  Name = 
REMARK  10 active torsions:
REMARK  status: ('A' for Active; 'I' for Inactive)
REMARK    1  A    between atoms: C_1  and  C_2
REMARK    2  A    between atoms: C_6  and  C_7
REMARK    3  A    between atoms: C_7  and  O_8
REMARK    4  A    between atoms: O_8  and  C_9
REMARK    5  A    between atoms: C_9  and  C_10
REMARK    6  A    between atoms: C_13  and  C_14
REMARK    7  A    between atoms: C_14  and  N_15
REMARK    8  A    between atoms: C_16  and  C_18
REMARK    9  A    between atoms: C_19  and  C_20
REMARK   10  A    between atoms: C_26  and  O_27
REMARK                            x       y       z     vdW  Elec       q    Type
REMARK                         _______ _______ _______ _____ _____    ______ ____
ROOT
ATOM      1  C   UNL     1      48.320   6.197  13.961  0.00  0.00    +0.000 C 
ENDROOT
BRANCH   1   5
ATOM      2  C   UNL     1      44.640   5.459  11.820  0.00  0.00    +0.000 A 
ATOM      3  C   UNL     1      44.885   4.821  13.044  0.00  0.00    +0.000 A 
ATOM      4  C   UNL     1      46.073   5.057  13.740  0.00  0.00    +0.000 A 
ATOM      5  C   UNL     1      47.031   5.941  13.228  0.00  0.00    +0.000 A 
ATOM      6  C   UNL     1      46.793   6.562  11.994  0.00  0.00    +0.000 A 
ATOM      7  C   UNL     1      45.606   6.327  11.298  0.00  0.00    +0.000 A 
BRANCH   2   8
ATOM      8  C   UNL     1      43.323   5.265  11.110  0.00  0.00    +0.000 C 
BRANCH   8   9
ATOM      9  O   UNL     1      43.491   4.610   9.852  0.00  0.00    +0.000 OA
BRANCH   9  10
ATOM     10  C   UNL     1      44.041   3.298   9.984  0.00  0.00    +0.000 C 
BRANCH  10  16
ATOM     11  C   UNL     1      46.992   0.097   7.485  0.00  0.00    +0.000 C 
ATOM     12  C   UNL     1      46.543   1.506   7.735  0.00  0.00    +0.000 A 
ATOM     13  C   UNL     1      47.096   2.578   7.029  0.00  0.00    +0.000 A 
ATOM     14  C   UNL     1      46.664   3.883   7.275  0.00  0.00    +0.000 A 
ATOM     15  C   UNL     1      45.679   4.127   8.230  0.00  0.00    +0.000 A 
ATOM     16  C   UNL     1      45.122   3.071   8.960  0.00  0.00    +0.000 A 
ATOM     17  C   UNL     1      45.552   1.760   8.693  0.00  0.00    +0.000 A 
ENDBRANCH  10  16
ENDBRANCH   9  10
ENDBRANCH   8   9
ENDBRANCH   2   8
ENDBRANCH   1   5
BRANCH   1  18
ATOM     18  N   UNL     1      48.073   6.506  15.345  0.00  0.00    +0.000 N 
ATOM     19  C   UNL     1      49.095   6.554  16.253  0.00  0.00    +0.000 C 
ATOM     20  O   UNL     1      50.263   6.353  15.930  0.00  0.00    +0.000 OA
ATOM     21  H   UNL     1      47.115   6.483  15.676  0.00  0.00    +0.000 HD
BRANCH  19  22
ATOM     22  C   UNL     1      48.706   6.905  17.622  0.00  0.00    +0.000 A 
ATOM     23  C   UNL     1      48.291   8.179  18.027  0.00  0.00    +0.000 A 
ATOM     24  C   UNL     1      48.110   9.450  17.273  0.00  0.00    +0.000 C 
ATOM     25  N   UNL     1      48.001   8.125  19.368  0.00  0.00    +0.000 N 
ATOM     26  C   UNL     1      48.209   6.862  19.841  0.00  0.00    +0.000 A 
ATOM     27  N   UNL     1      48.009   6.481  21.115  0.00  0.00    +0.000 NA
ATOM     28  C   UNL     1      48.299   5.179  21.292  0.00  0.00    +0.000 A 
ATOM     29  N   UNL     1      48.737   4.292  20.378  0.00  0.00    +0.000 NA
ATOM     30  C   UNL     1      48.908   4.752  19.134  0.00  0.00    +0.000 A 
ATOM     31  C   UNL     1      48.648   6.074  18.792  0.00  0.00    +0.000 A 
ATOM     32  H   UNL     1      47.668   8.887  19.940  0.00  0.00    +0.000 HD
BRANCH  30  33
ATOM     33  O   UNL     1      49.330   3.813  18.239  0.00  0.00    +0.000 OA
ATOM     34  H   UNL     1      50.296   3.912  18.325  0.00  0.00    +0.000 HD
ENDBRANCH  30  33
ENDBRANCH  19  22
ENDBRANCH   1  18
TORSDOF 8
ENDMDL
MODEL 3
REMARK VINA RESULT:    -7.999      2.027      2.876
REMARK INTER + INTRA:         -12.533
REMARK INTER:                 -11.749
REMARK INTRA:                  -0.784
REMARK UNBOUND:                -1.027
REMARK  Name = 
REMARK  10 active torsions:
REMARK  status: ('A' for Active; 'I' for Inactive)
REMARK    1  A    between atoms: C_1  and  C_2
REMARK    2  A    between atoms: C_6  and  C_7
REMARK    3  A    between atoms: C_7  and  O_8
REMARK    4  A    between atoms: O_8  and  C_9
REMARK    5  A    between atoms: C_9  and  C_10
REMARK    6  A    between atoms: C_13  and  C_14
REMARK    7  A    between atoms: C_14  and  N_15
REMARK    8  A    between atoms: C_16  and  C_18
REMARK    9  A    between atoms: C_19  and  C_20
REMARK   10  A    between atoms: C_26  and  O_27
REMARK                            x       y       z     vdW  Elec       q    Type
REMARK                         _______ _______ _______ _____ _____    ______ ____
ROOT
ATOM      1  C   UNL     1      47.159   7.980  13.374  0.00  0.00    +0.000 C 
ENDROOT
BRANCH   1   5
ATOM      2  C   UNL     1      44.459   5.530  11.057  0.00  0.00    +0.000 A 
ATOM      3  C   UNL     1      45.770   5.750  10.612  0.00  0.00    +0.000 A 
ATOM      4  C   UNL     1      46.646   6.541  11.359  0.00  0.00    +0.000 A 
ATOM      5  C   UNL     1      46.229   7.117  12.565  0.00  0.00    +0.000 A 
ATOM      6  C   UNL     1      44.912   6.912  12.996  0.00  0.00    +0.000 A 
ATOM      7  C   UNL     1      44.035   6.122  12.252  0.00  0.00    +0.000 A 
BRANCH   2   8
ATOM      8  C   UNL     1      43.539   4.610  10.291  0.00  0.00    +0.000 C 
BRANCH   8   9
ATOM      9  O   UNL     1      44.259   3.559   9.646  0.00  0.00    +0.000 OA
BRANCH   9  10
ATOM     10  C   UNL     1      44.744   3.936   8.355  0.00  0.00    +0.000 C 
BRANCH  10  16
ATOM     11  C   UNL     1      47.766   2.350   4.674  0.00  0.00    +0.000 C 
ATOM     12  C   UNL     1      47.095   2.090   5.990  0.00  0.00    +0.000 A 
ATOM     13  C   UNL     1      47.280   0.884   6.671  0.00  0.00    +0.000 A 
ATOM     14  C   UNL     1      46.647   0.660   7.896  0.00  0.00    +0.000 A 
ATOM     15  C   UNL     1      45.823   1.639   8.448  0.00  0.00    +0.000 A 
ATOM     16  C   UNL     1      45.612   2.849   7.776  0.00  0.00    +0.000 A 
ATOM     17  C   UNL     1      46.266   3.069   6.552  0.00  0.00    +0.000 A 
ENDBRANCH  10  16
ENDBRANCH   9  10
ENDBRANCH   8   9
ENDBRANCH   2   8
ENDBRANCH   1   5
BRANCH   1  18
ATOM     18  N   UNL     1      47.549   7.318  14.591  0.00  0.00    +0.000 N 
ATOM     19  C   UNL     1      48.808   6.805  14.746  0.00  0.00    +0.000 C 
ATOM     20  O   UNL     1      49.662   6.897  13.867  0.00  0.00    +0.000 OA
ATOM     21  H   UNL     1      46.822   7.057  15.247  0.00  0.00    +0.000 HD
BRANCH  19  22
ATOM     22  C   UNL     1      49.078   6.180  16.044  0.00  0.00    +0.000 A 
ATOM     23  C   UNL     1      50.065   6.606  16.940  0.00  0.00    +0.000 A 
ATOM     24  C   UNL     1      51.044   7.727  16.879  0.00  0.00    +0.000 C 
ATOM     25  N   UNL     1      50.017   5.793  18.045  0.00  0.00    +0.000 N 
ATOM     26  C   UNL     1      49.031   4.861  17.897  0.00  0.00    +0.000 A 
ATOM     27  N   UNL     1      48.725   3.921  18.808  0.00  0.00    +0.000 NA
ATOM     28  C   UNL     1      47.713   3.139  18.391  0.00  0.00    +0.000 A 
ATOM     29  N   UNL     1      47.031   3.209  17.231  0.00  0.00    +0.000 NA
ATOM     30  C   UNL     1      47.397   4.174  16.381  0.00  0.00    +0.000 A 
ATOM     31  C   UNL     1      48.425   5.064  16.670  0.00  0.00    +0.000 A 
ATOM     32  H   UNL     1      50.602   5.860  18.865  0.00  0.00    +0.000 HD
BRANCH  30  33
ATOM     33  O   UNL     1      46.664   4.220  15.231  0.00  0.00    +0.000 OA
ATOM     34  H   UNL     1      47.327   3.907  14.588  0.00  0.00    +0.000 HD
ENDBRANCH  30  33
ENDBRANCH  19  22
ENDBRANCH   1  18
TORSDOF 8
ENDMDL
MODEL 4
REMARK VINA RESULT:    -7.829      3.903      6.065
REMARK INTER + INTRA:         -12.289
REMARK INTER:                 -11.045
REMARK INTRA:                  -1.244
REMARK UNBOUND:                -1.027
REMARK  Name = 
REMARK  10 active torsions:
REMARK  status: ('A' for Active; 'I' for Inactive)
REMARK    1  A    between atoms: C_1  and  C_2
REMARK    2  A    between atoms: C_6  and  C_7
REMARK    3  A    between atoms: C_7  and  O_8
REMARK    4  A    between atoms: O_8  and  C_9
REMARK    5  A    between atoms: C_9  and  C_10
REMARK    6  A    between atoms: C_13  and  C_14
REMARK    7  A    between atoms: C_14  and  N_15
REMARK    8  A    between atoms: C_16  and  C_18
REMARK    9  A    between atoms: C_19  and  C_20
REMARK   10  A    between atoms: C_26  and  O_27
REMARK                            x       y       z     vdW  Elec       q    Type
REMARK                         _______ _______ _______ _____ _____    ______ ____
ROOT
ATOM      1  C   UNL     1      47.626   6.639  13.940  0.00  0.00    +0.000 C 
ENDROOT
BRANCH   1   5
ATOM      2  C   UNL     1      44.622   3.841  12.592  0.00  0.00    +0.000 A 
ATOM      3  C   UNL     1      45.886   3.383  12.992  0.00  0.00    +0.000 A 
ATOM      4  C   UNL     1      46.858   4.284  13.429  0.00  0.00    +0.000 A 
ATOM      5  C   UNL     1      46.583   5.656  13.481  0.00  0.00    +0.000 A 
ATOM      6  C   UNL     1      45.327   6.113  13.061  0.00  0.00    +0.000 A 
ATOM      7  C   UNL     1      44.353   5.214  12.624  0.00  0.00    +0.000 A 
BRANCH   2   8
ATOM      8  C   UNL     1      43.546   2.859  12.197  0.00  0.00    +0.000 C 
BRANCH   8   9
ATOM      9  O   UNL     1      43.280   2.901  10.795  0.00  0.00    +0.000 OA
BRANCH   9  10
ATOM     10  C   UNL     1      44.037   1.934  10.062  0.00  0.00    +0.000 C 
BRANCH  10  16
ATOM     11  C   UNL     1      47.739   1.568   6.693  0.00  0.00    +0.000 C 
ATOM     12  C   UNL     1      46.789   2.428   7.473  0.00  0.00    +0.000 A 
ATOM     13  C   UNL     1      46.782   3.817   7.325  0.00  0.00    +0.000 A 
ATOM     14  C   UNL     1      45.890   4.601   8.059  0.00  0.00    +0.000 A 
ATOM     15  C   UNL     1      45.000   4.003   8.949  0.00  0.00    +0.000 A 
ATOM     16  C   UNL     1      45.000   2.614   9.124  0.00  0.00    +0.000 A 
ATOM     17  C   UNL     1      45.891   1.834   8.369  0.00  0.00    +0.000 A 
ENDBRANCH  10  16
ENDBRANCH   9  10
ENDBRANCH   8   9
ENDBRANCH   2   8
ENDBRANCH   1   5
BRANCH   1  18
ATOM     18  N   UNL     1      47.380   7.946  13.389  0.00  0.00    +0.000 N 
ATOM     19  C   UNL     1      47.983   8.350  12.229  0.00  0.00    +0.000 C 
ATOM     20  O   UNL     1      48.743   7.618  11.600  0.00  0.00    +0.000 OA
ATOM     21  H   UNL     1      46.920   8.632  13.976  0.00  0.00    +0.000 HD
BRANCH  19  22
ATOM     22  C   UNL     1      47.624   9.695  11.769  0.00  0.00    +0.000 A 
ATOM     23  C   UNL     1      48.530  10.620  11.238  0.00  0.00    +0.000 A 
ATOM     24  C   UNL     1      49.994  10.539  10.978  0.00  0.00    +0.000 C 
ATOM     25  N   UNL     1      47.834  11.757  10.910  0.00  0.00    +0.000 N 
ATOM     26  C   UNL     1      46.512  11.597  11.206  0.00  0.00    +0.000 A 
ATOM     27  N   UNL     1      45.564  12.528  10.998  0.00  0.00    +0.000 NA
ATOM     28  C   UNL     1      44.351  12.095  11.387  0.00  0.00    +0.000 A 
ATOM     29  N   UNL     1      44.027  10.903  11.925  0.00  0.00    +0.000 NA
ATOM     30  C   UNL     1      45.028  10.034  12.098  0.00  0.00    +0.000 A 
ATOM     31  C   UNL     1      46.337  10.333  11.742  0.00  0.00    +0.000 A 
ATOM     32  H   UNL     1      48.216  12.596  10.498  0.00  0.00    +0.000 HD
BRANCH  30  33
ATOM     33  O   UNL     1      44.648   8.834  12.624  0.00  0.00    +0.000 OA
ATOM     34  H   UNL     1      44.481   8.329  11.806  0.00  0.00    +0.000 HD
ENDBRANCH  30  33
ENDBRANCH  19  22
ENDBRANCH   1  18
TORSDOF 8
ENDMDL
MODEL 5
REMARK VINA RESULT:    -7.713      3.342      9.010
REMARK INTER + INTRA:         -12.122
REMARK INTER:                 -10.412
REMARK INTRA:                  -1.710
REMARK UNBOUND:                -1.027
REMARK  Name = 
REMARK  10 active torsions:
REMARK  status: ('A' for Active; 'I' for Inactive)
REMARK    1  A    between atoms: C_1  and  C_2
REMARK    2  A    between atoms: C_6  and  C_7
REMARK    3  A    between atoms: C_7  and  O_8
REMARK    4  A    between atoms: O_8  and  C_9
REMARK    5  A    between atoms: C_9  and  C_10
REMARK    6  A    between atoms: C_13  and  C_14
REMARK    7  A    between atoms: C_14  and  N_15
REMARK    8  A    between atoms: C_16  and  C_18
REMARK    9  A    between atoms: C_19  and  C_20
REMARK   10  A    between atoms: C_26  and  O_27
REMARK                            x       y       z     vdW  Elec       q    Type
REMARK                         _______ _______ _______ _____ _____    ______ ____
ROOT
ATOM      1  C   UNL     1      46.878   7.745  11.805  0.00  0.00    +0.000 C 
ENDROOT
BRANCH   1   5
ATOM      2  C   UNL     1      48.764   7.844  15.690  0.00  0.00    +0.000 A 
ATOM      3  C   UNL     1      48.642   6.633  14.995  0.00  0.00    +0.000 A 
ATOM      4  C   UNL     1      48.034   6.597  13.739  0.00  0.00    +0.000 A 
ATOM      5  C   UNL     1      47.545   7.771  13.154  0.00  0.00    +0.000 A 
ATOM      6  C   UNL     1      47.651   8.977  13.859  0.00  0.00    +0.000 A 
ATOM      7  C   UNL     1      48.259   9.016  15.114  0.00  0.00    +0.000 A 
BRANCH   2   8
ATOM      8  C   UNL     1      49.494   7.895  17.011  0.00  0.00    +0.000 C 
BRANCH   8   9
ATOM      9  O   UNL     1      48.665   7.462  18.090  0.00  0.00    +0.000 OA
BRANCH   9  10
ATOM     10  C   UNL     1      49.235   6.372  18.819  0.00  0.00    +0.000 C 
BRANCH  10  16
ATOM     11  C   UNL     1      50.638   1.866  17.111  0.00  0.00    +0.000 C 
ATOM     12  C   UNL     1      49.546   2.859  17.374  0.00  0.00    +0.000 A 
ATOM     13  C   UNL     1      48.215   2.572  17.060  0.00  0.00    +0.000 A 
ATOM     14  C   UNL     1      47.212   3.509  17.313  0.00  0.00    +0.000 A 
ATOM     15  C   UNL     1      47.531   4.742  17.879  0.00  0.00    +0.000 A 
ATOM     16  C   UNL     1      48.859   5.057  18.187  0.00  0.00    +0.000 A 
ATOM     17  C   UNL     1      49.858   4.100  17.943  0.00  0.00    +0.000 A 
ENDBRANCH  10  16
ENDBRANCH   9  10
ENDBRANCH   8   9
ENDBRANCH   2   8
ENDBRANCH   1   5
BRANCH   1  18
ATOM     18  N   UNL     1      46.370   6.433  11.506  0.00  0.00    +0.000 N 
ATOM     19  C   UNL     1      45.025   6.185  11.474  0.00  0.00    +0.000 C 
ATOM     20  O   UNL     1      44.194   7.066  11.681  0.00  0.00    +0.000 OA
ATOM     21  H   UNL     1      47.019   5.654  11.523  0.00  0.00    +0.000 HD
BRANCH  19  22
ATOM     22  C   UNL     1      44.646   4.810  11.131  0.00  0.00    +0.000 A 
ATOM     23  C   UNL     1      43.888   3.968  11.952  0.00  0.00    +0.000 A 
ATOM     24  C   UNL     1      43.269   4.180  13.289  0.00  0.00    +0.000 C 
ATOM     25  N   UNL     1      43.726   2.771  11.299  0.00  0.00    +0.000 N 
ATOM     26  C   UNL     1      44.349   2.812  10.086  0.00  0.00    +0.000 A 
ATOM     27  N   UNL     1      44.370   1.799   9.203  0.00  0.00    +0.000 NA
ATOM     28  C   UNL     1      45.060   2.122   8.095  0.00  0.00    +0.000 A 
ATOM     29  N   UNL     1      45.684   3.282   7.812  0.00  0.00    +0.000 NA
ATOM     30  C   UNL     1      45.613   4.240   8.743  0.00  0.00    +0.000 A 
ATOM     31  C   UNL     1      44.933   4.058   9.941  0.00  0.00    +0.000 A 
ATOM     32  H   UNL     1      43.217   1.968  11.638  0.00  0.00    +0.000 HD
BRANCH  30  33
ATOM     33  O   UNL     1      46.239   5.403   8.403  0.00  0.00    +0.000 OA
ATOM     34  H   UNL     1      45.669   6.049   8.860  0.00  0.00    +0.000 HD
ENDBRANCH  30  33
ENDBRANCH  19  22
ENDBRANCH   1  18
TORSDOF 8
ENDMDL
MODEL 6
REMARK VINA RESULT:    -7.616      3.797      8.438
REMARK INTER + INTRA:         -11.982
REMARK INTER:                  -9.906
REMARK INTRA:                  -2.076
REMARK UNBOUND:                -1.027
REMARK  Name = 
REMARK  10 active torsions:
REMARK  status: ('A' for Active; 'I' for Inactive)
REMARK    1  A    between atoms: C_1  and  C_2
REMARK    2  A    between atoms: C_6  and  C_7
REMARK    3  A    between atoms: C_7  and  O_8
REMARK    4  A    between atoms: O_8  and  C_9
REMARK    5  A    between atoms: C_9  and  C_10
REMARK    6  A    between atoms: C_13  and  C_14
REMARK    7  A    between atoms: C_14  and  N_15
REMARK    8  A    between atoms: C_16  and  C_18
REMARK    9  A    between atoms: C_19  and  C_20
REMARK   10  A    between atoms: C_26  and  O_27
REMARK                            x       y       z     vdW  Elec       q    Type
REMARK                         _______ _______ _______ _____ _____    ______ ____
ROOT
ATOM      1  C   UNL     1      49.480   7.818  14.549  0.00  0.00    +0.000 C 
ENDROOT
BRANCH   1   5
ATOM      2  C   UNL     1      49.910   7.299  18.817  0.00  0.00    +0.000 A 
ATOM      3  C   UNL     1      48.854   8.062  18.301  0.00  0.00    +0.000 A 
ATOM      4  C   UNL     1      48.710   8.232  16.923  0.00  0.00    +0.000 A 
ATOM      5  C   UNL     1      49.616   7.635  16.037  0.00  0.00    +0.000 A 
ATOM      6  C   UNL     1      50.683   6.890  16.555  0.00  0.00    +0.000 A 
ATOM      7  C   UNL     1      50.828   6.719  17.933  0.00  0.00    +0.000 A 
BRANCH   2   8
ATOM      8  C   UNL     1      50.017   7.050  20.301  0.00  0.00    +0.000 C 
BRANCH   8   9
ATOM      9  O   UNL     1      49.913   5.660  20.614  0.00  0.00    +0.000 OA
BRANCH   9  10
ATOM     10  C   UNL     1      48.584   5.158  20.454  0.00  0.00    +0.000 C 
BRANCH  10  16
ATOM     11  C   UNL     1      50.310   1.953  16.998  0.00  0.00    +0.000 C 
ATOM     12  C   UNL     1      49.259   2.929  17.437  0.00  0.00    +0.000 A 
ATOM     13  C   UNL     1      48.153   3.212  16.632  0.00  0.00    +0.000 A 
ATOM     14  C   UNL     1      47.185   4.123  17.058  0.00  0.00    +0.000 A 
ATOM     15  C   UNL     1      47.316   4.760  18.291  0.00  0.00    +0.000 A 
ATOM     16  C   UNL     1      48.423   4.503  19.107  0.00  0.00    +0.000 A 
ATOM     17  C   UNL     1      49.383   3.572  18.675  0.00  0.00    +0.000 A 
ENDBRANCH  10  16
ENDBRANCH   9  10
ENDBRANCH   8   9
ENDBRANCH   2   8
ENDBRANCH   1   5
BRANCH   1  18
ATOM     18  N   UNL     1      48.114   7.646  14.131  0.00  0.00    +0.000 N 
ATOM     19  C   UNL     1      47.746   6.601  13.329  0.00  0.00    +0.000 C 
ATOM     20  O   UNL     1      48.553   5.759  12.943  0.00  0.00    +0.000 OA
ATOM     21  H   UNL     1      47.472   8.418  14.268  0.00  0.00    +0.000 HD
BRANCH  19  22
ATOM     22  C   UNL     1      46.319   6.531  13.000  0.00  0.00    +0.000 A 
ATOM     23  C   UNL     1      45.525   7.636  12.672  0.00  0.00    +0.000 A 
ATOM     24  C   UNL     1      45.845   9.085  12.544  0.00  0.00    +0.000 C 
ATOM     25  N   UNL     1      44.253   7.186  12.418  0.00  0.00    +0.000 N 
ATOM     26  C   UNL     1      44.199   5.831  12.566  0.00  0.00    +0.000 A 
ATOM     27  N   UNL     1      43.095   5.086  12.381  0.00  0.00    +0.000 NA
ATOM     28  C   UNL     1      43.337   3.781  12.599  0.00  0.00    +0.000 A 
ATOM     29  N   UNL     1      44.498   3.199  12.958  0.00  0.00    +0.000 NA
ATOM     30  C   UNL     1      45.548   4.010  13.119  0.00  0.00    +0.000 A 
ATOM     31  C   UNL     1      45.457   5.384  12.928  0.00  0.00    +0.000 A 
ATOM     32  H   UNL     1      43.461   7.750  12.147  0.00  0.00    +0.000 HD
BRANCH  30  33
ATOM     33  O   UNL     1      46.705   3.374  13.460  0.00  0.00    +0.000 OA
ATOM     34  H   UNL     1      46.465   3.034  14.342  0.00  0.00    +0.000 HD
ENDBRANCH  30  33
ENDBRANCH  19  22
ENDBRANCH   1  18
TORSDOF 8
ENDMDL
MODEL 7
REMARK VINA RESULT:    -7.513      3.617      9.872
REMARK INTER + INTRA:         -11.834
REMARK INTER:                  -9.843
REMARK INTRA:                  -1.991
REMARK UNBOUND:                -1.027
REMARK  Name = 
REMARK  10 active torsions:
REMARK  status: ('A' for Active; 'I' for Inactive)
REMARK    1  A    between atoms: C_1  and  C_2
REMARK    2  A    between atoms: C_6  and  C_7
REMARK    3  A    between atoms: C_7  and  O_8
REMARK    4  A    between atoms: O_8  and  C_9
REMARK    5  A    between atoms: C_9  and  C_10
REMARK    6  A    between atoms: C_13  and  C_14
REMARK    7  A    between atoms: C_14  and  N_15
REMARK    8  A    between atoms: C_16  and  C_18
REMARK    9  A    between atoms: C_19  and  C_20
REMARK   10  A    between atoms: C_26  and  O_27
REMARK                            x       y       z     vdW  Elec       q    Type
REMARK                         _______ _______ _______ _____ _____    ______ ____
ROOT
ATOM      1  C   UNL     1      47.477   3.618  16.524  0.00  0.00    +0.000 C 
ENDROOT
BRANCH   1   5
ATOM      2  C   UNL     1      51.191   5.126  18.137  0.00  0.00    +0.000 A 
ATOM      3  C   UNL     1      50.285   5.997  17.516  0.00  0.00    +0.000 A 
ATOM      4  C   UNL     1      49.084   5.514  16.994  0.00  0.00    +0.000 A 
ATOM      5  C   UNL     1      48.764   4.154  17.092  0.00  0.00    +0.000 A 
ATOM      6  C   UNL     1      49.679   3.282  17.695  0.00  0.00    +0.000 A 
ATOM      7  C   UNL     1      50.880   3.763  18.218  0.00  0.00    +0.000 A 
BRANCH   2   8
ATOM      8  C   UNL     1      52.451   5.661  18.772  0.00  0.00    +0.000 C 
BRANCH   8   9
ATOM      9  O   UNL     1      52.163   6.601  19.809  0.00  0.00    +0.000 OA
BRANCH   9  10
ATOM     10  C   UNL     1      51.700   5.973  21.007  0.00  0.00    +0.000 C 
BRANCH  10  16
ATOM     11  C   UNL     1      47.480   8.641  20.485  0.00  0.00    +0.000 C 
ATOM     12  C   UNL     1      48.147   7.341  20.822  0.00  0.00    +0.000 A 
ATOM     13  C   UNL     1      47.400   6.218  21.190  0.00  0.00    +0.000 A 
ATOM     14  C   UNL     1      48.039   5.016  21.500  0.00  0.00    +0.000 A 
ATOM     15  C   UNL     1      49.428   4.927  21.446  0.00  0.00    +0.000 A 
ATOM     16  C   UNL     1      50.197   6.042  21.095  0.00  0.00    +0.000 A 
ATOM     17  C   UNL     1      49.543   7.242  20.770  0.00  0.00    +0.000 A 
ENDBRANCH  10  16
ENDBRANCH   9  10
ENDBRANCH   8   9
ENDBRANCH   2   8
ENDBRANCH   1   5
BRANCH   1  18
ATOM     18  N   UNL     1      46.899   4.547  15.589  0.00  0.00    +0.000 N 
ATOM     19  C   UNL     1      46.808   4.246  14.257  0.00  0.00    +0.000 C 
ATOM     20  O   UNL     1      47.197   3.173  13.804  0.00  0.00    +0.000 OA
ATOM     21  H   UNL     1      46.751   5.502  15.894  0.00  0.00    +0.000 HD
BRANCH  19  22
ATOM     22  C   UNL     1      46.175   5.271  13.422  0.00  0.00    +0.000 A 
ATOM     23  C   UNL     1      46.777   6.481  13.058  0.00  0.00    +0.000 A 
ATOM     24  C   UNL     1      48.121   7.049  13.354  0.00  0.00    +0.000 C 
ATOM     25  N   UNL     1      45.893   7.175  12.269  0.00  0.00    +0.000 N 
ATOM     26  C   UNL     1      44.745   6.456  12.108  0.00  0.00    +0.000 A 
ATOM     27  N   UNL     1      43.686   6.858  11.384  0.00  0.00    +0.000 NA
ATOM     28  C   UNL     1      42.697   5.946  11.406  0.00  0.00    +0.000 A 
ATOM     29  N   UNL     1      42.675   4.757  12.038  0.00  0.00    +0.000 NA
ATOM     30  C   UNL     1      43.769   4.432  12.735  0.00  0.00    +0.000 A 
ATOM     31  C   UNL     1      44.877   5.269  12.807  0.00  0.00    +0.000 A 
ATOM     32  H   UNL     1      46.048   8.079  11.848  0.00  0.00    +0.000 HD
BRANCH  30  33
ATOM     33  O   UNL     1      43.710   3.210  13.339  0.00  0.00    +0.000 OA
ATOM     34  H   UNL     1      42.780   3.204  13.631  0.00  0.00    +0.000 HD
ENDBRANCH  30  33
ENDBRANCH  19  22
ENDBRANCH   1  18
TORSDOF 8
ENDMDL
MODEL 8
REMARK VINA RESULT:    -7.425      3.611      9.094
REMARK INTER + INTRA:         -11.707
REMARK INTER:                  -9.495
REMARK INTRA:                  -2.213
REMARK UNBOUND:                -1.027
REMARK  Name = 
REMARK  10 active torsions:
REMARK  status: ('A' for Active; 'I' for Inactive)
REMARK    1  A    between atoms: C_1  and  C_2
REMARK    2  A    between atoms: C_6  and  C_7
REMARK    3  A    between atoms: C_7  and  O_8
REMARK    4  A    between atoms: O_8  and  C_9
REMARK    5  A    between atoms: C_9  and  C_10
REMARK    6  A    between atoms: C_13  and  C_14
REMARK    7  A    between atoms: C_14  and  N_15
REMARK    8  A    between atoms: C_16  and  C_18
REMARK    9  A    between atoms: C_19  and  C_20
REMARK   10  A    between atoms: C_26  and  O_27
REMARK                            x       y       z     vdW  Elec       q    Type
REMARK                         _______ _______ _______ _____ _____    ______ ____
ROOT
ATOM      1  C   UNL     1      47.376   3.742  16.652  0.00  0.00    +0.000 C 
ENDROOT
BRANCH   1   5
ATOM      2  C   UNL     1      48.626   5.924  20.165  0.00  0.00    +0.000 A 
ATOM      3  C   UNL     1      49.496   5.011  19.554  0.00  0.00    +0.000 A 
ATOM      4  C   UNL     1      49.097   4.304  18.418  0.00  0.00    +0.000 A 
ATOM      5  C   UNL     1      47.824   4.504  17.870  0.00  0.00    +0.000 A 
ATOM      6  C   UNL     1      46.948   5.402  18.495  0.00  0.00    +0.000 A 
ATOM      7  C   UNL     1      47.346   6.110  19.630  0.00  0.00    +0.000 A 
BRANCH   2   8
ATOM      8  C   UNL     1      49.088   6.746  21.344  0.00  0.00    +0.000 C 
BRANCH   8   9
ATOM      9  O   UNL     1      50.230   7.540  21.020  0.00  0.00    +0.000 OA
BRANCH   9  10
ATOM     10  C   UNL     1      49.878   8.841  20.543  0.00  0.00    +0.000 C 
BRANCH  10  16
ATOM     11  C   UNL     1      50.987   7.282  15.903  0.00  0.00    +0.000 C 
ATOM     12  C   UNL     1      50.061   8.015  16.827  0.00  0.00    +0.000 A 
ATOM     13  C   UNL     1      48.895   8.621  16.352  0.00  0.00    +0.000 A 
ATOM     14  C   UNL     1      48.045   9.299  17.228  0.00  0.00    +0.000 A 
ATOM     15  C   UNL     1      48.354   9.378  18.584  0.00  0.00    +0.000 A 
ATOM     16  C   UNL     1      49.524   8.792  19.079  0.00  0.00    +0.000 A 
ATOM     17  C   UNL     1      50.365   8.099  18.192  0.00  0.00    +0.000 A 
ENDBRANCH  10  16
ENDBRANCH   9  10
ENDBRANCH   8   9
ENDBRANCH   2   8
ENDBRANCH   1   5
BRANCH   1  18
ATOM     18  N   UNL     1      46.895   4.635  15.632  0.00  0.00    +0.000 N 
ATOM     19  C   UNL     1      46.871   4.260  14.316  0.00  0.00    +0.000 C 
ATOM     20  O   UNL     1      47.241   3.147  13.949  0.00  0.00    +0.000 OA
ATOM     21  H   UNL     1      46.770   5.611  15.873  0.00  0.00    +0.000 HD
BRANCH  19  22
ATOM     22  C   UNL     1      46.333   5.258  13.387  0.00  0.00    +0.000 A 
ATOM     23  C   UNL     1      47.061   6.335  12.871  0.00  0.00    +0.000 A 
ATOM     24  C   UNL     1      48.475   6.761  13.063  0.00  0.00    +0.000 C 
ATOM     25  N   UNL     1      46.236   7.044  12.032  0.00  0.00    +0.000 N 
ATOM     26  C   UNL     1      45.004   6.460  11.986  0.00  0.00    +0.000 A 
ATOM     27  N   UNL     1      43.972   6.909  11.250  0.00  0.00    +0.000 NA
ATOM     28  C   UNL     1      42.882   6.136  11.402  0.00  0.00    +0.000 A 
ATOM     29  N   UNL     1      42.743   5.036  12.167  0.00  0.00    +0.000 NA
ATOM     30  C   UNL     1      43.817   4.655  12.866  0.00  0.00    +0.000 A 
ATOM     31  C   UNL     1      45.019   5.350  12.812  0.00  0.00    +0.000 A 
ATOM     32  H   UNL     1      46.482   7.869  11.506  0.00  0.00    +0.000 HD
BRANCH  30  33
ATOM     33  O   UNL     1      43.635   3.524  13.607  0.00  0.00    +0.000 OA
ATOM     34  H   UNL     1      42.699   3.335  13.411  0.00  0.00    +0.000 HD
ENDBRANCH  30  33
ENDBRANCH  19  22
ENDBRANCH   1  18
TORSDOF 8
ENDMDL
MODEL 9
REMARK VINA RESULT:    -7.323      2.300      3.144
REMARK INTER + INTRA:         -11.561
REMARK INTER:                 -10.362
REMARK INTRA:                  -1.199
REMARK UNBOUND:                -1.027
REMARK  Name = 
REMARK  10 active torsions:
REMARK  status: ('A' for Active; 'I' for Inactive)
REMARK    1  A    between atoms: C_1  and  C_2
REMARK    2  A    between atoms: C_6  and  C_7
REMARK    3  A    between atoms: C_7  and  O_8
REMARK    4  A    between atoms: O_8  and  C_9
REMARK    5  A    between atoms: C_9  and  C_10
REMARK    6  A    between atoms: C_13  and  C_14
REMARK    7  A    between atoms: C_14  and  N_15
REMARK    8  A    between atoms: C_16  and  C_18
REMARK    9  A    between atoms: C_19  and  C_20
REMARK   10  A    between atoms: C_26  and  O_27
REMARK                            x       y       z     vdW  Elec       q    Type
REMARK                         _______ _______ _______ _____ _____    ______ ____
ROOT
ATOM      1  C   UNL     1      47.548   8.784  13.702  0.00  0.00    +0.000 C 
ENDROOT
BRANCH   1   5
ATOM      2  C   UNL     1      45.668   5.056  12.591  0.00  0.00    +0.000 A 
ATOM      3  C   UNL     1      46.878   5.053  13.300  0.00  0.00    +0.000 A 
ATOM      4  C   UNL     1      47.488   6.256  13.661  0.00  0.00    +0.000 A 
ATOM      5  C   UNL     1      46.895   7.480  13.328  0.00  0.00    +0.000 A 
ATOM      6  C   UNL     1      45.697   7.480  12.602  0.00  0.00    +0.000 A 
ATOM      7  C   UNL     1      45.085   6.279  12.240  0.00  0.00    +0.000 A 
BRANCH   2   8
ATOM      8  C   UNL     1      44.969   3.757  12.272  0.00  0.00    +0.000 C 
BRANCH   8   9
ATOM      9  O   UNL     1      44.016   3.913  11.220  0.00  0.00    +0.000 OA
BRANCH   9  10
ATOM     10  C   UNL     1      43.978   2.786  10.341  0.00  0.00    +0.000 C 
BRANCH  10  16
ATOM     11  C   UNL     1      47.214   0.655   7.150  0.00  0.00    +0.000 C 
ATOM     12  C   UNL     1      46.553   1.894   7.677  0.00  0.00    +0.000 A 
ATOM     13  C   UNL     1      46.854   3.154   7.151  0.00  0.00    +0.000 A 
ATOM     14  C   UNL     1      46.228   4.296   7.654  0.00  0.00    +0.000 A 
ATOM     15  C   UNL     1      45.298   4.189   8.687  0.00  0.00    +0.000 A 
ATOM     16  C   UNL     1      44.993   2.939   9.238  0.00  0.00    +0.000 A 
ATOM     17  C   UNL     1      45.617   1.795   8.714  0.00  0.00    +0.000 A 
ENDBRANCH  10  16
ENDBRANCH   9  10
ENDBRANCH   8   9
ENDBRANCH   2   8
ENDBRANCH   1   5
BRANCH   1  18
ATOM     18  N   UNL     1      47.411   9.044  15.111  0.00  0.00    +0.000 N 
ATOM     19  C   UNL     1      48.439   8.797  15.979  0.00  0.00    +0.000 C 
ATOM     20  O   UNL     1      49.523   8.362  15.599  0.00  0.00    +0.000 OA
ATOM     21  H   UNL     1      46.481   9.215  15.476  0.00  0.00    +0.000 HD
BRANCH  19  22
ATOM     22  C   UNL     1      48.172   9.132  17.381  0.00  0.00    +0.000 A 
ATOM     23  C   UNL     1      48.065   8.194  18.414  0.00  0.00    +0.000 A 
ATOM     24  C   UNL     1      48.193   6.710  18.425  0.00  0.00    +0.000 C 
ATOM     25  N   UNL     1      47.823   8.874  19.582  0.00  0.00    +0.000 N 
ATOM     26  C   UNL     1      47.776  10.215  19.341  0.00  0.00    +0.000 A 
ATOM     27  N   UNL     1      47.562  11.153  20.280  0.00  0.00    +0.000 NA
ATOM     28  C   UNL     1      47.565  12.391  19.753  0.00  0.00    +0.000 A 
ATOM     29  N   UNL     1      47.750  12.747  18.467  0.00  0.00    +0.000 NA
ATOM     30  C   UNL     1      47.958  11.753  17.597  0.00  0.00    +0.000 A 
ATOM     31  C   UNL     1      47.986  10.420  17.989  0.00  0.00    +0.000 A 
ATOM     32  H   UNL     1      47.707   8.467  20.499  0.00  0.00    +0.000 HD
BRANCH  30  33
ATOM     33  O   UNL     1      48.162  12.163  16.312  0.00  0.00    +0.000 OA
ATOM     34  H   UNL     1      48.288  13.120  16.451  0.00  0.00    +0.000 HD
ENDBRANCH  30  33
ENDBRANCH  19  22
ENDBRANCH   1  18
TORSDOF 8
ENDMDL
