MODEL 1
REMARK VINA RESULT:    -8.446      0.000      0.000
REMARK INTER + INTRA:         -13.023
REMARK INTER:                 -12.149
REMARK INTRA:                  -0.875
REMARK UNBOUND:                -0.875
REMARK  Name = 
REMARK  8 active torsions:
REMARK  status: ('A' for Active; 'I' for Inactive)
REMARK    1  A    between atoms: N_1  and  C_2
REMARK    2  A    between atoms: C_2  and  C_3
REMARK    3  A    between atoms: C_2  and  C_24
REMARK    4  A    between atoms: C_3  and  C_4
REMARK    5  A    between atoms: C_7  and  C_8
REMARK    6  A    between atoms: C_8  and  N_9
REMARK    7  A    between atoms: C_10  and  C_12
REMARK    8  A    between atoms: C_24  and  C_26
REMARK                            x       y       z     vdW  Elec       q    Type
REMARK                         _______ _______ _______ _____ _____    ______ ____
ROOT
ATOM      1  C   UNL     1      45.553   4.765  12.021  0.00  0.00    +0.000 A 
ATOM      2  C   UNL     1      46.098   5.946  11.501  0.00  0.00    +0.000 A 
ATOM      3  C   UNL     1      47.100   6.631  12.196  0.00  0.00    +0.000 A 
ATOM      4  C   UNL     1      47.580   6.143  13.417  0.00  0.00    +0.000 A 
ATOM      5  C   UNL     1      47.004   4.986  13.956  0.00  0.00    +0.000 A 
ATOM      6  C   UNL     1      46.003   4.302  13.264  0.00  0.00    +0.000 A 
ENDROOT
BRANCH   1   7
ATOM      7  C   UNL     1      44.536   3.980  11.223  0.00  0.00    +0.000 C 
BRANCH   7   8
ATOM      8  C   UNL     1      44.731   4.022   9.692  0.00  0.00    +0.000 C 
BRANCH   8   9
ATOM      9  N   UNL     1      43.604   4.697   9.007  0.00  0.00    +0.000 NA
ATOM     10  H   UNL     1      43.731   5.705   9.054  0.00  0.00    +0.000 HD
ATOM     11  H   UNL     1      42.759   4.491   9.554  0.00  0.00    +0.000 HD
ENDBRANCH   8   9
BRANCH   8  12
ATOM     12  C   UNL     1      44.925   2.614   9.083  0.00  0.00    +0.000 C 
ATOM     13  O   UNL     1      44.321   1.630   9.520  0.00  0.00    +0.000 OA
BRANCH  12  14
ATOM     14  C   UNL     1      45.887   2.412   7.947  0.00  0.00    +0.000 A 
ATOM     15  C   UNL     1      46.105   3.367   6.947  0.00  0.00    +0.000 A 
ATOM     16  C   UNL     1      46.984   3.101   5.892  0.00  0.00    +0.000 A 
ATOM     17  C   UNL     1      47.676   1.893   5.839  0.00  0.00    +0.000 A 
ATOM     18  C   UNL     1      47.486   0.943   6.838  0.00  0.00    +0.000 A 
ATOM     19  C   UNL     1      46.588   1.195   7.879  0.00  0.00    +0.000 A 
ENDBRANCH  12  14
ENDBRANCH   8  12
ENDBRANCH   7   8
ENDBRANCH   1   7
BRANCH   4  20
ATOM     20  C   UNL     1      48.683   6.851  14.158  0.00  0.00    +0.000 C 
BRANCH  20  21
ATOM     21  N   UNL     1      48.356   7.007  15.551  0.00  0.00    +0.000 N 
ATOM     22  C   UNL     1      49.209   6.590  16.537  0.00  0.00    +0.000 C 
ATOM     23  O   UNL     1      50.298   6.078  16.288  0.00  0.00    +0.000 OA
ATOM     24  H   UNL     1      47.381   7.185  15.776  0.00  0.00    +0.000 HD
BRANCH  22  25
ATOM     25  C   UNL     1      48.782   6.847  17.916  0.00  0.00    +0.000 A 
ATOM     26  C   UNL     1      48.454   8.137  18.310  0.00  0.00    +0.000 A 
ATOM     27  S   UNL     1      47.953   8.250  19.935  0.00  0.00    +0.000 S 
ATOM     28  C   UNL     1      48.201   6.583  20.183  0.00  0.00    +0.000 A 
ATOM     29  N   UNL     1      47.987   6.018  21.405  0.00  0.00    +0.000 NA
ATOM     30  C   UNL     1      48.246   4.756  21.456  0.00  0.00    +0.000 A 
ATOM     31  N   UNL     1      48.683   4.002  20.399  0.00  0.00    +0.000 N 
ATOM     32  C   UNL     1      48.866   4.518  19.139  0.00  0.00    +0.000 A 
ATOM     33  O   UNL     1      49.185   3.803  18.198  0.00  0.00    +0.000 OA
ATOM     34  C   UNL     1      48.626   5.947  19.035  0.00  0.00    +0.000 A 
ATOM     35  H   UNL     1      48.846   3.010  20.498  0.00  0.00    +0.000 HD
ENDBRANCH  22  25
ENDBRANCH  20  21
ENDBRANCH   4  20
TORSDOF 8
ENDMDL
MODEL 2
REMARK VINA RESULT:    -8.317      2.076      2.343
REMARK INTER + INTRA:         -12.839
REMARK INTER:                 -11.926
REMARK INTRA:                  -0.912
REMARK UNBOUND:                -0.875
REMARK  Name = 
REMARK  8 active torsions:
REMARK  status: ('A' for Active; 'I' for Inactive)
REMARK    1  A    between atoms: N_1  and  C_2
REMARK    2  A    between atoms: C_2  and  C_3
REMARK    3  A    between atoms: C_2  and  C_24
REMARK    4  A    between atoms: C_3  and  C_4
REMARK    5  A    between atoms: C_7  and  C_8
REMARK    6  A    between atoms: C_8  and  N_9
REMARK    7  A    between atoms: C_10  and  C_12
REMARK    8  A    between atoms: C_24  and  C_26
REMARK                            x       y       z     vdW  Elec       q    Type
REMARK                         _______ _______ _______ _____ _____    ______ ____
ROOT
ATOM      1  C   UNL     1      44.915   5.622  10.857  0.00  0.00    +0.000 A 
ATOM      2  C   UNL     1      46.217   6.009  10.515  0.00  0.00    +0.000 A 
ATOM      3  C   UNL     1      46.947   6.859  11.350  0.00  0.00    +0.000 A 
ATOM      4  C   UNL     1      46.393   7.329  12.547  0.00  0.00    +0.000 A 
ATOM      5  C   UNL     1      45.076   6.975  12.867  0.00  0.00    +0.000 A 
ATOM      6  C   UNL     1      44.345   6.128  12.032  0.00  0.00    +0.000 A 
ENDROOT
BRANCH   1   7
ATOM      7  C   UNL     1      44.164   4.630   9.996  0.00  0.00    +0.000 C 
BRANCH   7   8
ATOM      8  C   UNL     1      44.210   3.168  10.490  0.00  0.00    +0.000 C 
BRANCH   8   9
ATOM      9  N   UNL     1      45.241   2.967  11.535  0.00  0.00    +0.000 NA
ATOM     10  H   UNL     1      46.103   2.641  11.105  0.00  0.00    +0.000 HD
ATOM     11  H   UNL     1      44.912   2.198  12.132  0.00  0.00    +0.000 HD
ENDBRANCH   8   9
BRANCH   8  12
ATOM     12  C   UNL     1      44.452   2.165   9.339  0.00  0.00    +0.000 C 
ATOM     13  O   UNL     1      43.736   1.171   9.182  0.00  0.00    +0.000 OA
BRANCH  12  14
ATOM     14  C   UNL     1      45.599   2.371   8.390  0.00  0.00    +0.000 A 
ATOM     15  C   UNL     1      45.891   3.606   7.798  0.00  0.00    +0.000 A 
ATOM     16  C   UNL     1      46.949   3.723   6.889  0.00  0.00    +0.000 A 
ATOM     17  C   UNL     1      47.742   2.619   6.585  0.00  0.00    +0.000 A 
ATOM     18  C   UNL     1      47.476   1.391   7.183  0.00  0.00    +0.000 A 
ATOM     19  C   UNL     1      46.404   1.264   8.071  0.00  0.00    +0.000 A 
ENDBRANCH  12  14
ENDBRANCH   8  12
ENDBRANCH   7   8
ENDBRANCH   1   7
BRANCH   4  20
ATOM     20  C   UNL     1      47.181   8.216  13.474  0.00  0.00    +0.000 C 
BRANCH  20  21
ATOM     21  N   UNL     1      47.582   7.503  14.659  0.00  0.00    +0.000 N 
ATOM     22  C   UNL     1      48.793   6.868  14.736  0.00  0.00    +0.000 C 
ATOM     23  O   UNL     1      49.601   6.885  13.811  0.00  0.00    +0.000 OA
ATOM     24  H   UNL     1      46.849   7.263  15.320  0.00  0.00    +0.000 HD
BRANCH  22  25
ATOM     25  C   UNL     1      49.103   6.217  16.013  0.00  0.00    +0.000 A 
ATOM     26  C   UNL     1      50.141   6.698  16.801  0.00  0.00    +0.000 A 
ATOM     27  S   UNL     1      50.345   5.843  18.261  0.00  0.00    +0.000 S 
ATOM     28  C   UNL     1      49.081   4.769  17.870  0.00  0.00    +0.000 A 
ATOM     29  N   UNL     1      48.752   3.743  18.704  0.00  0.00    +0.000 NA
ATOM     30  C   UNL     1      47.799   2.991  18.267  0.00  0.00    +0.000 A 
ATOM     31  N   UNL     1      47.135   3.177  17.084  0.00  0.00    +0.000 N 
ATOM     32  C   UNL     1      47.399   4.225  16.236  0.00  0.00    +0.000 A 
ATOM     33  O   UNL     1      46.736   4.406  15.223  0.00  0.00    +0.000 OA
ATOM     34  C   UNL     1      48.493   5.081  16.662  0.00  0.00    +0.000 A 
ATOM     35  H   UNL     1      46.379   2.565  16.808  0.00  0.00    +0.000 HD
ENDBRANCH  22  25
ENDBRANCH  20  21
ENDBRANCH   4  20
TORSDOF 8
ENDMDL
MODEL 3
REMARK VINA RESULT:    -8.219      1.276      2.248
REMARK INTER + INTRA:         -12.696
REMARK INTER:                 -11.632
REMARK INTRA:                  -1.064
REMARK UNBOUND:                -0.875
REMARK  Name = 
REMARK  8 active torsions:
REMARK  status: ('A' for Active; 'I' for Inactive)
REMARK    1  A    between atoms: N_1  and  C_2
REMARK    2  A    between atoms: C_2  and  C_3
REMARK    3  A    between atoms: C_2  and  C_24
REMARK    4  A    between atoms: C_3  and  C_4
REMARK    5  A    between atoms: C_7  and  C_8
REMARK    6  A    between atoms: C_8  and  N_9
REMARK    7  A    between atoms: C_10  and  C_12
REMARK    8  A    between atoms: C_24  and  C_26
REMARK                            x       y       z     vdW  Elec       q    Type
REMARK                         _______ _______ _______ _____ _____    ______ ____
ROOT
ATOM      1  C   UNL     1      45.674   4.600  12.308  0.00  0.00    +0.000 A 
ATOM      2  C   UNL     1      46.143   4.068  13.516  0.00  0.00    +0.000 A 
ATOM      3  C   UNL     1      47.071   4.771  14.289  0.00  0.00    +0.000 A 
ATOM      4  C   UNL     1      47.540   6.023  13.874  0.00  0.00    +0.000 A 
ATOM      5  C   UNL     1      47.104   6.535  12.646  0.00  0.00    +0.000 A 
ATOM      6  C   UNL     1      46.178   5.833  11.872  0.00  0.00    +0.000 A 
ENDROOT
BRANCH   1   7
ATOM      7  C   UNL     1      44.603   3.879  11.521  0.00  0.00    +0.000 C 
BRANCH   7   8
ATOM      8  C   UNL     1      44.701   4.035   9.988  0.00  0.00    +0.000 C 
BRANCH   8   9
ATOM      9  N   UNL     1      43.581   4.834   9.438  0.00  0.00    +0.000 NA
ATOM     10  H   UNL     1      43.418   4.570   8.469  0.00  0.00    +0.000 HD
ATOM     11  H   UNL     1      43.896   5.811   9.418  0.00  0.00    +0.000 HD
ENDBRANCH   8   9
BRANCH   8  12
ATOM     12  C   UNL     1      44.758   2.673   9.259  0.00  0.00    +0.000 C 
ATOM     13  O   UNL     1      44.010   1.740   9.567  0.00  0.00    +0.000 OA
BRANCH  12  14
ATOM     14  C   UNL     1      45.760   2.448   8.162  0.00  0.00    +0.000 A 
ATOM     15  C   UNL     1      46.452   1.243   7.991  0.00  0.00    +0.000 A 
ATOM     16  C   UNL     1      47.405   1.111   6.974  0.00  0.00    +0.000 A 
ATOM     17  C   UNL     1      47.654   2.167   6.102  0.00  0.00    +0.000 A 
ATOM     18  C   UNL     1      46.958   3.364   6.246  0.00  0.00    +0.000 A 
ATOM     19  C   UNL     1      46.026   3.508   7.277  0.00  0.00    +0.000 A 
ENDBRANCH  12  14
ENDBRANCH   8  12
ENDBRANCH   7   8
ENDBRANCH   1   7
BRANCH   4  20
ATOM     20  C   UNL     1      48.512   6.807  14.715  0.00  0.00    +0.000 C 
BRANCH  20  21
ATOM     21  N   UNL     1      48.305   6.558  16.118  0.00  0.00    +0.000 N 
ATOM     22  C   UNL     1      49.294   6.028  16.904  0.00  0.00    +0.000 C 
ATOM     23  O   UNL     1      50.406   5.754  16.461  0.00  0.00    +0.000 OA
ATOM     24  H   UNL     1      47.342   6.534  16.442  0.00  0.00    +0.000 HD
BRANCH  22  25
ATOM     25  C   UNL     1      48.974   5.866  18.326  0.00  0.00    +0.000 A 
ATOM     26  C   UNL     1      49.210   4.649  18.953  0.00  0.00    +0.000 A 
ATOM     27  S   UNL     1      48.808   4.645  20.610  0.00  0.00    +0.000 S 
ATOM     28  C   UNL     1      48.260   6.256  20.535  0.00  0.00    +0.000 A 
ATOM     29  N   UNL     1      47.737   6.868  21.635  0.00  0.00    +0.000 NA
ATOM     30  C   UNL     1      47.333   8.076  21.426  0.00  0.00    +0.000 A 
ATOM     31  N   UNL     1      47.416   8.732  20.228  0.00  0.00    +0.000 N 
ATOM     32  C   UNL     1      47.978   8.173  19.106  0.00  0.00    +0.000 A 
ATOM     33  O   UNL     1      48.104   8.812  18.070  0.00  0.00    +0.000 OA
ATOM     34  C   UNL     1      48.414   6.797  19.276  0.00  0.00    +0.000 A 
ATOM     35  H   UNL     1      47.101   9.689  20.134  0.00  0.00    +0.000 HD
ENDBRANCH  22  25
ENDBRANCH  20  21
ENDBRANCH   4  20
TORSDOF 8
ENDMDL
MODEL 4
REMARK VINA RESULT:    -8.061      2.474      3.108
REMARK INTER + INTRA:         -12.470
REMARK INTER:                 -11.021
REMARK INTRA:                  -1.449
REMARK UNBOUND:                -0.875
REMARK  Name = 
REMARK  8 active torsions:
REMARK  status: ('A' for Active; 'I' for Inactive)
REMARK    1  A    between atoms: N_1  and  C_2
REMARK    2  A    between atoms: C_2  and  C_3
REMARK    3  A    between atoms: C_2  and  C_24
REMARK    4  A    between atoms: C_3  and  C_4
REMARK    5  A    between atoms: C_7  and  C_8
REMARK    6  A    between atoms: C_8  and  N_9
REMARK    7  A    between atoms: C_10  and  C_12
REMARK    8  A    between atoms: C_24  and  C_26
REMARK                            x       y       z     vdW  Elec       q    Type
REMARK                         _______ _______ _______ _____ _____    ______ ____
ROOT
ATOM      1  C   UNL     1      45.310   6.028  12.866  0.00  0.00    +0.000 A 
ATOM      2  C   UNL     1      45.446   7.322  12.350  0.00  0.00    +0.000 A 
ATOM      3  C   UNL     1      46.705   7.926  12.269  0.00  0.00    +0.000 A 
ATOM      4  C   UNL     1      47.850   7.242  12.693  0.00  0.00    +0.000 A 
ATOM      5  C   UNL     1      47.707   5.964  13.248  0.00  0.00    +0.000 A 
ATOM      6  C   UNL     1      46.451   5.361  13.332  0.00  0.00    +0.000 A 
ENDROOT
BRANCH   1   7
ATOM      7  C   UNL     1      43.959   5.346  12.867  0.00  0.00    +0.000 C 
BRANCH   7   8
ATOM      8  C   UNL     1      43.328   5.141  11.473  0.00  0.00    +0.000 C 
BRANCH   8   9
ATOM      9  N   UNL     1      41.874   5.419  11.475  0.00  0.00    +0.000 NA
ATOM     10  H   UNL     1      41.499   5.282  10.540  0.00  0.00    +0.000 HD
ATOM     11  H   UNL     1      41.764   6.419  11.681  0.00  0.00    +0.000 HD
ENDBRANCH   8   9
BRANCH   8  12
ATOM     12  C   UNL     1      43.572   3.718  10.919  0.00  0.00    +0.000 C 
ATOM     13  O   UNL     1      43.005   2.730  11.395  0.00  0.00    +0.000 OA
BRANCH  12  14
ATOM     14  C   UNL     1      44.540   3.506   9.789  0.00  0.00    +0.000 A 
ATOM     15  C   UNL     1      45.151   4.557   9.096  0.00  0.00    +0.000 A 
ATOM     16  C   UNL     1      46.012   4.294   8.024  0.00  0.00    +0.000 A 
ATOM     17  C   UNL     1      46.294   2.981   7.654  0.00  0.00    +0.000 A 
ATOM     18  C   UNL     1      45.710   1.926   8.348  0.00  0.00    +0.000 A 
ATOM     19  C   UNL     1      44.829   2.186   9.402  0.00  0.00    +0.000 A 
ENDBRANCH  12  14
ENDBRANCH   8  12
ENDBRANCH   7   8
ENDBRANCH   1   7
BRANCH   4  20
ATOM     20  C   UNL     1      49.215   7.865  12.578  0.00  0.00    +0.000 C 
BRANCH  20  21
ATOM     21  N   UNL     1      50.130   7.291  13.530  0.00  0.00    +0.000 N 
ATOM     22  C   UNL     1      50.394   7.903  14.727  0.00  0.00    +0.000 C 
ATOM     23  O   UNL     1      49.857   8.957  15.056  0.00  0.00    +0.000 OA
ATOM     24  H   UNL     1      50.764   6.576  13.184  0.00  0.00    +0.000 HD
BRANCH  22  25
ATOM     25  C   UNL     1      51.307   7.194  15.629  0.00  0.00    +0.000 A 
ATOM     26  C   UNL     1      52.673   7.444  15.568  0.00  0.00    +0.000 A 
ATOM     27  S   UNL     1      53.582   6.556  16.704  0.00  0.00    +0.000 S 
ATOM     28  C   UNL     1      52.186   5.773  17.288  0.00  0.00    +0.000 A 
ATOM     29  N   UNL     1      52.272   4.833  18.272  0.00  0.00    +0.000 NA
ATOM     30  C   UNL     1      51.142   4.299  18.593  0.00  0.00    +0.000 A 
ATOM     31  N   UNL     1      49.935   4.627  18.035  0.00  0.00    +0.000 N 
ATOM     32  C   UNL     1      49.794   5.601  17.077  0.00  0.00    +0.000 A 
ATOM     33  O   UNL     1      48.692   5.922  16.652  0.00  0.00    +0.000 OA
ATOM     34  C   UNL     1      51.044   6.207  16.649  0.00  0.00    +0.000 A 
ATOM     35  H   UNL     1      49.080   4.187  18.347  0.00  0.00    +0.000 HD
ENDBRANCH  22  25
ENDBRANCH  20  21
ENDBRANCH   4  20
TORSDOF 8
ENDMDL
MODEL 5
REMARK VINA RESULT:    -8.043      3.078      4.754
REMARK INTER + INTRA:         -12.444
REMARK INTER:                 -11.827
REMARK INTRA:                  -0.617
REMARK UNBOUND:                -0.875
REMARK  Name = 
REMARK  8 active torsions:
REMARK  status: ('A' for Active; 'I' for Inactive)
REMARK    1  A    between atoms: N_1  and  C_2
REMARK    2  A    between atoms: C_2  and  C_3
REMARK    3  A    between atoms: C_2  and  C_24
REMARK    4  A    between atoms: C_3  and  C_4
REMARK    5  A    between atoms: C_7  and  C_8
REMARK    6  A    between atoms: C_8  and  N_9
REMARK    7  A    between atoms: C_10  and  C_12
REMARK    8  A    between atoms: C_24  and  C_26
REMARK                            x       y       z     vdW  Elec       q    Type
REMARK                         _______ _______ _______ _____ _____    ______ ____
ROOT
ATOM      1  C   UNL     1      45.701   3.324   7.992  0.00  0.00    +0.000 A 
ATOM      2  C   UNL     1      45.125   2.306   8.761  0.00  0.00    +0.000 A 
ATOM      3  C   UNL     1      44.683   2.564  10.063  0.00  0.00    +0.000 A 
ATOM      4  C   UNL     1      44.801   3.846  10.613  0.00  0.00    +0.000 A 
ATOM      5  C   UNL     1      45.416   4.852   9.858  0.00  0.00    +0.000 A 
ATOM      6  C   UNL     1      45.859   4.595   8.559  0.00  0.00    +0.000 A 
ENDROOT
BRANCH   1   7
ATOM      7  C   UNL     1      46.094   3.064   6.554  0.00  0.00    +0.000 C 
BRANCH   7   8
ATOM      8  C   UNL     1      46.696   1.667   6.283  0.00  0.00    +0.000 C 
BRANCH   8   9
ATOM      9  N   UNL     1      47.743   1.313   7.269  0.00  0.00    +0.000 NA
ATOM     10  H   UNL     1      47.354   0.684   7.968  0.00  0.00    +0.000 HD
ATOM     11  H   UNL     1      47.985   2.178   7.768  0.00  0.00    +0.000 HD
ENDBRANCH   8   9
BRANCH   8  12
ATOM     12  C   UNL     1      47.279   1.544   4.857  0.00  0.00    +0.000 C 
ATOM     13  O   UNL     1      48.236   2.230   4.485  0.00  0.00    +0.000 OA
BRANCH  12  14
ATOM     14  C   UNL     1      46.665   0.589   3.873  0.00  0.00    +0.000 A 
ATOM     15  C   UNL     1      45.744   0.982   2.895  0.00  0.00    +0.000 A 
ATOM     16  C   UNL     1      45.176   0.035   2.035  0.00  0.00    +0.000 A 
ATOM     17  C   UNL     1      45.543  -1.305   2.122  0.00  0.00    +0.000 A 
ATOM     18  C   UNL     1      46.475  -1.707   3.075  0.00  0.00    +0.000 A 
ATOM     19  C   UNL     1      47.024  -0.769   3.953  0.00  0.00    +0.000 A 
ENDBRANCH  12  14
ENDBRANCH   8  12
ENDBRANCH   7   8
ENDBRANCH   1   7
BRANCH   4  20
ATOM     20  C   UNL     1      44.296   4.146  12.000  0.00  0.00    +0.000 C 
BRANCH  20  21
ATOM     21  N   UNL     1      45.253   4.926  12.742  0.00  0.00    +0.000 N 
ATOM     22  C   UNL     1      46.302   4.336  13.396  0.00  0.00    +0.000 C 
ATOM     23  O   UNL     1      46.491   3.123  13.371  0.00  0.00    +0.000 OA
ATOM     24  H   UNL     1      44.981   5.874  12.986  0.00  0.00    +0.000 HD
BRANCH  22  25
ATOM     25  C   UNL     1      47.232   5.242  14.077  0.00  0.00    +0.000 A 
ATOM     26  C   UNL     1      47.838   6.273  13.370  0.00  0.00    +0.000 A 
ATOM     27  S   UNL     1      48.865   7.244  14.322  0.00  0.00    +0.000 S 
ATOM     28  C   UNL     1      48.571   6.293  15.704  0.00  0.00    +0.000 A 
ATOM     29  N   UNL     1      49.190   6.569  16.888  0.00  0.00    +0.000 NA
ATOM     30  C   UNL     1      48.899   5.748  17.840  0.00  0.00    +0.000 A 
ATOM     31  N   UNL     1      48.038   4.690  17.726  0.00  0.00    +0.000 N 
ATOM     32  C   UNL     1      47.356   4.402  16.568  0.00  0.00    +0.000 A 
ATOM     33  O   UNL     1      46.538   3.494  16.520  0.00  0.00    +0.000 OA
ATOM     34  C   UNL     1      47.678   5.273  15.450  0.00  0.00    +0.000 A 
ATOM     35  H   UNL     1      47.834   4.095  18.517  0.00  0.00    +0.000 HD
ENDBRANCH  22  25
ENDBRANCH  20  21
ENDBRANCH   4  20
TORSDOF 8
ENDMDL
MODEL 6
REMARK VINA RESULT:    -7.542      3.099      9.389
REMARK INTER + INTRA:         -11.723
REMARK INTER:                  -9.646
REMARK INTRA:                  -2.078
REMARK UNBOUND:                -0.875
REMARK  Name = 
REMARK  8 active torsions:
REMARK  status: ('A' for Active; 'I' for Inactive)
REMARK    1  A    between atoms: N_1  and  C_2
REMARK    2  A    between atoms: C_2  and  C_3
REMARK    3  A    between atoms: C_2  and  C_24
REMARK    4  A    between atoms: C_3  and  C_4
REMARK    5  A    between atoms: C_7  and  C_8
REMARK    6  A    between atoms: C_8  and  N_9
REMARK    7  A    between atoms: C_10  and  C_12
REMARK    8  A    between atoms: C_24  and  C_26
REMARK                            x       y       z     vdW  Elec       q    Type
REMARK                         _______ _______ _______ _____ _____    ______ ____
ROOT
ATOM      1  C   UNL     1      49.151   7.930  16.346  0.00  0.00    +0.000 A 
ATOM      2  C   UNL     1      48.306   8.915  15.821  0.00  0.00    +0.000 A 
ATOM      3  C   UNL     1      47.894   8.859  14.487  0.00  0.00    +0.000 A 
ATOM      4  C   UNL     1      48.310   7.812  13.657  0.00  0.00    +0.000 A 
ATOM      5  C   UNL     1      49.189   6.851  14.171  0.00  0.00    +0.000 A 
ATOM      6  C   UNL     1      49.604   6.906  15.502  0.00  0.00    +0.000 A 
ENDROOT
BRANCH   1   7
ATOM      7  C   UNL     1      49.521   7.945  17.813  0.00  0.00    +0.000 C 
BRANCH   7   8
ATOM      8  C   UNL     1      48.358   7.648  18.784  0.00  0.00    +0.000 C 
BRANCH   8   9
ATOM      9  N   UNL     1      48.278   8.646  19.876  0.00  0.00    +0.000 NA
ATOM     10  H   UNL     1      47.492   8.426  20.482  0.00  0.00    +0.000 HD
ATOM     11  H   UNL     1      48.055   9.548  19.437  0.00  0.00    +0.000 HD
ENDBRANCH   8   9
BRANCH   8  12
ATOM     12  C   UNL     1      48.448   6.232  19.397  0.00  0.00    +0.000 C 
ATOM     13  O   UNL     1      48.552   6.056  20.614  0.00  0.00    +0.000 OA
BRANCH  12  14
ATOM     14  C   UNL     1      48.438   5.024  18.503  0.00  0.00    +0.000 A 
ATOM     15  C   UNL     1      49.542   4.178  18.344  0.00  0.00    +0.000 A 
ATOM     16  C   UNL     1      49.482   3.092  17.463  0.00  0.00    +0.000 A 
ATOM     17  C   UNL     1      48.312   2.822  16.757  0.00  0.00    +0.000 A 
ATOM     18  C   UNL     1      47.199   3.641  16.923  0.00  0.00    +0.000 A 
ATOM     19  C   UNL     1      47.265   4.742  17.781  0.00  0.00    +0.000 A 
ENDBRANCH  12  14
ENDBRANCH   8  12
ENDBRANCH   7   8
ENDBRANCH   1   7
BRANCH   4  20
ATOM     20  C   UNL     1      47.845   7.719  12.228  0.00  0.00    +0.000 C 
BRANCH  20  21
ATOM     21  N   UNL     1      47.084   6.517  12.006  0.00  0.00    +0.000 N 
ATOM     22  C   UNL     1      45.718   6.506  12.108  0.00  0.00    +0.000 C 
ATOM     23  O   UNL     1      45.074   7.516  12.378  0.00  0.00    +0.000 OA
ATOM     24  H   UNL     1      47.595   5.639  12.036  0.00  0.00    +0.000 HD
BRANCH  22  25
ATOM     25  C   UNL     1      45.057   5.231  11.813  0.00  0.00    +0.000 A 
ATOM     26  C   UNL     1      44.344   4.575  12.809  0.00  0.00    +0.000 A 
ATOM     27  S   UNL     1      43.618   3.124  12.286  0.00  0.00    +0.000 S 
ATOM     28  C   UNL     1      44.269   3.299  10.722  0.00  0.00    +0.000 A 
ATOM     29  N   UNL     1      44.052   2.353   9.764  0.00  0.00    +0.000 NA
ATOM     30  C   UNL     1      44.631   2.599   8.638  0.00  0.00    +0.000 A 
ATOM     31  N   UNL     1      45.392   3.707   8.374  0.00  0.00    +0.000 N 
ATOM     32  C   UNL     1      45.597   4.709   9.292  0.00  0.00    +0.000 A 
ATOM     33  O   UNL     1      46.220   5.721   9.001  0.00  0.00    +0.000 OA
ATOM     34  C   UNL     1      44.999   4.462  10.593  0.00  0.00    +0.000 A 
ATOM     35  H   UNL     1      45.801   3.853   7.461  0.00  0.00    +0.000 HD
ENDBRANCH  22  25
ENDBRANCH  20  21
ENDBRANCH   4  20
TORSDOF 8
ENDMDL
MODEL 7
REMARK VINA RESULT:    -7.540      3.417      4.438
REMARK INTER + INTRA:         -11.720
REMARK INTER:                 -10.610
REMARK INTRA:                  -1.110
REMARK UNBOUND:                -0.875
REMARK  Name = 
REMARK  8 active torsions:
REMARK  status: ('A' for Active; 'I' for Inactive)
REMARK    1  A    between atoms: N_1  and  C_2
REMARK    2  A    between atoms: C_2  and  C_3
REMARK    3  A    between atoms: C_2  and  C_24
REMARK    4  A    between atoms: C_3  and  C_4
REMARK    5  A    between atoms: C_7  and  C_8
REMARK    6  A    between atoms: C_8  and  N_9
REMARK    7  A    between atoms: C_10  and  C_12
REMARK    8  A    between atoms: C_24  and  C_26
REMARK                            x       y       z     vdW  Elec       q    Type
REMARK                         _______ _______ _______ _____ _____    ______ ____
ROOT
ATOM      1  C   UNL     1      47.046   5.865  13.135  0.00  0.00    +0.000 A 
ATOM      2  C   UNL     1      47.925   6.603  13.937  0.00  0.00    +0.000 A 
ATOM      3  C   UNL     1      48.249   6.165  15.224  0.00  0.00    +0.000 A 
ATOM      4  C   UNL     1      47.708   4.976  15.728  0.00  0.00    +0.000 A 
ATOM      5  C   UNL     1      46.797   4.261  14.942  0.00  0.00    +0.000 A 
ATOM      6  C   UNL     1      46.471   4.699  13.657  0.00  0.00    +0.000 A 
ENDROOT
BRANCH   1   7
ATOM      7  C   UNL     1      46.770   6.294  11.711  0.00  0.00    +0.000 C 
BRANCH   7   8
ATOM      8  C   UNL     1      45.331   6.785  11.443  0.00  0.00    +0.000 C 
BRANCH   8   9
ATOM      9  N   UNL     1      44.784   7.553  12.586  0.00  0.00    +0.000 NA
ATOM     10  H   UNL     1      44.532   8.489  12.279  0.00  0.00    +0.000 HD
ATOM     11  H   UNL     1      45.552   7.671  13.258  0.00  0.00    +0.000 HD
ENDBRANCH   8   9
BRANCH   8  12
ATOM     12  C   UNL     1      44.367   5.626  11.103  0.00  0.00    +0.000 C 
ATOM     13  O   UNL     1      43.258   5.526  11.636  0.00  0.00    +0.000 OA
BRANCH  12  14
ATOM     14  C   UNL     1      44.780   4.568  10.119  0.00  0.00    +0.000 A 
ATOM     15  C   UNL     1      45.479   4.850   8.938  0.00  0.00    +0.000 A 
ATOM     16  C   UNL     1      45.798   3.824   8.042  0.00  0.00    +0.000 A 
ATOM     17  C   UNL     1      45.451   2.506   8.327  0.00  0.00    +0.000 A 
ATOM     18  C   UNL     1      44.775   2.208   9.507  0.00  0.00    +0.000 A 
ATOM     19  C   UNL     1      44.431   3.234  10.392  0.00  0.00    +0.000 A 
ENDBRANCH  12  14
ENDBRANCH   8  12
ENDBRANCH   7   8
ENDBRANCH   1   7
BRANCH   4  20
ATOM     20  C   UNL     1      48.077   4.474  17.099  0.00  0.00    +0.000 C 
BRANCH  20  21
ATOM     21  N   UNL     1      49.477   4.147  17.174  0.00  0.00    +0.000 N 
ATOM     22  C   UNL     1      50.191   4.322  18.329  0.00  0.00    +0.000 C 
ATOM     23  O   UNL     1      49.676   4.750  19.359  0.00  0.00    +0.000 OA
ATOM     24  H   UNL     1      49.970   4.039  16.293  0.00  0.00    +0.000 HD
BRANCH  22  25
ATOM     25  C   UNL     1      51.597   3.909  18.291  0.00  0.00    +0.000 A 
ATOM     26  C   UNL     1      52.592   4.799  18.674  0.00  0.00    +0.000 A 
ATOM     27  S   UNL     1      54.164   4.145  18.594  0.00  0.00    +0.000 S 
ATOM     28  C   UNL     1      53.574   2.661  18.001  0.00  0.00    +0.000 A 
ATOM     29  N   UNL     1      54.427   1.647  17.682  0.00  0.00    +0.000 NA
ATOM     30  C   UNL     1      53.845   0.595  17.215  0.00  0.00    +0.000 A 
ATOM     31  N   UNL     1      52.493   0.455  17.050  0.00  0.00    +0.000 N 
ATOM     32  C   UNL     1      51.592   1.432  17.403  0.00  0.00    +0.000 A 
ATOM     33  O   UNL     1      50.386   1.247  17.313  0.00  0.00    +0.000 OA
ATOM     34  C   UNL     1      52.198   2.656  17.898  0.00  0.00    +0.000 A 
ATOM     35  H   UNL     1      52.095  -0.406  16.699  0.00  0.00    +0.000 HD
ENDBRANCH  22  25
ENDBRANCH  20  21
ENDBRANCH   4  20
TORSDOF 8
ENDMDL
MODEL 8
REMARK VINA RESULT:    -7.402      3.924      9.250
REMARK INTER + INTRA:         -11.522
REMARK INTER:                  -8.910
REMARK INTRA:                  -2.612
REMARK UNBOUND:                -0.875
REMARK  Name = 
REMARK  8 active torsions:
REMARK  status: ('A' for Active; 'I' for Inactive)
REMARK    1  A    between atoms: N_1  and  C_2
REMARK    2  A    between atoms: C_2  and  C_3
REMARK    3  A    between atoms: C_2  and  C_24
REMARK    4  A    between atoms: C_3  and  C_4
REMARK    5  A    between atoms: C_7  and  C_8
REMARK    6  A    between atoms: C_8  and  N_9
REMARK    7  A    between atoms: C_10  and  C_12
REMARK    8  A    between atoms: C_24  and  C_26
REMARK                            x       y       z     vdW  Elec       q    Type
REMARK                         _______ _______ _______ _____ _____    ______ ____
ROOT
ATOM      1  C   UNL     1      49.781   7.440  18.477  0.00  0.00    +0.000 A 
ATOM      2  C   UNL     1      48.747   8.359  18.264  0.00  0.00    +0.000 A 
ATOM      3  C   UNL     1      48.347   8.691  16.966  0.00  0.00    +0.000 A 
ATOM      4  C   UNL     1      48.966   8.100  15.859  0.00  0.00    +0.000 A 
ATOM      5  C   UNL     1      50.029   7.213  16.071  0.00  0.00    +0.000 A 
ATOM      6  C   UNL     1      50.431   6.883  17.367  0.00  0.00    +0.000 A 
ENDROOT
BRANCH   1   7
ATOM      7  C   UNL     1      50.150   7.017  19.882  0.00  0.00    +0.000 C 
BRANCH   7   8
ATOM      8  C   UNL     1      48.961   6.581  20.766  0.00  0.00    +0.000 C 
BRANCH   8   9
ATOM      9  N   UNL     1      49.217   6.832  22.203  0.00  0.00    +0.000 NA
ATOM     10  H   UNL     1      49.321   7.831  22.362  0.00  0.00    +0.000 HD
ATOM     11  H   UNL     1      50.131   6.413  22.419  0.00  0.00    +0.000 HD
ENDBRANCH   8   9
BRANCH   8  12
ATOM     12  C   UNL     1      48.594   5.093  20.568  0.00  0.00    +0.000 C 
ATOM     13  O   UNL     1      48.441   4.329  21.526  0.00  0.00    +0.000 OA
BRANCH  12  14
ATOM     14  C   UNL     1      48.440   4.534  19.182  0.00  0.00    +0.000 A 
ATOM     15  C   UNL     1      49.337   3.617  18.621  0.00  0.00    +0.000 A 
ATOM     16  C   UNL     1      49.161   3.166  17.307  0.00  0.00    +0.000 A 
ATOM     17  C   UNL     1      48.075   3.602  16.553  0.00  0.00    +0.000 A 
ATOM     18  C   UNL     1      47.163   4.496  17.106  0.00  0.00    +0.000 A 
ATOM     19  C   UNL     1      47.350   4.969  18.407  0.00  0.00    +0.000 A 
ENDBRANCH  12  14
ENDBRANCH   8  12
ENDBRANCH   7   8
ENDBRANCH   1   7
BRANCH   4  20
ATOM     20  C   UNL     1      48.521   8.421  14.456  0.00  0.00    +0.000 C 
BRANCH  20  21
ATOM     21  N   UNL     1      47.467   7.537  14.032  0.00  0.00    +0.000 N 
ATOM     22  C   UNL     1      47.724   6.437  13.257  0.00  0.00    +0.000 C 
ATOM     23  O   UNL     1      48.861   6.140  12.899  0.00  0.00    +0.000 OA
ATOM     24  H   UNL     1      46.517   7.892  14.095  0.00  0.00    +0.000 HD
BRANCH  22  25
ATOM     25  C   UNL     1      46.572   5.591  12.930  0.00  0.00    +0.000 A 
ATOM     26  C   UNL     1      46.621   4.226  13.184  0.00  0.00    +0.000 A 
ATOM     27  S   UNL     1      45.189   3.401  12.769  0.00  0.00    +0.000 S 
ATOM     28  C   UNL     1      44.469   4.833  12.191  0.00  0.00    +0.000 A 
ATOM     29  N   UNL     1      43.218   4.817  11.649  0.00  0.00    +0.000 NA
ATOM     30  C   UNL     1      42.812   5.965  11.224  0.00  0.00    +0.000 A 
ATOM     31  N   UNL     1      43.530   7.128  11.303  0.00  0.00    +0.000 N 
ATOM     32  C   UNL     1      44.773   7.201  11.885  0.00  0.00    +0.000 A 
ATOM     33  O   UNL     1      45.357   8.270  12.007  0.00  0.00    +0.000 OA
ATOM     34  C   UNL     1      45.295   5.926  12.345  0.00  0.00    +0.000 A 
ATOM     35  H   UNL     1      43.146   8.003  10.972  0.00  0.00    +0.000 HD
ENDBRANCH  22  25
ENDBRANCH  20  21
ENDBRANCH   4  20
TORSDOF 8
ENDMDL
MODEL 9
REMARK VINA RESULT:    -7.398      2.050      3.215
REMARK INTER + INTRA:         -11.516
REMARK INTER:                 -10.663
REMARK INTRA:                  -0.853
REMARK UNBOUND:                -0.875
REMARK  Name = 
REMARK  8 active torsions:
REMARK  status: ('A' for Active; 'I' for Inactive)
REMARK    1  A    between atoms: N_1  and  C_2
REMARK    2  A    between atoms: C_2  and  C_3
REMARK    3  A    between atoms: C_2  and  C_24
REMARK    4  A    between atoms: C_3  and  C_4
REMARK    5  A    between atoms: C_7  and  C_8
REMARK    6  A    between atoms: C_8  and  N_9
REMARK    7  A    between atoms: C_10  and  C_12
REMARK    8  A    between atoms: C_24  and  C_26
REMARK                            x       y       z     vdW  Elec       q    Type
REMARK                         _______ _______ _______ _____ _____    ______ ____
ROOT
ATOM      1  C   UNL     1      46.512   5.707  12.433  0.00  0.00    +0.000 A 
ATOM      2  C   UNL     1      47.284   6.595  13.192  0.00  0.00    +0.000 A 
ATOM      3  C   UNL     1      47.719   6.241  14.473  0.00  0.00    +0.000 A 
ATOM      4  C   UNL     1      47.399   4.990  15.012  0.00  0.00    +0.000 A 
ATOM      5  C   UNL     1      46.591   4.120  14.270  0.00  0.00    +0.000 A 
ATOM      6  C   UNL     1      46.154   4.473  12.992  0.00  0.00    +0.000 A 
ENDROOT
BRANCH   1   7
ATOM      7  C   UNL     1      46.120   6.058  11.015  0.00  0.00    +0.000 C 
BRANCH   7   8
ATOM      8  C   UNL     1      44.610   5.953  10.708  0.00  0.00    +0.000 C 
BRANCH   8   9
ATOM      9  N   UNL     1      43.779   6.359  11.864  0.00  0.00    +0.000 NA
ATOM     10  H   UNL     1      43.519   7.338  11.771  0.00  0.00    +0.000 HD
ATOM     11  H   UNL     1      44.380   6.302  12.696  0.00  0.00    +0.000 HD
ENDBRANCH   8   9
BRANCH   8  12
ATOM     12  C   UNL     1      44.198   4.532  10.260  0.00  0.00    +0.000 C 
ATOM     13  O   UNL     1      43.197   3.972  10.717  0.00  0.00    +0.000 OA
BRANCH  12  14
ATOM     14  C   UNL     1      45.037   3.785   9.262  0.00  0.00    +0.000 A 
ATOM     15  C   UNL     1      45.721   4.411   8.213  0.00  0.00    +0.000 A 
ATOM     16  C   UNL     1      46.452   3.654   7.291  0.00  0.00    +0.000 A 
ATOM     17  C   UNL     1      46.532   2.270   7.423  0.00  0.00    +0.000 A 
ATOM     18  C   UNL     1      45.875   1.636   8.474  0.00  0.00    +0.000 A 
ATOM     19  C   UNL     1      45.122   2.386   9.381  0.00  0.00    +0.000 A 
ENDBRANCH  12  14
ENDBRANCH   8  12
ENDBRANCH   7   8
ENDBRANCH   1   7
BRANCH   4  20
ATOM     20  C   UNL     1      47.891   4.582  16.376  0.00  0.00    +0.000 C 
BRANCH  20  21
ATOM     21  N   UNL     1      47.599   5.593  17.358  0.00  0.00    +0.000 N 
ATOM     22  C   UNL     1      48.594   6.330  17.943  0.00  0.00    +0.000 C 
ATOM     23  O   UNL     1      49.777   6.180  17.652  0.00  0.00    +0.000 OA
ATOM     24  H   UNL     1      46.681   5.559  17.792  0.00  0.00    +0.000 HD
BRANCH  22  25
ATOM     25  C   UNL     1      48.163   7.360  18.894  0.00  0.00    +0.000 A 
ATOM     26  C   UNL     1      47.958   7.030  20.227  0.00  0.00    +0.000 A 
ATOM     27  S   UNL     1      47.488   8.352  21.195  0.00  0.00    +0.000 S 
ATOM     28  C   UNL     1      47.498   9.404  19.856  0.00  0.00    +0.000 A 
ATOM     29  N   UNL     1      47.145  10.714  19.993  0.00  0.00    +0.000 NA
ATOM     30  C   UNL     1      47.168  11.385  18.891  0.00  0.00    +0.000 A 
ATOM     31  N   UNL     1      47.523  10.876  17.671  0.00  0.00    +0.000 N 
ATOM     32  C   UNL     1      47.931   9.576  17.494  0.00  0.00    +0.000 A 
ATOM     33  O   UNL     1      48.314   9.172  16.404  0.00  0.00    +0.000 OA
ATOM     34  C   UNL     1      47.887   8.764  18.697  0.00  0.00    +0.000 A 
ATOM     35  H   UNL     1      47.542  11.461  16.847  0.00  0.00    +0.000 HD
ENDBRANCH  22  25
ENDBRANCH  20  21
ENDBRANCH   4  20
TORSDOF 8
ENDMDL
