MODEL 1
REMARK VINA RESULT:    -8.349      0.000      0.000
REMARK INTER + INTRA:         -11.824
REMARK INTER:                 -10.789
REMARK INTRA:                  -1.035
REMARK UNBOUND:                -1.035
REMARK  Name = 
REMARK  5 active torsions:
REMARK  status: ('A' for Active; 'I' for Inactive)
REMARK    1  A    between atoms: C_2  and  C_18
REMARK    2  A    between atoms: N_3  and  C_4
REMARK    3  A    between atoms: C_4  and  C_5
REMARK    4  A    between atoms: C_8  and  C_9
REMARK    5  A    between atoms: C_9  and  C_10
REMARK                            x       y       z     vdW  Elec       q    Type
REMARK                         _______ _______ _______ _____ _____    ______ ____
ROOT
ATOM      1  O   UNL     1      44.962   2.878  12.538  0.00  0.00    +0.000 OA
ATOM      2  C   UNL     1      45.282   3.858  11.871  0.00  0.00    +0.000 C 
ATOM      3  N   UNL     1      45.083   3.927  10.517  0.00  0.00    +0.000 N 
ATOM      4  H   UNL     1      45.522   4.670   9.986  0.00  0.00    +0.000 HD
ENDROOT
BRANCH   2   5
ATOM      5  C   UNL     1      45.858   5.052  12.499  0.00  0.00    +0.000 A 
ATOM      6  C   UNL     1      46.987   4.936  13.298  0.00  0.00    +0.000 A 
ATOM      7  S   UNL     1      47.533   6.424  13.927  0.00  0.00    +0.000 S 
ATOM      8  C   UNL     1      46.301   7.278  13.125  0.00  0.00    +0.000 A 
ATOM      9  N   UNL     1      46.219   8.636  13.206  0.00  0.00    +0.000 NA
ATOM     10  C   UNL     1      45.264   9.154  12.512  0.00  0.00    +0.000 A 
ATOM     11  N   UNL     1      44.369   8.440  11.756  0.00  0.00    +0.000 N 
ATOM     12  C   UNL     1      44.356   7.068  11.717  0.00  0.00    +0.000 A 
ATOM     13  O   UNL     1      43.447   6.457  11.165  0.00  0.00    +0.000 OA
ATOM     14  C   UNL     1      45.458   6.435  12.424  0.00  0.00    +0.000 A 
ATOM     15  H   UNL     1      43.615   8.905  11.272  0.00  0.00    +0.000 HD
ENDBRANCH   2   5
BRANCH   3  16
ATOM     16  C   UNL     1      44.575   2.817   9.752  0.00  0.00    +0.000 C 
BRANCH  16  17
ATOM     17  C   UNL     1      45.425   2.540   8.540  0.00  0.00    +0.000 A 
ATOM     18  C   UNL     1      46.052   1.296   8.391  0.00  0.00    +0.000 A 
ATOM     19  C   UNL     1      46.807   1.012   7.252  0.00  0.00    +0.000 A 
ATOM     20  C   UNL     1      46.965   1.972   6.243  0.00  0.00    +0.000 A 
ATOM     21  C   UNL     1      46.366   3.228   6.408  0.00  0.00    +0.000 A 
ATOM     22  C   UNL     1      45.612   3.513   7.551  0.00  0.00    +0.000 A 
BRANCH  20  23
ATOM     23  C   UNL     1      47.732   1.642   4.982  0.00  0.00    +0.000 C 
BRANCH  23  24
ATOM     24  C   UNL     1      46.937   0.809   4.005  0.00  0.00    +0.000 A 
ATOM     25  C   UNL     1      45.985   1.399   3.168  0.00  0.00    +0.000 A 
ATOM     26  C   UNL     1      45.233   0.584   2.335  0.00  0.00    +0.000 A 
ATOM     27  N   UNL     1      45.367  -0.757   2.273  0.00  0.00    +0.000 NA
ATOM     28  C   UNL     1      46.294  -1.308   3.083  0.00  0.00    +0.000 A 
ATOM     29  C   UNL     1      47.094  -0.579   3.951  0.00  0.00    +0.000 A 
ENDBRANCH  23  24
ENDBRANCH  20  23
ENDBRANCH  16  17
ENDBRANCH   3  16
TORSDOF 5
ENDMDL
MODEL 2
REMARK VINA RESULT:    -8.104      3.122      5.075
REMARK INTER + INTRA:         -11.508
REMARK INTER:                 -10.679
REMARK INTRA:                  -0.828
REMARK UNBOUND:                -1.035
REMARK  Name = 
REMARK  5 active torsions:
REMARK  status: ('A' for Active; 'I' for Inactive)
REMARK    1  A    between atoms: C_2  and  C_18
REMARK    2  A    between atoms: N_3  and  C_4
REMARK    3  A    between atoms: C_4  and  C_5
REMARK    4  A    between atoms: C_8  and  C_9
REMARK    5  A    between atoms: C_9  and  C_10
REMARK                            x       y       z     vdW  Elec       q    Type
REMARK                         _______ _______ _______ _____ _____    ______ ____
ROOT
ATOM      1  O   UNL     1      48.286   7.512  12.700  0.00  0.00    +0.000 OA
ATOM      2  C   UNL     1      47.636   7.012  13.615  0.00  0.00    +0.000 C 
ATOM      3  N   UNL     1      46.277   6.851  13.552  0.00  0.00    +0.000 N 
ATOM      4  H   UNL     1      45.766   6.604  14.392  0.00  0.00    +0.000 HD
ENDROOT
BRANCH   2   5
ATOM      5  C   UNL     1      48.291   6.505  14.825  0.00  0.00    +0.000 A 
ATOM      6  C   UNL     1      49.336   7.219  15.397  0.00  0.00    +0.000 A 
ATOM      7  S   UNL     1      49.963   6.496  16.808  0.00  0.00    +0.000 S 
ATOM      8  C   UNL     1      48.837   5.225  16.724  0.00  0.00    +0.000 A 
ATOM      9  N   UNL     1      48.797   4.258  17.683  0.00  0.00    +0.000 NA
ATOM     10  C   UNL     1      47.864   3.382  17.517  0.00  0.00    +0.000 A 
ATOM     11  N   UNL     1      46.976   3.373  16.472  0.00  0.00    +0.000 N 
ATOM     12  C   UNL     1      47.036   4.273  15.437  0.00  0.00    +0.000 A 
ATOM     13  O   UNL     1      46.335   4.141  14.439  0.00  0.00    +0.000 OA
ATOM     14  C   UNL     1      48.024   5.326  15.611  0.00  0.00    +0.000 A 
ATOM     15  H   UNL     1      46.298   2.632  16.377  0.00  0.00    +0.000 HD
ENDBRANCH   2   5
BRANCH   3  16
ATOM     16  C   UNL     1      45.489   7.344  12.453  0.00  0.00    +0.000 C 
BRANCH  16  17
ATOM     17  C   UNL     1      45.276   6.286  11.402  0.00  0.00    +0.000 A 
ATOM     18  C   UNL     1      44.226   5.368  11.531  0.00  0.00    +0.000 A 
ATOM     19  C   UNL     1      43.992   4.410  10.543  0.00  0.00    +0.000 A 
ATOM     20  C   UNL     1      44.813   4.340   9.409  0.00  0.00    +0.000 A 
ATOM     21  C   UNL     1      45.883   5.238   9.295  0.00  0.00    +0.000 A 
ATOM     22  C   UNL     1      46.120   6.194  10.288  0.00  0.00    +0.000 A 
BRANCH  20  23
ATOM     23  C   UNL     1      44.521   3.343   8.309  0.00  0.00    +0.000 C 
BRANCH  23  24
ATOM     24  C   UNL     1      45.769   2.729   7.720  0.00  0.00    +0.000 A 
ATOM     25  C   UNL     1      46.481   3.382   6.709  0.00  0.00    +0.000 A 
ATOM     26  C   UNL     1      47.582   2.749   6.153  0.00  0.00    +0.000 A 
ATOM     27  N   UNL     1      48.023   1.532   6.535  0.00  0.00    +0.000 NA
ATOM     28  C   UNL     1      47.328   0.920   7.516  0.00  0.00    +0.000 A 
ATOM     29  C   UNL     1      46.213   1.470   8.132  0.00  0.00    +0.000 A 
ENDBRANCH  23  24
ENDBRANCH  20  23
ENDBRANCH  16  17
ENDBRANCH   3  16
TORSDOF 5
ENDMDL
MODEL 3
REMARK VINA RESULT:    -7.851      1.317      2.232
REMARK INTER + INTRA:         -11.181
REMARK INTER:                 -10.473
REMARK INTRA:                  -0.708
REMARK UNBOUND:                -1.035
REMARK  Name = 
REMARK  5 active torsions:
REMARK  status: ('A' for Active; 'I' for Inactive)
REMARK    1  A    between atoms: C_2  and  C_18
REMARK    2  A    between atoms: N_3  and  C_4
REMARK    3  A    between atoms: C_4  and  C_5
REMARK    4  A    between atoms: C_8  and  C_9
REMARK    5  A    between atoms: C_9  and  C_10
REMARK                            x       y       z     vdW  Elec       q    Type
REMARK                         _______ _______ _______ _____ _____    ______ ____
ROOT
ATOM      1  O   UNL     1      45.012   3.682  12.673  0.00  0.00    +0.000 OA
ATOM      2  C   UNL     1      45.121   4.508  11.771  0.00  0.00    +0.000 C 
ATOM      3  N   UNL     1      44.940   4.188  10.451  0.00  0.00    +0.000 N 
ATOM      4  H   UNL     1      45.215   4.851   9.736  0.00  0.00    +0.000 HD
ENDROOT
BRANCH   2   5
ATOM      5  C   UNL     1      45.404   5.918  12.059  0.00  0.00    +0.000 A 
ATOM      6  C   UNL     1      44.640   6.912  11.463  0.00  0.00    +0.000 A 
ATOM      7  S   UNL     1      45.092   8.490  11.927  0.00  0.00    +0.000 S 
ATOM      8  C   UNL     1      46.299   7.897  12.968  0.00  0.00    +0.000 A 
ATOM      9  N   UNL     1      47.051   8.743  13.726  0.00  0.00    +0.000 NA
ATOM     10  C   UNL     1      47.896   8.154  14.503  0.00  0.00    +0.000 A 
ATOM     11  N   UNL     1      48.074   6.797  14.579  0.00  0.00    +0.000 N 
ATOM     12  C   UNL     1      47.405   5.912  13.770  0.00  0.00    +0.000 A 
ATOM     13  O   UNL     1      47.703   4.722  13.748  0.00  0.00    +0.000 OA
ATOM     14  C   UNL     1      46.387   6.518  12.928  0.00  0.00    +0.000 A 
ATOM     15  H   UNL     1      48.787   6.402  15.175  0.00  0.00    +0.000 HD
ENDBRANCH   2   5
BRANCH   3  16
ATOM     16  C   UNL     1      44.707   2.837  10.007  0.00  0.00    +0.000 C 
BRANCH  16  17
ATOM     17  C   UNL     1      45.420   2.547   8.713  0.00  0.00    +0.000 A 
ATOM     18  C   UNL     1      45.552   3.549   7.743  0.00  0.00    +0.000 A 
ATOM     19  C   UNL     1      46.248   3.306   6.557  0.00  0.00    +0.000 A 
ATOM     20  C   UNL     1      46.816   2.048   6.309  0.00  0.00    +0.000 A 
ATOM     21  C   UNL     1      46.656   1.036   7.265  0.00  0.00    +0.000 A 
ATOM     22  C   UNL     1      45.955   1.280   8.451  0.00  0.00    +0.000 A 
BRANCH  20  23
ATOM     23  C   UNL     1      47.622   1.803   5.053  0.00  0.00    +0.000 C 
BRANCH  23  24
ATOM     24  C   UNL     1      46.928   0.888   4.073  0.00  0.00    +0.000 A 
ATOM     25  C   UNL     1      45.999   1.390   3.157  0.00  0.00    +0.000 A 
ATOM     26  C   UNL     1      45.339   0.501   2.322  0.00  0.00    +0.000 A 
ATOM     27  N   UNL     1      45.545  -0.832   2.328  0.00  0.00    +0.000 NA
ATOM     28  C   UNL     1      46.450  -1.298   3.214  0.00  0.00    +0.000 A 
ATOM     29  C   UNL     1      47.159  -0.491   4.091  0.00  0.00    +0.000 A 
ENDBRANCH  23  24
ENDBRANCH  20  23
ENDBRANCH  16  17
ENDBRANCH   3  16
TORSDOF 5
ENDMDL
MODEL 4
REMARK VINA RESULT:    -7.808      3.458      5.625
REMARK INTER + INTRA:         -11.125
REMARK INTER:                 -10.678
REMARK INTRA:                  -0.447
REMARK UNBOUND:                -1.035
REMARK  Name = 
REMARK  5 active torsions:
REMARK  status: ('A' for Active; 'I' for Inactive)
REMARK    1  A    between atoms: C_2  and  C_18
REMARK    2  A    between atoms: N_3  and  C_4
REMARK    3  A    between atoms: C_4  and  C_5
REMARK    4  A    between atoms: C_8  and  C_9
REMARK    5  A    between atoms: C_9  and  C_10
REMARK                            x       y       z     vdW  Elec       q    Type
REMARK                         _______ _______ _______ _____ _____    ______ ____
ROOT
ATOM      1  O   UNL     1      49.075   7.026  13.562  0.00  0.00    +0.000 OA
ATOM      2  C   UNL     1      48.201   6.701  14.361  0.00  0.00    +0.000 C 
ATOM      3  N   UNL     1      46.872   6.672  14.030  0.00  0.00    +0.000 N 
ATOM      4  H   UNL     1      46.178   6.575  14.763  0.00  0.00    +0.000 HD
ENDROOT
BRANCH   2   5
ATOM      5  C   UNL     1      48.536   6.268  15.722  0.00  0.00    +0.000 A 
ATOM      6  C   UNL     1      49.202   7.135  16.578  0.00  0.00    +0.000 A 
ATOM      7  S   UNL     1      49.490   6.478  18.125  0.00  0.00    +0.000 S 
ATOM      8  C   UNL     1      48.704   5.027  17.715  0.00  0.00    +0.000 A 
ATOM      9  N   UNL     1      48.555   4.026  18.628  0.00  0.00    +0.000 NA
ATOM     10  C   UNL     1      47.900   3.003  18.194  0.00  0.00    +0.000 A 
ATOM     11  N   UNL     1      47.394   2.878  16.926  0.00  0.00    +0.000 N 
ATOM     12  C   UNL     1      47.598   3.819  15.947  0.00  0.00    +0.000 A 
ATOM     13  O   UNL     1      47.274   3.605  14.783  0.00  0.00    +0.000 OA
ATOM     14  C   UNL     1      48.268   5.026  16.403  0.00  0.00    +0.000 A 
ATOM     15  H   UNL     1      46.929   2.030  16.635  0.00  0.00    +0.000 HD
ENDBRANCH   2   5
BRANCH   3  16
ATOM     16  C   UNL     1      46.383   7.117  12.750  0.00  0.00    +0.000 C 
BRANCH  16  17
ATOM     17  C   UNL     1      45.879   5.967  11.918  0.00  0.00    +0.000 A 
ATOM     18  C   UNL     1      45.784   6.096  10.526  0.00  0.00    +0.000 A 
ATOM     19  C   UNL     1      45.360   5.025   9.739  0.00  0.00    +0.000 A 
ATOM     20  C   UNL     1      45.006   3.803  10.328  0.00  0.00    +0.000 A 
ATOM     21  C   UNL     1      45.070   3.685  11.723  0.00  0.00    +0.000 A 
ATOM     22  C   UNL     1      45.491   4.760  12.512  0.00  0.00    +0.000 A 
BRANCH  20  23
ATOM     23  C   UNL     1      44.606   2.623   9.470  0.00  0.00    +0.000 C 
BRANCH  23  24
ATOM     24  C   UNL     1      45.551   2.381   8.317  0.00  0.00    +0.000 A 
ATOM     25  C   UNL     1      46.279   1.191   8.224  0.00  0.00    +0.000 A 
ATOM     26  C   UNL     1      47.183   1.042   7.183  0.00  0.00    +0.000 A 
ATOM     27  N   UNL     1      47.403   1.979   6.237  0.00  0.00    +0.000 NA
ATOM     28  C   UNL     1      46.687   3.118   6.340  0.00  0.00    +0.000 A 
ATOM     29  C   UNL     1      45.761   3.362   7.344  0.00  0.00    +0.000 A 
ENDBRANCH  23  24
ENDBRANCH  20  23
ENDBRANCH  16  17
ENDBRANCH   3  16
TORSDOF 5
ENDMDL
MODEL 5
REMARK VINA RESULT:    -7.756      3.107      4.683
REMARK INTER + INTRA:         -11.058
REMARK INTER:                 -10.991
REMARK INTRA:                  -0.067
REMARK UNBOUND:                -1.035
REMARK  Name = 
REMARK  5 active torsions:
REMARK  status: ('A' for Active; 'I' for Inactive)
REMARK    1  A    between atoms: C_2  and  C_18
REMARK    2  A    between atoms: N_3  and  C_4
REMARK    3  A    between atoms: C_4  and  C_5
REMARK    4  A    between atoms: C_8  and  C_9
REMARK    5  A    between atoms: C_9  and  C_10
REMARK                            x       y       z     vdW  Elec       q    Type
REMARK                         _______ _______ _______ _____ _____    ______ ____
ROOT
ATOM      1  O   UNL     1      46.827   3.180  13.744  0.00  0.00    +0.000 OA
ATOM      2  C   UNL     1      46.542   4.316  14.110  0.00  0.00    +0.000 C 
ATOM      3  N   UNL     1      45.345   4.911  13.809  0.00  0.00    +0.000 N 
ATOM      4  H   UNL     1      45.226   5.904  13.974  0.00  0.00    +0.000 HD
ENDROOT
BRANCH   2   5
ATOM      5  C   UNL     1      47.458   5.099  14.946  0.00  0.00    +0.000 A 
ATOM      6  C   UNL     1      48.189   6.138  14.385  0.00  0.00    +0.000 A 
ATOM      7  S   UNL     1      49.184   6.953  15.504  0.00  0.00    +0.000 S 
ATOM      8  C   UNL     1      48.646   5.970  16.783  0.00  0.00    +0.000 A 
ATOM      9  N   UNL     1      49.083   6.172  18.058  0.00  0.00    +0.000 NA
ATOM     10  C   UNL     1      48.558   5.383  18.932  0.00  0.00    +0.000 A 
ATOM     11  N   UNL     1      47.648   4.397  18.650  0.00  0.00    +0.000 N 
ATOM     12  C   UNL     1      47.248   4.097  17.371  0.00  0.00    +0.000 A 
ATOM     13  O   UNL     1      46.562   3.108  17.136  0.00  0.00    +0.000 OA
ATOM     14  C   UNL     1      47.754   5.004  16.354  0.00  0.00    +0.000 A 
ATOM     15  H   UNL     1      47.310   3.782  19.376  0.00  0.00    +0.000 HD
ENDBRANCH   2   5
BRANCH   3  16
ATOM     16  C   UNL     1      44.365   4.289  12.956  0.00  0.00    +0.000 C 
BRANCH  16  17
ATOM     17  C   UNL     1      44.799   4.296  11.514  0.00  0.00    +0.000 A 
ATOM     18  C   UNL     1      44.479   3.217  10.679  0.00  0.00    +0.000 A 
ATOM     19  C   UNL     1      44.837   3.229   9.330  0.00  0.00    +0.000 A 
ATOM     20  C   UNL     1      45.536   4.317   8.788  0.00  0.00    +0.000 A 
ATOM     21  C   UNL     1      45.885   5.381   9.631  0.00  0.00    +0.000 A 
ATOM     22  C   UNL     1      45.529   5.365  10.983  0.00  0.00    +0.000 A 
BRANCH  20  23
ATOM     23  C   UNL     1      45.870   4.358   7.313  0.00  0.00    +0.000 C 
BRANCH  23  24
ATOM     24  C   UNL     1      46.472   3.069   6.806  0.00  0.00    +0.000 A 
ATOM     25  C   UNL     1      46.762   2.019   7.682  0.00  0.00    +0.000 A 
ATOM     26  C   UNL     1      47.375   0.881   7.179  0.00  0.00    +0.000 A 
ATOM     27  N   UNL     1      47.707   0.716   5.882  0.00  0.00    +0.000 NA
ATOM     28  C   UNL     1      47.415   1.737   5.050  0.00  0.00    +0.000 A 
ATOM     29  C   UNL     1      46.805   2.915   5.457  0.00  0.00    +0.000 A 
ENDBRANCH  23  24
ENDBRANCH  20  23
ENDBRANCH  16  17
ENDBRANCH   3  16
TORSDOF 5
ENDMDL
MODEL 6
REMARK VINA RESULT:    -7.595      3.312      5.101
REMARK INTER + INTRA:         -10.849
REMARK INTER:                  -9.808
REMARK INTRA:                  -1.042
REMARK UNBOUND:                -1.035
REMARK  Name = 
REMARK  5 active torsions:
REMARK  status: ('A' for Active; 'I' for Inactive)
REMARK    1  A    between atoms: C_2  and  C_18
REMARK    2  A    between atoms: N_3  and  C_4
REMARK    3  A    between atoms: C_4  and  C_5
REMARK    4  A    between atoms: C_8  and  C_9
REMARK    5  A    between atoms: C_9  and  C_10
REMARK                            x       y       z     vdW  Elec       q    Type
REMARK                         _______ _______ _______ _____ _____    ______ ____
ROOT
ATOM      1  O   UNL     1      46.530   8.356  13.437  0.00  0.00    +0.000 OA
ATOM      2  C   UNL     1      47.226   7.378  13.692  0.00  0.00    +0.000 C 
ATOM      3  N   UNL     1      46.762   6.093  13.582  0.00  0.00    +0.000 N 
ATOM      4  H   UNL     1      47.307   5.332  13.972  0.00  0.00    +0.000 HD
ENDROOT
BRANCH   2   5
ATOM      5  C   UNL     1      48.631   7.525  14.085  0.00  0.00    +0.000 A 
ATOM      6  C   UNL     1      49.461   8.384  13.377  0.00  0.00    +0.000 A 
ATOM      7  S   UNL     1      51.053   8.449  13.983  0.00  0.00    +0.000 S 
ATOM      8  C   UNL     1      50.679   7.359  15.234  0.00  0.00    +0.000 A 
ATOM      9  N   UNL     1      51.612   7.012  16.165  0.00  0.00    +0.000 NA
ATOM     10  C   UNL     1      51.177   6.213  17.081  0.00  0.00    +0.000 A 
ATOM     11  N   UNL     1      49.902   5.715  17.144  0.00  0.00    +0.000 N 
ATOM     12  C   UNL     1      48.957   5.964  16.179  0.00  0.00    +0.000 A 
ATOM     13  O   UNL     1      47.880   5.375  16.178  0.00  0.00    +0.000 OA
ATOM     14  C   UNL     1      49.371   6.917  15.163  0.00  0.00    +0.000 A 
ATOM     15  H   UNL     1      49.639   5.057  17.863  0.00  0.00    +0.000 HD
ENDBRANCH   2   5
BRANCH   3  16
ATOM     16  C   UNL     1      45.393   5.789  13.257  0.00  0.00    +0.000 C 
BRANCH  16  17
ATOM     17  C   UNL     1      45.266   5.202  11.876  0.00  0.00    +0.000 A 
ATOM     18  C   UNL     1      44.564   4.005  11.683  0.00  0.00    +0.000 A 
ATOM     19  C   UNL     1      44.402   3.472  10.403  0.00  0.00    +0.000 A 
ATOM     20  C   UNL     1      44.952   4.118   9.287  0.00  0.00    +0.000 A 
ATOM     21  C   UNL     1      45.682   5.298   9.484  0.00  0.00    +0.000 A 
ATOM     22  C   UNL     1      45.847   5.829  10.767  0.00  0.00    +0.000 A 
BRANCH  20  23
ATOM     23  C   UNL     1      44.724   3.574   7.894  0.00  0.00    +0.000 C 
BRANCH  23  24
ATOM     24  C   UNL     1      45.914   2.821   7.350  0.00  0.00    +0.000 A 
ATOM     25  C   UNL     1      46.606   3.286   6.228  0.00  0.00    +0.000 A 
ATOM     26  C   UNL     1      47.651   2.526   5.726  0.00  0.00    +0.000 A 
ATOM     27  N   UNL     1      48.055   1.355   6.262  0.00  0.00    +0.000 NA
ATOM     28  C   UNL     1      47.381   0.925   7.348  0.00  0.00    +0.000 A 
ATOM     29  C   UNL     1      46.321   1.613   7.923  0.00  0.00    +0.000 A 
ENDBRANCH  23  24
ENDBRANCH  20  23
ENDBRANCH  16  17
ENDBRANCH   3  16
TORSDOF 5
ENDMDL
MODEL 7
REMARK VINA RESULT:    -7.260      3.307      5.181
REMARK INTER + INTRA:         -10.417
REMARK INTER:                  -9.437
REMARK INTRA:                  -0.980
REMARK UNBOUND:                -1.035
REMARK  Name = 
REMARK  5 active torsions:
REMARK  status: ('A' for Active; 'I' for Inactive)
REMARK    1  A    between atoms: C_2  and  C_18
REMARK    2  A    between atoms: N_3  and  C_4
REMARK    3  A    between atoms: C_4  and  C_5
REMARK    4  A    between atoms: C_8  and  C_9
REMARK    5  A    between atoms: C_9  and  C_10
REMARK                            x       y       z     vdW  Elec       q    Type
REMARK                         _______ _______ _______ _____ _____    ______ ____
ROOT
ATOM      1  O   UNL     1      45.984   8.798  13.266  0.00  0.00    +0.000 OA
ATOM      2  C   UNL     1      46.991   8.107  13.138  0.00  0.00    +0.000 C 
ATOM      3  N   UNL     1      46.940   6.743  13.022  0.00  0.00    +0.000 N 
ATOM      4  H   UNL     1      47.795   6.205  13.099  0.00  0.00    +0.000 HD
ENDROOT
BRANCH   2   5
ATOM      5  C   UNL     1      48.323   8.713  13.049  0.00  0.00    +0.000 A 
ATOM      6  C   UNL     1      48.517   9.845  12.268  0.00  0.00    +0.000 A 
ATOM      7  S   UNL     1      50.120  10.427  12.298  0.00  0.00    +0.000 S 
ATOM      8  C   UNL     1      50.600   9.210  13.383  0.00  0.00    +0.000 A 
ATOM      9  N   UNL     1      51.875   9.159  13.863  0.00  0.00    +0.000 NA
ATOM     10  C   UNL     1      52.087   8.211  14.712  0.00  0.00    +0.000 A 
ATOM     11  N   UNL     1      51.148   7.297  15.114  0.00  0.00    +0.000 N 
ATOM     12  C   UNL     1      49.879   7.253  14.591  0.00  0.00    +0.000 A 
ATOM     13  O   UNL     1      49.117   6.327  14.850  0.00  0.00    +0.000 OA
ATOM     14  C   UNL     1      49.565   8.344  13.683  0.00  0.00    +0.000 A 
ATOM     15  H   UNL     1      51.392   6.550  15.749  0.00  0.00    +0.000 HD
ENDBRANCH   2   5
BRANCH   3  16
ATOM     16  C   UNL     1      45.712   6.001  13.141  0.00  0.00    +0.000 C 
BRANCH  16  17
ATOM     17  C   UNL     1      45.368   5.284  11.861  0.00  0.00    +0.000 A 
ATOM     18  C   UNL     1      45.846   5.767  10.636  0.00  0.00    +0.000 A 
ATOM     19  C   UNL     1      45.572   5.088   9.447  0.00  0.00    +0.000 A 
ATOM     20  C   UNL     1      44.800   3.917   9.457  0.00  0.00    +0.000 A 
ATOM     21  C   UNL     1      44.296   3.453  10.679  0.00  0.00    +0.000 A 
ATOM     22  C   UNL     1      44.567   4.136  11.868  0.00  0.00    +0.000 A 
BRANCH  20  23
ATOM     23  C   UNL     1      44.555   3.148   8.178  0.00  0.00    +0.000 C 
BRANCH  23  24
ATOM     24  C   UNL     1      45.823   2.613   7.556  0.00  0.00    +0.000 A 
ATOM     25  C   UNL     1      46.476   3.316   6.539  0.00  0.00    +0.000 A 
ATOM     26  C   UNL     1      47.600   2.752   5.954  0.00  0.00    +0.000 A 
ATOM     27  N   UNL     1      48.116   1.558   6.312  0.00  0.00    +0.000 NA
ATOM     28  C   UNL     1      47.477   0.897   7.299  0.00  0.00    +0.000 A 
ATOM     29  C   UNL     1      46.346   1.376   7.944  0.00  0.00    +0.000 A 
ENDBRANCH  23  24
ENDBRANCH  20  23
ENDBRANCH  16  17
ENDBRANCH   3  16
TORSDOF 5
ENDMDL
MODEL 8
REMARK VINA RESULT:    -7.253      6.275     11.118
REMARK INTER + INTRA:         -10.407
REMARK INTER:                  -9.466
REMARK INTRA:                  -0.942
REMARK UNBOUND:                -1.035
REMARK  Name = 
REMARK  5 active torsions:
REMARK  status: ('A' for Active; 'I' for Inactive)
REMARK    1  A    between atoms: C_2  and  C_18
REMARK    2  A    between atoms: N_3  and  C_4
REMARK    3  A    between atoms: C_4  and  C_5
REMARK    4  A    between atoms: C_8  and  C_9
REMARK    5  A    between atoms: C_9  and  C_10
REMARK                            x       y       z     vdW  Elec       q    Type
REMARK                         _______ _______ _______ _____ _____    ______ ____
ROOT
ATOM      1  O   UNL     1      47.297   3.139  14.007  0.00  0.00    +0.000 OA
ATOM      2  C   UNL     1      46.846   4.176  14.484  0.00  0.00    +0.000 C 
ATOM      3  N   UNL     1      46.829   4.423  15.832  0.00  0.00    +0.000 N 
ATOM      4  H   UNL     1      46.289   5.203  16.189  0.00  0.00    +0.000 HD
ENDROOT
BRANCH   2   5
ATOM      5  C   UNL     1      46.337   5.251  13.626  0.00  0.00    +0.000 A 
ATOM      6  C   UNL     1      47.117   6.376  13.392  0.00  0.00    +0.000 A 
ATOM      7  S   UNL     1      46.380   7.513  12.355  0.00  0.00    +0.000 S 
ATOM      8  C   UNL     1      45.011   6.524  12.155  0.00  0.00    +0.000 A 
ATOM      9  N   UNL     1      43.991   6.896  11.331  0.00  0.00    +0.000 NA
ATOM     10  C   UNL     1      43.039   6.030  11.239  0.00  0.00    +0.000 A 
ATOM     11  N   UNL     1      43.002   4.834  11.908  0.00  0.00    +0.000 N 
ATOM     12  C   UNL     1      43.961   4.459  12.816  0.00  0.00    +0.000 A 
ATOM     13  O   UNL     1      43.817   3.462  13.517  0.00  0.00    +0.000 OA
ATOM     14  C   UNL     1      45.094   5.365  12.904  0.00  0.00    +0.000 A 
ATOM     15  H   UNL     1      42.203   4.221  11.827  0.00  0.00    +0.000 HD
ENDBRANCH   2   5
BRANCH   3  16
ATOM     16  C   UNL     1      47.247   3.445  16.803  0.00  0.00    +0.000 C 
BRANCH  16  17
ATOM     17  C   UNL     1      48.716   3.561  17.114  0.00  0.00    +0.000 A 
ATOM     18  C   UNL     1      49.514   2.412  17.175  0.00  0.00    +0.000 A 
ATOM     19  C   UNL     1      50.885   2.509  17.419  0.00  0.00    +0.000 A 
ATOM     20  C   UNL     1      51.486   3.760  17.622  0.00  0.00    +0.000 A 
ATOM     21  C   UNL     1      50.681   4.907  17.593  0.00  0.00    +0.000 A 
ATOM     22  C   UNL     1      49.307   4.807  17.352  0.00  0.00    +0.000 A 
BRANCH  20  23
ATOM     23  C   UNL     1      52.981   3.870  17.825  0.00  0.00    +0.000 C 
BRANCH  23  24
ATOM     24  C   UNL     1      53.423   3.459  19.209  0.00  0.00    +0.000 A 
ATOM     25  C   UNL     1      52.942   4.121  20.342  0.00  0.00    +0.000 A 
ATOM     26  C   UNL     1      53.427   3.751  21.587  0.00  0.00    +0.000 A 
ATOM     27  N   UNL     1      54.338   2.775  21.781  0.00  0.00    +0.000 NA
ATOM     28  C   UNL     1      54.786   2.142  20.677  0.00  0.00    +0.000 A 
ATOM     29  C   UNL     1      54.364   2.441  19.389  0.00  0.00    +0.000 A 
ENDBRANCH  23  24
ENDBRANCH  20  23
ENDBRANCH  16  17
ENDBRANCH   3  16
TORSDOF 5
ENDMDL
MODEL 9
REMARK VINA RESULT:    -7.116      4.374      6.544
REMARK INTER + INTRA:         -10.230
REMARK INTER:                  -9.465
REMARK INTRA:                  -0.766
REMARK UNBOUND:                -1.035
REMARK  Name = 
REMARK  5 active torsions:
REMARK  status: ('A' for Active; 'I' for Inactive)
REMARK    1  A    between atoms: C_2  and  C_18
REMARK    2  A    between atoms: N_3  and  C_4
REMARK    3  A    between atoms: C_4  and  C_5
REMARK    4  A    between atoms: C_8  and  C_9
REMARK    5  A    between atoms: C_9  and  C_10
REMARK                            x       y       z     vdW  Elec       q    Type
REMARK                         _______ _______ _______ _____ _____    ______ ____
ROOT
ATOM      1  O   UNL     1      49.993   6.529  15.256  0.00  0.00    +0.000 OA
ATOM      2  C   UNL     1      48.876   6.335  15.728  0.00  0.00    +0.000 C 
ATOM      3  N   UNL     1      47.726   6.538  15.012  0.00  0.00    +0.000 N 
ATOM      4  H   UNL     1      46.834   6.539  15.492  0.00  0.00    +0.000 HD
ENDROOT
BRANCH   2   5
ATOM      5  C   UNL     1      48.705   5.819  17.090  0.00  0.00    +0.000 A 
ATOM      6  C   UNL     1      48.962   4.481  17.360  0.00  0.00    +0.000 A 
ATOM      7  S   UNL     1      48.733   4.059  18.996  0.00  0.00    +0.000 S 
ATOM      8  C   UNL     1      48.319   5.656  19.407  0.00  0.00    +0.000 A 
ATOM      9  N   UNL     1      48.044   6.001  20.696  0.00  0.00    +0.000 NA
ATOM     10  C   UNL     1      47.790   7.254  20.869  0.00  0.00    +0.000 A 
ATOM     11  N   UNL     1      47.768   8.193  19.871  0.00  0.00    +0.000 N 
ATOM     12  C   UNL     1      47.948   7.876  18.547  0.00  0.00    +0.000 A 
ATOM     13  O   UNL     1      47.762   8.708  17.664  0.00  0.00    +0.000 OA
ATOM     14  C   UNL     1      48.310   6.490  18.304  0.00  0.00    +0.000 A 
ATOM     15  H   UNL     1      47.517   9.151  20.068  0.00  0.00    +0.000 HD
ENDBRANCH   2   5
BRANCH   3  16
ATOM     16  C   UNL     1      47.730   7.089  13.681  0.00  0.00    +0.000 C 
BRANCH  16  17
ATOM     17  C   UNL     1      46.810   6.330  12.762  0.00  0.00    +0.000 A 
ATOM     18  C   UNL     1      46.561   6.806  11.468  0.00  0.00    +0.000 A 
ATOM     19  C   UNL     1      45.745   6.089  10.590  0.00  0.00    +0.000 A 
ATOM     20  C   UNL     1      45.149   4.886  10.993  0.00  0.00    +0.000 A 
ATOM     21  C   UNL     1      45.372   4.427  12.298  0.00  0.00    +0.000 A 
ATOM     22  C   UNL     1      46.186   5.148  13.178  0.00  0.00    +0.000 A 
BRANCH  20  23
ATOM     23  C   UNL     1      44.315   4.079  10.023  0.00  0.00    +0.000 C 
BRANCH  23  24
ATOM     24  C   UNL     1      45.146   3.347   8.995  0.00  0.00    +0.000 A 
ATOM     25  C   UNL     1      45.306   1.959   9.058  0.00  0.00    +0.000 A 
ATOM     26  C   UNL     1      46.131   1.340   8.132  0.00  0.00    +0.000 A 
ATOM     27  N   UNL     1      46.791   1.997   7.155  0.00  0.00    +0.000 NA
ATOM     28  C   UNL     1      46.619   3.334   7.105  0.00  0.00    +0.000 A 
ATOM     29  C   UNL     1      45.817   4.044   7.987  0.00  0.00    +0.000 A 
ENDBRANCH  23  24
ENDBRANCH  20  23
ENDBRANCH  16  17
ENDBRANCH   3  16
TORSDOF 5
ENDMDL
