MODEL 1
REMARK VINA RESULT:    -8.653      0.000      0.000
REMARK INTER + INTRA:         -12.252
REMARK INTER:                 -11.689
REMARK INTRA:                  -0.563
REMARK UNBOUND:                -0.563
REMARK  Name = 
REMARK  6 active torsions:
REMARK  status: ('A' for Active; 'I' for Inactive)
REMARK    1  A    between atoms: C_2  and  C_4
REMARK    2  A    between atoms: C_8  and  C_9
REMARK    3  A    between atoms: C_9  and  C_10
REMARK    4  A    between atoms: C_12  and  C_13
REMARK    5  A    between atoms: C_13  and  N_14
REMARK    6  A    between atoms: C_15  and  C_17
REMARK                            x       y       z     vdW  Elec       q    Type
REMARK                         _______ _______ _______ _____ _____    ______ ____
ROOT
ATOM      1  C   UNL     1      44.126   4.166  11.087  0.00  0.00    +0.000 A 
ATOM      2  C   UNL     1      45.288   4.910  11.298  0.00  0.00    +0.000 A 
ATOM      3  C   UNL     1      45.300   5.903  12.287  0.00  0.00    +0.000 A 
ATOM      4  C   UNL     1      44.113   6.165  12.974  0.00  0.00    +0.000 A 
ATOM      5  C   UNL     1      42.992   5.408  12.675  0.00  0.00    +0.000 A 
ATOM      6  N   UNL     1      42.973   4.414  11.761  0.00  0.00    +0.000 NA
ENDROOT
BRANCH   1   7
ATOM      7  C   UNL     1      44.141   2.965  10.171  0.00  0.00    +0.000 C 
BRANCH   7  12
ATOM      8  C   UNL     1      46.509   1.809   7.585  0.00  0.00    +0.000 A 
ATOM      9  C   UNL     1      46.888   2.960   6.909  0.00  0.00    +0.000 A 
ATOM     10  C   UNL     1      46.371   4.173   7.346  0.00  0.00    +0.000 A 
ATOM     11  C   UNL     1      45.500   4.194   8.434  0.00  0.00    +0.000 A 
ATOM     12  C   UNL     1      45.161   2.994   9.061  0.00  0.00    +0.000 A 
ATOM     13  N   UNL     1      45.652   1.796   8.646  0.00  0.00    +0.000 NA
BRANCH   8  15
ATOM     14  N   UNL     1      47.640   0.466   5.911  0.00  0.00    +0.000 N 
ATOM     15  C   UNL     1      47.045   0.482   7.144  0.00  0.00    +0.000 C 
ATOM     16  O   UNL     1      46.967  -0.528   7.832  0.00  0.00    +0.000 OA
ATOM     17  H   UNL     1      48.011  -0.399   5.549  0.00  0.00    +0.000 HD
ATOM     18  H   UNL     1      47.696   1.322   5.371  0.00  0.00    +0.000 HD
ENDBRANCH   8  15
ENDBRANCH   7  12
ENDBRANCH   1   7
BRANCH   3  19
ATOM     19  C   UNL     1      46.575   6.626  12.637  0.00  0.00    +0.000 C 
BRANCH  19  20
ATOM     20  N   UNL     1      47.002   6.385  13.990  0.00  0.00    +0.000 N 
ATOM     21  C   UNL     1      48.321   6.437  14.360  0.00  0.00    +0.000 C 
ATOM     22  O   UNL     1      49.213   6.735  13.570  0.00  0.00    +0.000 OA
ATOM     23  H   UNL     1      46.333   5.944  14.611  0.00  0.00    +0.000 HD
BRANCH  21  24
ATOM     24  C   UNL     1      48.612   6.162  15.773  0.00  0.00    +0.000 A 
ATOM     25  C   UNL     1      49.237   7.132  16.545  0.00  0.00    +0.000 A 
ATOM     26  S   UNL     1      49.472   6.668  18.168  0.00  0.00    +0.000 S 
ATOM     27  C   UNL     1      48.796   5.133  17.884  0.00  0.00    +0.000 A 
ATOM     28  N   UNL     1      48.723   4.206  18.879  0.00  0.00    +0.000 NA
ATOM     29  C   UNL     1      48.222   3.075  18.515  0.00  0.00    +0.000 A 
ATOM     30  N   UNL     1      47.779   2.784  17.252  0.00  0.00    +0.000 N 
ATOM     31  C   UNL     1      47.786   3.705  16.229  0.00  0.00    +0.000 A 
ATOM     32  O   UNL     1      47.302   3.444  15.130  0.00  0.00    +0.000 OA
ATOM     33  C   UNL     1      48.369   4.986  16.575  0.00  0.00    +0.000 A 
ATOM     34  H   UNL     1      47.382   1.882  17.040  0.00  0.00    +0.000 HD
ENDBRANCH  21  24
ENDBRANCH  19  20
ENDBRANCH   3  19
TORSDOF 6
ENDMDL
MODEL 2
REMARK VINA RESULT:    -8.219      2.940      8.235
REMARK INTER + INTRA:         -11.665
REMARK INTER:                 -10.432
REMARK INTRA:                  -1.233
REMARK UNBOUND:                -0.563
REMARK  Name = 
REMARK  6 active torsions:
REMARK  status: ('A' for Active; 'I' for Inactive)
REMARK    1  A    between atoms: C_2  and  C_4
REMARK    2  A    between atoms: C_8  and  C_9
REMARK    3  A    between atoms: C_9  and  C_10
REMARK    4  A    between atoms: C_12  and  C_13
REMARK    5  A    between atoms: C_13  and  N_14
REMARK    6  A    between atoms: C_15  and  C_17
REMARK                            x       y       z     vdW  Elec       q    Type
REMARK                         _______ _______ _______ _____ _____    ______ ____
ROOT
ATOM      1  C   UNL     1      49.322   7.351  15.396  0.00  0.00    +0.000 A 
ATOM      2  C   UNL     1      48.405   7.510  14.357  0.00  0.00    +0.000 A 
ATOM      3  C   UNL     1      48.863   7.880  13.085  0.00  0.00    +0.000 A 
ATOM      4  C   UNL     1      50.223   8.156  12.926  0.00  0.00    +0.000 A 
ATOM      5  C   UNL     1      51.060   8.014  14.021  0.00  0.00    +0.000 A 
ATOM      6  N   UNL     1      50.647   7.610  15.242  0.00  0.00    +0.000 NA
ENDROOT
BRANCH   1   7
ATOM      7  C   UNL     1      48.888   6.765  16.719  0.00  0.00    +0.000 C 
BRANCH   7  12
ATOM      8  C   UNL     1      49.701   3.190  17.151  0.00  0.00    +0.000 A 
ATOM      9  C   UNL     1      48.486   2.531  17.032  0.00  0.00    +0.000 A 
ATOM     10  C   UNL     1      47.356   3.292  16.760  0.00  0.00    +0.000 A 
ATOM     11  C   UNL     1      47.477   4.673  16.619  0.00  0.00    +0.000 A 
ATOM     12  C   UNL     1      48.734   5.266  16.759  0.00  0.00    +0.000 A 
ATOM     13  N   UNL     1      49.851   4.541  17.029  0.00  0.00    +0.000 NA
BRANCH   8  15
ATOM     14  N   UNL     1      51.859   3.027  18.247  0.00  0.00    +0.000 N 
ATOM     15  C   UNL     1      50.942   2.404  17.445  0.00  0.00    +0.000 C 
ATOM     16  O   UNL     1      51.132   1.276  17.006  0.00  0.00    +0.000 OA
ATOM     17  H   UNL     1      52.722   2.556  18.473  0.00  0.00    +0.000 HD
ATOM     18  H   UNL     1      51.666   3.956  18.601  0.00  0.00    +0.000 HD
ENDBRANCH   8  15
ENDBRANCH   7  12
ENDBRANCH   1   7
BRANCH   3  19
ATOM     19  C   UNL     1      47.921   7.923  11.909  0.00  0.00    +0.000 C 
BRANCH  19  20
ATOM     20  N   UNL     1      47.125   6.730  11.787  0.00  0.00    +0.000 N 
ATOM     21  C   UNL     1      45.753   6.763  11.798  0.00  0.00    +0.000 C 
ATOM     22  O   UNL     1      45.123   7.815  11.869  0.00  0.00    +0.000 OA
ATOM     23  H   UNL     1      47.597   5.846  11.931  0.00  0.00    +0.000 HD
BRANCH  21  24
ATOM     24  C   UNL     1      45.071   5.469  11.672  0.00  0.00    +0.000 A 
ATOM     25  C   UNL     1      44.381   4.950  12.759  0.00  0.00    +0.000 A 
ATOM     26  S   UNL     1      43.620   3.459  12.438  0.00  0.00    +0.000 S 
ATOM     27  C   UNL     1      44.231   3.427  10.851  0.00  0.00    +0.000 A 
ATOM     28  N   UNL     1      43.973   2.377  10.024  0.00  0.00    +0.000 NA
ATOM     29  C   UNL     1      44.529   2.466   8.863  0.00  0.00    +0.000 A 
ATOM     30  N   UNL     1      45.311   3.511   8.448  0.00  0.00    +0.000 N 
ATOM     31  C   UNL     1      45.557   4.616   9.230  0.00  0.00    +0.000 A 
ATOM     32  O   UNL     1      46.191   5.576   8.799  0.00  0.00    +0.000 OA
ATOM     33  C   UNL     1      44.982   4.553  10.560  0.00  0.00    +0.000 A 
ATOM     34  H   UNL     1      45.702   3.524   7.519  0.00  0.00    +0.000 HD
ENDBRANCH  21  24
ENDBRANCH  19  20
ENDBRANCH   3  19
TORSDOF 6
ENDMDL
MODEL 3
REMARK VINA RESULT:    -8.180      2.873      8.230
REMARK INTER + INTRA:         -11.612
REMARK INTER:                 -10.492
REMARK INTRA:                  -1.121
REMARK UNBOUND:                -0.563
REMARK  Name = 
REMARK  6 active torsions:
REMARK  status: ('A' for Active; 'I' for Inactive)
REMARK    1  A    between atoms: C_2  and  C_4
REMARK    2  A    between atoms: C_8  and  C_9
REMARK    3  A    between atoms: C_9  and  C_10
REMARK    4  A    between atoms: C_12  and  C_13
REMARK    5  A    between atoms: C_13  and  N_14
REMARK    6  A    between atoms: C_15  and  C_17
REMARK                            x       y       z     vdW  Elec       q    Type
REMARK                         _______ _______ _______ _____ _____    ______ ____
ROOT
ATOM      1  C   UNL     1      49.817   7.741  15.167  0.00  0.00    +0.000 A 
ATOM      2  C   UNL     1      49.351   7.346  13.912  0.00  0.00    +0.000 A 
ATOM      3  C   UNL     1      48.532   8.213  13.177  0.00  0.00    +0.000 A 
ATOM      4  C   UNL     1      48.144   9.416  13.769  0.00  0.00    +0.000 A 
ATOM      5  C   UNL     1      48.618   9.715  15.036  0.00  0.00    +0.000 A 
ATOM      6  N   UNL     1      49.449   8.916  15.740  0.00  0.00    +0.000 NA
ENDROOT
BRANCH   1   7
ATOM      7  C   UNL     1      50.856   6.919  15.893  0.00  0.00    +0.000 C 
BRANCH   7  12
ATOM      8  C   UNL     1      48.618   4.200  17.002  0.00  0.00    +0.000 A 
ATOM      9  C   UNL     1      49.393   3.426  17.855  0.00  0.00    +0.000 A 
ATOM     10  C   UNL     1      50.696   3.837  18.105  0.00  0.00    +0.000 A 
ATOM     11  C   UNL     1      51.177   4.997  17.499  0.00  0.00    +0.000 A 
ATOM     12  C   UNL     1      50.339   5.721  16.648  0.00  0.00    +0.000 A 
ATOM     13  N   UNL     1      49.062   5.333  16.387  0.00  0.00    +0.000 NA
BRANCH   8  15
ATOM     14  N   UNL     1      46.653   4.344  15.587  0.00  0.00    +0.000 N 
ATOM     15  C   UNL     1      47.209   3.788  16.708  0.00  0.00    +0.000 C 
ATOM     16  O   UNL     1      46.586   3.003  17.412  0.00  0.00    +0.000 OA
ATOM     17  H   UNL     1      45.702   4.117  15.339  0.00  0.00    +0.000 HD
ATOM     18  H   UNL     1      47.200   4.982  15.021  0.00  0.00    +0.000 HD
ENDBRANCH   8  15
ENDBRANCH   7  12
ENDBRANCH   1   7
BRANCH   3  19
ATOM     19  C   UNL     1      48.127   7.878  11.764  0.00  0.00    +0.000 C 
BRANCH  19  20
ATOM     20  N   UNL     1      47.280   6.717  11.686  0.00  0.00    +0.000 N 
ATOM     21  C   UNL     1      45.912   6.806  11.739  0.00  0.00    +0.000 C 
ATOM     22  O   UNL     1      45.327   7.884  11.814  0.00  0.00    +0.000 OA
ATOM     23  H   UNL     1      47.721   5.816  11.828  0.00  0.00    +0.000 HD
BRANCH  21  24
ATOM     24  C   UNL     1      45.175   5.540  11.655  0.00  0.00    +0.000 A 
ATOM     25  C   UNL     1      44.484   5.074  12.765  0.00  0.00    +0.000 A 
ATOM     26  S   UNL     1      43.656   3.609  12.492  0.00  0.00    +0.000 S 
ATOM     27  C   UNL     1      44.236   3.517  10.895  0.00  0.00    +0.000 A 
ATOM     28  N   UNL     1      43.920   2.460  10.097  0.00  0.00    +0.000 NA
ATOM     29  C   UNL     1      44.457   2.500   8.925  0.00  0.00    +0.000 A 
ATOM     30  N   UNL     1      45.275   3.502   8.472  0.00  0.00    +0.000 N 
ATOM     31  C   UNL     1      45.581   4.613   9.225  0.00  0.00    +0.000 A 
ATOM     32  O   UNL     1      46.245   5.536   8.762  0.00  0.00    +0.000 OA
ATOM     33  C   UNL     1      45.027   4.604  10.565  0.00  0.00    +0.000 A 
ATOM     34  H   UNL     1      45.649   3.478   7.537  0.00  0.00    +0.000 HD
ENDBRANCH  21  24
ENDBRANCH  19  20
ENDBRANCH   3  19
TORSDOF 6
ENDMDL
MODEL 4
REMARK VINA RESULT:    -7.977      2.319      3.473
REMARK INTER + INTRA:         -11.339
REMARK INTER:                 -10.577
REMARK INTRA:                  -0.762
REMARK UNBOUND:                -0.563
REMARK  Name = 
REMARK  6 active torsions:
REMARK  status: ('A' for Active; 'I' for Inactive)
REMARK    1  A    between atoms: C_2  and  C_4
REMARK    2  A    between atoms: C_8  and  C_9
REMARK    3  A    between atoms: C_9  and  C_10
REMARK    4  A    between atoms: C_12  and  C_13
REMARK    5  A    between atoms: C_13  and  N_14
REMARK    6  A    between atoms: C_15  and  C_17
REMARK                            x       y       z     vdW  Elec       q    Type
REMARK                         _______ _______ _______ _____ _____    ______ ____
ROOT
ATOM      1  C   UNL     1      46.299   6.318  11.718  0.00  0.00    +0.000 A 
ATOM      2  C   UNL     1      46.315   5.273  12.642  0.00  0.00    +0.000 A 
ATOM      3  C   UNL     1      47.081   5.397  13.810  0.00  0.00    +0.000 A 
ATOM      4  C   UNL     1      47.870   6.539  13.964  0.00  0.00    +0.000 A 
ATOM      5  C   UNL     1      47.829   7.512  12.978  0.00  0.00    +0.000 A 
ATOM      6  N   UNL     1      47.059   7.434  11.871  0.00  0.00    +0.000 NA
ENDROOT
BRANCH   1   7
ATOM      7  C   UNL     1      45.336   6.298  10.555  0.00  0.00    +0.000 C 
BRANCH   7  12
ATOM      8  C   UNL     1      45.702   3.431   8.257  0.00  0.00    +0.000 A 
ATOM      9  C   UNL     1      44.881   2.445   8.784  0.00  0.00    +0.000 A 
ATOM     10  C   UNL     1      44.146   2.748   9.923  0.00  0.00    +0.000 A 
ATOM     11  C   UNL     1      44.257   4.015  10.493  0.00  0.00    +0.000 A 
ATOM     12  C   UNL     1      45.109   4.955   9.908  0.00  0.00    +0.000 A 
ATOM     13  N   UNL     1      45.840   4.677   8.796  0.00  0.00    +0.000 NA
BRANCH   8  15
ATOM     14  N   UNL     1      47.198   1.959   7.041  0.00  0.00    +0.000 N 
ATOM     15  C   UNL     1      46.510   3.142   7.030  0.00  0.00    +0.000 C 
ATOM     16  O   UNL     1      46.556   3.903   6.071  0.00  0.00    +0.000 OA
ATOM     17  H   UNL     1      47.771   1.709   6.249  0.00  0.00    +0.000 HD
ATOM     18  H   UNL     1      47.130   1.348   7.846  0.00  0.00    +0.000 HD
ENDBRANCH   8  15
ENDBRANCH   7  12
ENDBRANCH   1   7
BRANCH   3  19
ATOM     19  C   UNL     1      47.010   4.351  14.892  0.00  0.00    +0.000 C 
BRANCH  19  20
ATOM     20  N   UNL     1      47.681   4.752  16.101  0.00  0.00    +0.000 N 
ATOM     21  C   UNL     1      47.364   4.217  17.324  0.00  0.00    +0.000 C 
ATOM     22  O   UNL     1      46.520   3.336  17.456  0.00  0.00    +0.000 OA
ATOM     23  H   UNL     1      48.227   5.605  16.062  0.00  0.00    +0.000 HD
BRANCH  21  24
ATOM     24  C   UNL     1      48.126   4.725  18.472  0.00  0.00    +0.000 A 
ATOM     25  C   UNL     1      47.496   5.537  19.406  0.00  0.00    +0.000 A 
ATOM     26  S   UNL     1      48.509   6.014  20.691  0.00  0.00    +0.000 S 
ATOM     27  C   UNL     1      49.841   5.198  20.017  0.00  0.00    +0.000 A 
ATOM     28  N   UNL     1      51.061   5.233  20.620  0.00  0.00    +0.000 NA
ATOM     29  C   UNL     1      51.987   4.603  19.980  0.00  0.00    +0.000 A 
ATOM     30  N   UNL     1      51.807   3.932  18.800  0.00  0.00    +0.000 N 
ATOM     31  C   UNL     1      50.582   3.826  18.181  0.00  0.00    +0.000 A 
ATOM     32  O   UNL     1      50.433   3.146  17.170  0.00  0.00    +0.000 OA
ATOM     33  C   UNL     1      49.510   4.545  18.842  0.00  0.00    +0.000 A 
ATOM     34  H   UNL     1      52.573   3.446  18.362  0.00  0.00    +0.000 HD
ENDBRANCH  21  24
ENDBRANCH  19  20
ENDBRANCH   3  19
TORSDOF 6
ENDMDL
MODEL 5
REMARK VINA RESULT:    -7.822      3.817      8.036
REMARK INTER + INTRA:         -11.129
REMARK INTER:                  -9.836
REMARK INTRA:                  -1.293
REMARK UNBOUND:                -0.563
REMARK  Name = 
REMARK  6 active torsions:
REMARK  status: ('A' for Active; 'I' for Inactive)
REMARK    1  A    between atoms: C_2  and  C_4
REMARK    2  A    between atoms: C_8  and  C_9
REMARK    3  A    between atoms: C_9  and  C_10
REMARK    4  A    between atoms: C_12  and  C_13
REMARK    5  A    between atoms: C_13  and  N_14
REMARK    6  A    between atoms: C_15  and  C_17
REMARK                            x       y       z     vdW  Elec       q    Type
REMARK                         _______ _______ _______ _____ _____    ______ ____
ROOT
ATOM      1  C   UNL     1      48.430   7.666  18.926  0.00  0.00    +0.000 A 
ATOM      2  C   UNL     1      48.440   7.884  17.548  0.00  0.00    +0.000 A 
ATOM      3  C   UNL     1      48.274   9.185  17.055  0.00  0.00    +0.000 A 
ATOM      4  C   UNL     1      48.021  10.210  17.969  0.00  0.00    +0.000 A 
ATOM      5  C   UNL     1      47.986   9.902  19.319  0.00  0.00    +0.000 A 
ATOM      6  N   UNL     1      48.194   8.664  19.817  0.00  0.00    +0.000 NA
ENDROOT
BRANCH   1   7
ATOM      7  C   UNL     1      48.801   6.315  19.492  0.00  0.00    +0.000 C 
BRANCH   7  12
ATOM      8  C   UNL     1      49.331   3.206  17.573  0.00  0.00    +0.000 A 
ATOM      9  C   UNL     1      48.067   2.839  17.132  0.00  0.00    +0.000 A 
ATOM     10  C   UNL     1      47.000   3.671  17.448  0.00  0.00    +0.000 A 
ATOM     11  C   UNL     1      47.230   4.829  18.189  0.00  0.00    +0.000 A 
ATOM     12  C   UNL     1      48.530   5.129  18.601  0.00  0.00    +0.000 A 
ATOM     13  N   UNL     1      49.587   4.327  18.306  0.00  0.00    +0.000 NA
BRANCH   8  15
ATOM     14  N   UNL     1      51.574   2.449  18.100  0.00  0.00    +0.000 N 
ATOM     15  C   UNL     1      50.506   2.335  17.252  0.00  0.00    +0.000 C 
ATOM     16  O   UNL     1      50.520   1.564  16.300  0.00  0.00    +0.000 OA
ATOM     17  H   UNL     1      52.403   1.898  17.932  0.00  0.00    +0.000 HD
ATOM     18  H   UNL     1      51.526   3.089  18.883  0.00  0.00    +0.000 HD
ENDBRANCH   8  15
ENDBRANCH   7  12
ENDBRANCH   1   7
BRANCH   3  19
ATOM     19  C   UNL     1      48.420   9.476  15.584  0.00  0.00    +0.000 C 
BRANCH  19  20
ATOM     20  N   UNL     1      47.444   8.790  14.779  0.00  0.00    +0.000 N 
ATOM     21  C   UNL     1      47.801   7.970  13.739  0.00  0.00    +0.000 C 
ATOM     22  O   UNL     1      48.974   7.737  13.459  0.00  0.00    +0.000 OA
ATOM     23  H   UNL     1      46.485   9.112  14.846  0.00  0.00    +0.000 HD
BRANCH  21  24
ATOM     24  C   UNL     1      46.699   7.341  13.000  0.00  0.00    +0.000 A 
ATOM     25  C   UNL     1      45.844   8.131  12.242  0.00  0.00    +0.000 A 
ATOM     26  S   UNL     1      44.640   7.245  11.423  0.00  0.00    +0.000 S 
ATOM     27  C   UNL     1      45.185   5.780  12.094  0.00  0.00    +0.000 A 
ATOM     28  N   UNL     1      44.551   4.607  11.818  0.00  0.00    +0.000 NA
ATOM     29  C   UNL     1      45.046   3.581  12.424  0.00  0.00    +0.000 A 
ATOM     30  N   UNL     1      46.121   3.615  13.273  0.00  0.00    +0.000 N 
ATOM     31  C   UNL     1      46.823   4.768  13.541  0.00  0.00    +0.000 A 
ATOM     32  O   UNL     1      47.835   4.753  14.237  0.00  0.00    +0.000 OA
ATOM     33  C   UNL     1      46.288   5.960  12.910  0.00  0.00    +0.000 A 
ATOM     34  H   UNL     1      46.467   2.771  13.700  0.00  0.00    +0.000 HD
ENDBRANCH  21  24
ENDBRANCH  19  20
ENDBRANCH   3  19
TORSDOF 6
ENDMDL
MODEL 6
REMARK VINA RESULT:    -7.773      4.029      9.464
REMARK INTER + INTRA:         -11.064
REMARK INTER:                  -9.986
REMARK INTRA:                  -1.078
REMARK UNBOUND:                -0.563
REMARK  Name = 
REMARK  6 active torsions:
REMARK  status: ('A' for Active; 'I' for Inactive)
REMARK    1  A    between atoms: C_2  and  C_4
REMARK    2  A    between atoms: C_8  and  C_9
REMARK    3  A    between atoms: C_9  and  C_10
REMARK    4  A    between atoms: C_12  and  C_13
REMARK    5  A    between atoms: C_13  and  N_14
REMARK    6  A    between atoms: C_15  and  C_17
REMARK                            x       y       z     vdW  Elec       q    Type
REMARK                         _______ _______ _______ _____ _____    ______ ____
ROOT
ATOM      1  C   UNL     1      50.167   5.114  18.658  0.00  0.00    +0.000 A 
ATOM      2  C   UNL     1      48.922   4.906  18.065  0.00  0.00    +0.000 A 
ATOM      3  C   UNL     1      48.690   3.725  17.346  0.00  0.00    +0.000 A 
ATOM      4  C   UNL     1      49.751   2.832  17.181  0.00  0.00    +0.000 A 
ATOM      5  C   UNL     1      50.969   3.134  17.768  0.00  0.00    +0.000 A 
ATOM      6  N   UNL     1      51.198   4.242  18.507  0.00  0.00    +0.000 NA
ENDROOT
BRANCH   1   7
ATOM      7  C   UNL     1      50.384   6.276  19.599  0.00  0.00    +0.000 C 
BRANCH   7  12
ATOM      8  C   UNL     1      48.202   9.011  18.419  0.00  0.00    +0.000 A 
ATOM      9  C   UNL     1      47.267   9.182  19.430  0.00  0.00    +0.000 A 
ATOM     10  C   UNL     1      47.382   8.389  20.565  0.00  0.00    +0.000 A 
ATOM     11  C   UNL     1      48.417   7.460  20.650  0.00  0.00    +0.000 A 
ATOM     12  C   UNL     1      49.317   7.341  19.589  0.00  0.00    +0.000 A 
ATOM     13  N   UNL     1      49.220   8.104  18.468  0.00  0.00    +0.000 NA
BRANCH   8  15
ATOM     14  N   UNL     1      47.649   9.201  16.065  0.00  0.00    +0.000 N 
ATOM     15  C   UNL     1      48.111   9.846  17.180  0.00  0.00    +0.000 C 
ATOM     16  O   UNL     1      48.421  11.031  17.154  0.00  0.00    +0.000 OA
ATOM     17  H   UNL     1      47.575   9.705  15.194  0.00  0.00    +0.000 HD
ATOM     18  H   UNL     1      47.392   8.223  16.123  0.00  0.00    +0.000 HD
ENDBRANCH   8  15
ENDBRANCH   7  12
ENDBRANCH   1   7
BRANCH   3  19
ATOM     19  C   UNL     1      47.317   3.405  16.813  0.00  0.00    +0.000 C 
BRANCH  19  20
ATOM     20  N   UNL     1      46.847   4.374  15.859  0.00  0.00    +0.000 N 
ATOM     21  C   UNL     1      46.910   4.158  14.506  0.00  0.00    +0.000 C 
ATOM     22  O   UNL     1      47.330   3.108  14.028  0.00  0.00    +0.000 OA
ATOM     23  H   UNL     1      46.687   5.315  16.201  0.00  0.00    +0.000 HD
BRANCH  21  24
ATOM     24  C   UNL     1      46.400   5.237  13.651  0.00  0.00    +0.000 A 
ATOM     25  C   UNL     1      47.150   6.394  13.489  0.00  0.00    +0.000 A 
ATOM     26  S   UNL     1      46.434   7.533  12.442  0.00  0.00    +0.000 S 
ATOM     27  C   UNL     1      45.070   6.543  12.210  0.00  0.00    +0.000 A 
ATOM     28  N   UNL     1      44.035   6.953  11.427  0.00  0.00    +0.000 NA
ATOM     29  C   UNL     1      43.051   6.120  11.370  0.00  0.00    +0.000 A 
ATOM     30  N   UNL     1      43.008   4.913  12.014  0.00  0.00    +0.000 N 
ATOM     31  C   UNL     1      44.052   4.435  12.774  0.00  0.00    +0.000 A 
ATOM     32  O   UNL     1      44.021   3.312  13.269  0.00  0.00    +0.000 OA
ATOM     33  C   UNL     1      45.172   5.347  12.899  0.00  0.00    +0.000 A 
ATOM     34  H   UNL     1      42.213   4.302  11.912  0.00  0.00    +0.000 HD
ENDBRANCH  21  24
ENDBRANCH  19  20
ENDBRANCH   3  19
TORSDOF 6
ENDMDL
MODEL 7
REMARK VINA RESULT:    -7.745      3.880      8.150
REMARK INTER + INTRA:         -11.025
REMARK INTER:                  -9.084
REMARK INTRA:                  -1.941
REMARK UNBOUND:                -0.563
REMARK  Name = 
REMARK  6 active torsions:
REMARK  status: ('A' for Active; 'I' for Inactive)
REMARK    1  A    between atoms: C_2  and  C_4
REMARK    2  A    between atoms: C_8  and  C_9
REMARK    3  A    between atoms: C_9  and  C_10
REMARK    4  A    between atoms: C_12  and  C_13
REMARK    5  A    between atoms: C_13  and  N_14
REMARK    6  A    between atoms: C_15  and  C_17
REMARK                            x       y       z     vdW  Elec       q    Type
REMARK                         _______ _______ _______ _____ _____    ______ ____
ROOT
ATOM      1  C   UNL     1      51.396   7.372  15.821  0.00  0.00    +0.000 A 
ATOM      2  C   UNL     1      50.098   7.874  15.907  0.00  0.00    +0.000 A 
ATOM      3  C   UNL     1      49.667   8.833  14.980  0.00  0.00    +0.000 A 
ATOM      4  C   UNL     1      50.590   9.312  14.048  0.00  0.00    +0.000 A 
ATOM      5  C   UNL     1      51.873   8.791  14.056  0.00  0.00    +0.000 A 
ATOM      6  N   UNL     1      52.293   7.830  14.909  0.00  0.00    +0.000 NA
ENDROOT
BRANCH   1   7
ATOM      7  C   UNL     1      51.824   6.202  16.675  0.00  0.00    +0.000 C 
BRANCH   7  12
ATOM      8  C   UNL     1      49.012   4.004  17.619  0.00  0.00    +0.000 A 
ATOM      9  C   UNL     1      48.857   4.191  18.985  0.00  0.00    +0.000 A 
ATOM     10  C   UNL     1      49.688   5.107  19.617  0.00  0.00    +0.000 A 
ATOM     11  C   UNL     1      50.639   5.799  18.868  0.00  0.00    +0.000 A 
ATOM     12  C   UNL     1      50.739   5.553  17.497  0.00  0.00    +0.000 A 
ATOM     13  N   UNL     1      49.939   4.657  16.861  0.00  0.00    +0.000 NA
BRANCH   8  15
ATOM     14  N   UNL     1      46.996   2.657  17.566  0.00  0.00    +0.000 N 
ATOM     15  C   UNL     1      48.135   3.024  16.903  0.00  0.00    +0.000 C 
ATOM     16  O   UNL     1      48.406   2.577  15.795  0.00  0.00    +0.000 OA
ATOM     17  H   UNL     1      46.367   1.990  17.143  0.00  0.00    +0.000 HD
ATOM     18  H   UNL     1      46.797   3.053  18.477  0.00  0.00    +0.000 HD
ENDBRANCH   8  15
ENDBRANCH   7  12
ENDBRANCH   1   7
BRANCH   3  19
ATOM     19  C   UNL     1      48.231   9.292  14.956  0.00  0.00    +0.000 C 
BRANCH  19  20
ATOM     20  N   UNL     1      47.344   8.320  14.374  0.00  0.00    +0.000 N 
ATOM     21  C   UNL     1      47.020   8.333  13.041  0.00  0.00    +0.000 C 
ATOM     22  O   UNL     1      47.501   9.146  12.256  0.00  0.00    +0.000 OA
ATOM     23  H   UNL     1      46.779   7.772  15.013  0.00  0.00    +0.000 HD
BRANCH  21  24
ATOM     24  C   UNL     1      46.097   7.285  12.586  0.00  0.00    +0.000 A 
ATOM     25  C   UNL     1      44.969   7.636  11.858  0.00  0.00    +0.000 A 
ATOM     26  S   UNL     1      44.020   6.302  11.380  0.00  0.00    +0.000 S 
ATOM     27  C   UNL     1      45.056   5.212  12.176  0.00  0.00    +0.000 A 
ATOM     28  N   UNL     1      44.791   3.877  12.184  0.00  0.00    +0.000 NA
ATOM     29  C   UNL     1      45.638   3.172  12.856  0.00  0.00    +0.000 A 
ATOM     30  N   UNL     1      46.729   3.675  13.513  0.00  0.00    +0.000 N 
ATOM     31  C   UNL     1      47.064   5.010  13.489  0.00  0.00    +0.000 A 
ATOM     32  O   UNL     1      48.096   5.420  14.015  0.00  0.00    +0.000 OA
ATOM     33  C   UNL     1      46.127   5.854  12.774  0.00  0.00    +0.000 A 
ATOM     34  H   UNL     1      47.361   3.064  14.006  0.00  0.00    +0.000 HD
ENDBRANCH  21  24
ENDBRANCH  19  20
ENDBRANCH   3  19
TORSDOF 6
ENDMDL
MODEL 8
REMARK VINA RESULT:    -7.678      2.185      3.555
REMARK INTER + INTRA:         -10.935
REMARK INTER:                  -9.763
REMARK INTRA:                  -1.172
REMARK UNBOUND:                -0.563
REMARK  Name = 
REMARK  6 active torsions:
REMARK  status: ('A' for Active; 'I' for Inactive)
REMARK    1  A    between atoms: C_2  and  C_4
REMARK    2  A    between atoms: C_8  and  C_9
REMARK    3  A    between atoms: C_9  and  C_10
REMARK    4  A    between atoms: C_12  and  C_13
REMARK    5  A    between atoms: C_13  and  N_14
REMARK    6  A    between atoms: C_15  and  C_17
REMARK                            x       y       z     vdW  Elec       q    Type
REMARK                         _______ _______ _______ _____ _____    ______ ____
ROOT
ATOM      1  C   UNL     1      45.590   7.639  12.542  0.00  0.00    +0.000 A 
ATOM      2  C   UNL     1      46.898   7.187  12.728  0.00  0.00    +0.000 A 
ATOM      3  C   UNL     1      47.965   8.080  12.560  0.00  0.00    +0.000 A 
ATOM      4  C   UNL     1      47.680   9.378  12.131  0.00  0.00    +0.000 A 
ATOM      5  C   UNL     1      46.356   9.734  11.929  0.00  0.00    +0.000 A 
ATOM      6  N   UNL     1      45.310   8.903  12.133  0.00  0.00    +0.000 NA
ENDROOT
BRANCH   1   7
ATOM      7  C   UNL     1      44.417   6.759  12.905  0.00  0.00    +0.000 C 
BRANCH   7  12
ATOM      8  C   UNL     1      44.712   4.231  10.231  0.00  0.00    +0.000 A 
ATOM      9  C   UNL     1      44.367   3.031  10.836  0.00  0.00    +0.000 A 
ATOM     10  C   UNL     1      43.984   3.060  12.171  0.00  0.00    +0.000 A 
ATOM     11  C   UNL     1      43.961   4.276  12.850  0.00  0.00    +0.000 A 
ATOM     12  C   UNL     1      44.328   5.443  12.176  0.00  0.00    +0.000 A 
ATOM     13  N   UNL     1      44.709   5.436  10.871  0.00  0.00    +0.000 NA
BRANCH   8  15
ATOM     14  N   UNL     1      44.393   3.445   7.959  0.00  0.00    +0.000 N 
ATOM     15  C   UNL     1      45.130   4.240   8.793  0.00  0.00    +0.000 C 
ATOM     16  O   UNL     1      46.065   4.915   8.378  0.00  0.00    +0.000 OA
ATOM     17  H   UNL     1      44.631   3.397   6.979  0.00  0.00    +0.000 HD
ATOM     18  H   UNL     1      43.620   2.907   8.333  0.00  0.00    +0.000 HD
ENDBRANCH   8  15
ENDBRANCH   7  12
ENDBRANCH   1   7
BRANCH   3  19
ATOM     19  C   UNL     1      49.376   7.665  12.889  0.00  0.00    +0.000 C 
BRANCH  19  20
ATOM     20  N   UNL     1      49.452   6.816  14.049  0.00  0.00    +0.000 N 
ATOM     21  C   UNL     1      49.314   7.305  15.323  0.00  0.00    +0.000 C 
ATOM     22  O   UNL     1      49.075   8.489  15.549  0.00  0.00    +0.000 OA
ATOM     23  H   UNL     1      49.845   5.891  13.917  0.00  0.00    +0.000 HD
BRANCH  21  24
ATOM     24  C   UNL     1      49.422   6.325  16.411  0.00  0.00    +0.000 A 
ATOM     25  C   UNL     1      50.399   6.487  17.384  0.00  0.00    +0.000 A 
ATOM     26  S   UNL     1      50.369   5.283  18.591  0.00  0.00    +0.000 S 
ATOM     27  C   UNL     1      49.084   4.472  17.826  0.00  0.00    +0.000 A 
ATOM     28  N   UNL     1      48.584   3.314  18.339  0.00  0.00    +0.000 NA
ATOM     29  C   UNL     1      47.638   2.787  17.638  0.00  0.00    +0.000 A 
ATOM     30  N   UNL     1      47.138   3.314  16.477  0.00  0.00    +0.000 N 
ATOM     31  C   UNL     1      47.576   4.507  15.949  0.00  0.00    +0.000 A 
ATOM     32  O   UNL     1      47.049   4.997  14.953  0.00  0.00    +0.000 OA
ATOM     33  C   UNL     1      48.664   5.127  16.681  0.00  0.00    +0.000 A 
ATOM     34  H   UNL     1      46.384   2.857  15.987  0.00  0.00    +0.000 HD
ENDBRANCH  21  24
ENDBRANCH  19  20
ENDBRANCH   3  19
TORSDOF 6
ENDMDL
MODEL 9
REMARK VINA RESULT:    -7.552      3.982      8.259
REMARK INTER + INTRA:         -10.764
REMARK INTER:                  -9.479
REMARK INTRA:                  -1.285
REMARK UNBOUND:                -0.563
REMARK  Name = 
REMARK  6 active torsions:
REMARK  status: ('A' for Active; 'I' for Inactive)
REMARK    1  A    between atoms: C_2  and  C_4
REMARK    2  A    between atoms: C_8  and  C_9
REMARK    3  A    between atoms: C_9  and  C_10
REMARK    4  A    between atoms: C_12  and  C_13
REMARK    5  A    between atoms: C_13  and  N_14
REMARK    6  A    between atoms: C_15  and  C_17
REMARK                            x       y       z     vdW  Elec       q    Type
REMARK                         _______ _______ _______ _____ _____    ______ ____
ROOT
ATOM      1  C   UNL     1      48.758   7.568  18.453  0.00  0.00    +0.000 A 
ATOM      2  C   UNL     1      48.468   7.602  17.089  0.00  0.00    +0.000 A 
ATOM      3  C   UNL     1      48.707   8.776  16.362  0.00  0.00    +0.000 A 
ATOM      4  C   UNL     1      49.154   9.903  17.056  0.00  0.00    +0.000 A 
ATOM      5  C   UNL     1      49.377   9.797  18.420  0.00  0.00    +0.000 A 
ATOM      6  N   UNL     1      49.202   8.660  19.128  0.00  0.00    +0.000 NA
ENDROOT
BRANCH   1   7
ATOM      7  C   UNL     1      48.699   6.266  19.217  0.00  0.00    +0.000 C 
BRANCH   7  12
ATOM      8  C   UNL     1      49.535   3.078  17.554  0.00  0.00    +0.000 A 
ATOM      9  C   UNL     1      48.333   2.623  17.031  0.00  0.00    +0.000 A 
ATOM     10  C   UNL     1      47.206   3.418  17.199  0.00  0.00    +0.000 A 
ATOM     11  C   UNL     1      47.317   4.628  17.881  0.00  0.00    +0.000 A 
ATOM     12  C   UNL     1      48.561   5.017  18.385  0.00  0.00    +0.000 A 
ATOM     13  N   UNL     1      49.674   4.253  18.234  0.00  0.00    +0.000 NA
BRANCH   8  15
ATOM     14  N   UNL     1      51.850   2.646  18.136  0.00  0.00    +0.000 N 
ATOM     15  C   UNL     1      50.772   2.249  17.393  0.00  0.00    +0.000 C 
ATOM     16  O   UNL     1      50.825   1.275  16.652  0.00  0.00    +0.000 OA
ATOM     17  H   UNL     1      52.718   2.137  18.064  0.00  0.00    +0.000 HD
ATOM     18  H   UNL     1      51.769   3.451  18.746  0.00  0.00    +0.000 HD
ENDBRANCH   8  15
ENDBRANCH   7  12
ENDBRANCH   1   7
BRANCH   3  19
ATOM     19  C   UNL     1      48.539   8.804  14.865  0.00  0.00    +0.000 C 
BRANCH  19  20
ATOM     20  N   UNL     1      47.571   7.849  14.394  0.00  0.00    +0.000 N 
ATOM     21  C   UNL     1      47.922   6.776  13.614  0.00  0.00    +0.000 C 
ATOM     22  O   UNL     1      49.088   6.542  13.308  0.00  0.00    +0.000 OA
ATOM     23  H   UNL     1      46.595   8.117  14.452  0.00  0.00    +0.000 HD
BRANCH  21  24
ATOM     24  C   UNL     1      46.828   5.888  13.200  0.00  0.00    +0.000 A 
ATOM     25  C   UNL     1      46.929   4.524  13.434  0.00  0.00    +0.000 A 
ATOM     26  S   UNL     1      45.564   3.639  12.923  0.00  0.00    +0.000 S 
ATOM     27  C   UNL     1      44.812   5.042  12.322  0.00  0.00    +0.000 A 
ATOM     28  N   UNL     1      43.598   4.977  11.710  0.00  0.00    +0.000 NA
ATOM     29  C   UNL     1      43.164   6.109  11.270  0.00  0.00    +0.000 A 
ATOM     30  N   UNL     1      43.825   7.303  11.392  0.00  0.00    +0.000 N 
ATOM     31  C   UNL     1      45.029   7.425  12.047  0.00  0.00    +0.000 A 
ATOM     32  O   UNL     1      45.556   8.521  12.217  0.00  0.00    +0.000 OA
ATOM     33  C   UNL     1      45.580   6.175  12.534  0.00  0.00    +0.000 A 
ATOM     34  H   UNL     1      43.419   8.155  11.039  0.00  0.00    +0.000 HD
ENDBRANCH  21  24
ENDBRANCH  19  20
ENDBRANCH   3  19
TORSDOF 6
ENDMDL
