MODEL 1
REMARK VINA RESULT:    -7.201      0.000      0.000
REMARK INTER + INTRA:          -9.125
REMARK INTER:                  -8.464
REMARK INTRA:                  -0.661
REMARK UNBOUND:                -0.661
REMARK  Name = 
REMARK  3 active torsions:
REMARK  status: ('A' for Active; 'I' for Inactive)
REMARK    1  A    between atoms: N_5  and  C_6
REMARK    2  A    between atoms: C_6  and  C_7
REMARK    3  A    between atoms: C_11  and  N_12
REMARK                            x       y       z     vdW  Elec       q    Type
REMARK                         _______ _______ _______ _____ _____    ______ ____
ROOT
ATOM      1  C   UNL     1      44.811   4.527  11.417  0.00  0.00    +0.000 A 
ATOM      2  C   UNL     1      45.353   3.494  12.191  0.00  0.00    +0.000 A 
ATOM      3  C   UNL     1      46.197   3.788  13.254  0.00  0.00    +0.000 A 
ATOM      4  C   UNL     1      46.503   5.117  13.552  0.00  0.00    +0.000 A 
ATOM      5  C   UNL     1      45.975   6.187  12.808  0.00  0.00    +0.000 A 
ATOM      6  C   UNL     1      45.104   5.866  11.756  0.00  0.00    +0.000 A 
ENDROOT
BRANCH   5   7
ATOM      7  N   UNL     1      46.336   7.488  13.124  0.00  0.00    +0.000 N 
ATOM      8  C   UNL     1      45.437   8.626  12.930  0.00  0.00    +0.000 C 
ATOM      9  C   UNL     1      45.924   9.524  11.793  0.00  0.00    +0.000 C 
ATOM     10  C   UNL     1      47.392   9.909  11.973  0.00  0.00    +0.000 C 
ATOM     11  C   UNL     1      48.255   8.664  12.142  0.00  0.00    +0.000 C 
ATOM     12  C   UNL     1      47.759   7.801  13.302  0.00  0.00    +0.000 C 
ENDBRANCH   5   7
BRANCH   1  13
ATOM     13  C   UNL     1      43.991   4.194  10.192  0.00  0.00    +0.000 C 
BRANCH  13  18
ATOM     14  C   UNL     1      47.024   1.938   7.012  0.00  0.00    +0.000 A 
ATOM     15  C   UNL     1      46.236   1.574   8.073  0.00  0.00    +0.000 A 
ATOM     16  N   UNL     1      45.451   2.438   8.742  0.00  0.00    +0.000 NA
ATOM     17  C   UNL     1      45.466   3.727   8.363  0.00  0.00    +0.000 A 
ATOM     18  N   UNL     1      44.637   4.637   8.980  0.00  0.00    +0.000 N 
ATOM     19  N   UNL     1      46.232   4.181   7.356  0.00  0.00    +0.000 NA
ATOM     20  C   UNL     1      46.980   3.273   6.692  0.00  0.00    +0.000 A 
ATOM     21  H   UNL     1      44.987   5.582   8.916  0.00  0.00    +0.000 HD
ENDBRANCH  13  18
ENDBRANCH   1  13
TORSDOF 3
ENDMDL
MODEL 2
REMARK VINA RESULT:    -7.171      2.902      6.944
REMARK INTER + INTRA:          -9.090
REMARK INTER:                  -8.544
REMARK INTRA:                  -0.546
REMARK UNBOUND:                -0.661
REMARK  Name = 
REMARK  3 active torsions:
REMARK  status: ('A' for Active; 'I' for Inactive)
REMARK    1  A    between atoms: N_5  and  C_6
REMARK    2  A    between atoms: C_6  and  C_7
REMARK    3  A    between atoms: C_11  and  N_12
REMARK                            x       y       z     vdW  Elec       q    Type
REMARK                         _______ _______ _______ _____ _____    ______ ____
ROOT
ATOM      1  C   UNL     1      45.220   4.709  12.864  0.00  0.00    +0.000 A 
ATOM      2  C   UNL     1      44.004   5.309  13.215  0.00  0.00    +0.000 A 
ATOM      3  C   UNL     1      42.930   5.275  12.335  0.00  0.00    +0.000 A 
ATOM      4  C   UNL     1      43.063   4.639  11.100  0.00  0.00    +0.000 A 
ATOM      5  C   UNL     1      44.261   4.015  10.708  0.00  0.00    +0.000 A 
ATOM      6  C   UNL     1      45.323   4.039  11.625  0.00  0.00    +0.000 A 
ENDROOT
BRANCH   5   7
ATOM      7  N   UNL     1      44.352   3.425   9.457  0.00  0.00    +0.000 N 
ATOM      8  C   UNL     1      44.468   1.978   9.272  0.00  0.00    +0.000 C 
ATOM      9  C   UNL     1      45.859   1.597   8.766  0.00  0.00    +0.000 C 
ATOM     10  C   UNL     1      46.252   2.419   7.539  0.00  0.00    +0.000 C 
ATOM     11  C   UNL     1      46.125   3.911   7.830  0.00  0.00    +0.000 C 
ATOM     12  C   UNL     1      44.717   4.263   8.308  0.00  0.00    +0.000 C 
ENDBRANCH   5   7
BRANCH   1  13
ATOM     13  C   UNL     1      46.417   4.853  13.775  0.00  0.00    +0.000 C 
BRANCH  13  18
ATOM     14  C   UNL     1      49.183   3.524  17.646  0.00  0.00    +0.000 A 
ATOM     15  C   UNL     1      48.544   4.658  17.215  0.00  0.00    +0.000 A 
ATOM     16  N   UNL     1      47.796   4.705  16.099  0.00  0.00    +0.000 NA
ATOM     17  C   UNL     1      47.694   3.588  15.358  0.00  0.00    +0.000 A 
ATOM     18  N   UNL     1      46.893   3.572  14.239  0.00  0.00    +0.000 N 
ATOM     19  N   UNL     1      48.313   2.440  15.686  0.00  0.00    +0.000 NA
ATOM     20  C   UNL     1      49.028   2.429  16.831  0.00  0.00    +0.000 A 
ATOM     21  H   UNL     1      47.180   2.873  13.569  0.00  0.00    +0.000 HD
ENDBRANCH  13  18
ENDBRANCH   1  13
TORSDOF 3
ENDMDL
MODEL 3
REMARK VINA RESULT:    -6.450      3.485      6.925
REMARK INTER + INTRA:          -8.242
REMARK INTER:                  -7.612
REMARK INTRA:                  -0.630
REMARK UNBOUND:                -0.661
REMARK  Name = 
REMARK  3 active torsions:
REMARK  status: ('A' for Active; 'I' for Inactive)
REMARK    1  A    between atoms: N_5  and  C_6
REMARK    2  A    between atoms: C_6  and  C_7
REMARK    3  A    between atoms: C_11  and  N_12
REMARK                            x       y       z     vdW  Elec       q    Type
REMARK                         _______ _______ _______ _____ _____    ______ ____
ROOT
ATOM      1  C   UNL     1      46.690   5.236  13.961  0.00  0.00    +0.000 A 
ATOM      2  C   UNL     1      47.623   6.228  13.634  0.00  0.00    +0.000 A 
ATOM      3  C   UNL     1      47.654   6.759  12.351  0.00  0.00    +0.000 A 
ATOM      4  C   UNL     1      46.752   6.305  11.388  0.00  0.00    +0.000 A 
ATOM      5  C   UNL     1      45.793   5.318  11.673  0.00  0.00    +0.000 A 
ATOM      6  C   UNL     1      45.763   4.816  12.983  0.00  0.00    +0.000 A 
ENDROOT
BRANCH   5   7
ATOM      7  N   UNL     1      44.940   4.877  10.672  0.00  0.00    +0.000 N 
ATOM      8  C   UNL     1      43.877   3.901  10.913  0.00  0.00    +0.000 C 
ATOM      9  C   UNL     1      44.196   2.564  10.246  0.00  0.00    +0.000 C 
ATOM     10  C   UNL     1      44.557   2.746   8.772  0.00  0.00    +0.000 C 
ATOM     11  C   UNL     1      45.687   3.758   8.618  0.00  0.00    +0.000 C 
ATOM     12  C   UNL     1      45.328   5.091   9.273  0.00  0.00    +0.000 C 
ENDBRANCH   5   7
BRANCH   1  13
ATOM     13  C   UNL     1      46.742   4.580  15.321  0.00  0.00    +0.000 C 
BRANCH  13  18
ATOM     14  C   UNL     1      50.627   2.640  17.676  0.00  0.00    +0.000 A 
ATOM     15  C   UNL     1      49.861   3.773  17.774  0.00  0.00    +0.000 A 
ATOM     16  N   UNL     1      48.794   4.013  16.991  0.00  0.00    +0.000 NA
ATOM     17  C   UNL     1      48.484   3.105  16.050  0.00  0.00    +0.000 A 
ATOM     18  N   UNL     1      47.367   3.280  15.264  0.00  0.00    +0.000 N 
ATOM     19  N   UNL     1      49.198   1.982  15.860  0.00  0.00    +0.000 NA
ATOM     20  C   UNL     1      50.242   1.767  16.688  0.00  0.00    +0.000 A 
ATOM     21  H   UNL     1      47.439   2.798  14.380  0.00  0.00    +0.000 HD
ENDBRANCH  13  18
ENDBRANCH   1  13
TORSDOF 3
ENDMDL
MODEL 4
REMARK VINA RESULT:    -6.203      2.686      4.754
REMARK INTER + INTRA:          -7.952
REMARK INTER:                  -7.489
REMARK INTRA:                  -0.463
REMARK UNBOUND:                -0.661
REMARK  Name = 
REMARK  3 active torsions:
REMARK  status: ('A' for Active; 'I' for Inactive)
REMARK    1  A    between atoms: N_5  and  C_6
REMARK    2  A    between atoms: C_6  and  C_7
REMARK    3  A    between atoms: C_11  and  N_12
REMARK                            x       y       z     vdW  Elec       q    Type
REMARK                         _______ _______ _______ _____ _____    ______ ____
ROOT
ATOM      1  C   UNL     1      46.069   2.948   7.472  0.00  0.00    +0.000 A 
ATOM      2  C   UNL     1      45.643   1.703   7.953  0.00  0.00    +0.000 A 
ATOM      3  C   UNL     1      44.955   1.620   9.157  0.00  0.00    +0.000 A 
ATOM      4  C   UNL     1      44.687   2.780   9.887  0.00  0.00    +0.000 A 
ATOM      5  C   UNL     1      45.087   4.051   9.439  0.00  0.00    +0.000 A 
ATOM      6  C   UNL     1      45.756   4.112   8.207  0.00  0.00    +0.000 A 
ENDROOT
BRANCH   5   7
ATOM      7  N   UNL     1      44.825   5.168  10.216  0.00  0.00    +0.000 N 
ATOM      8  C   UNL     1      45.881   6.053  10.708  0.00  0.00    +0.000 C 
ATOM      9  C   UNL     1      46.048   5.922  12.221  0.00  0.00    +0.000 C 
ATOM     10  C   UNL     1      44.712   6.076  12.947  0.00  0.00    +0.000 C 
ATOM     11  C   UNL     1      43.682   5.101  12.388  0.00  0.00    +0.000 C 
ATOM     12  C   UNL     1      43.519   5.275  10.878  0.00  0.00    +0.000 C 
ENDBRANCH   5   7
BRANCH   1  13
ATOM     13  C   UNL     1      46.918   3.016   6.224  0.00  0.00    +0.000 C 
BRANCH  13  18
ATOM     14  C   UNL     1      46.178  -0.230   2.574  0.00  0.00    +0.000 A 
ATOM     15  C   UNL     1      45.797   1.056   2.863  0.00  0.00    +0.000 A 
ATOM     16  N   UNL     1      46.213   1.722   3.954  0.00  0.00    +0.000 NA
ATOM     17  C   UNL     1      47.022   1.081   4.816  0.00  0.00    +0.000 A 
ATOM     18  N   UNL     1      47.520   1.741   5.916  0.00  0.00    +0.000 N 
ATOM     19  N   UNL     1      47.420  -0.190   4.630  0.00  0.00    +0.000 NA
ATOM     20  C   UNL     1      47.004  -0.810   3.506  0.00  0.00    +0.000 A 
ATOM     21  H   UNL     1      47.766   1.110   6.666  0.00  0.00    +0.000 HD
ENDBRANCH  13  18
ENDBRANCH   1  13
TORSDOF 3
ENDMDL
MODEL 5
REMARK VINA RESULT:    -6.087      2.798      6.908
REMARK INTER + INTRA:          -7.816
REMARK INTER:                  -7.090
REMARK INTRA:                  -0.726
REMARK UNBOUND:                -0.661
REMARK  Name = 
REMARK  3 active torsions:
REMARK  status: ('A' for Active; 'I' for Inactive)
REMARK    1  A    between atoms: N_5  and  C_6
REMARK    2  A    between atoms: C_6  and  C_7
REMARK    3  A    between atoms: C_11  and  N_12
REMARK                            x       y       z     vdW  Elec       q    Type
REMARK                         _______ _______ _______ _____ _____    ______ ____
ROOT
ATOM      1  C   UNL     1      47.325   7.137  13.573  0.00  0.00    +0.000 A 
ATOM      2  C   UNL     1      47.128   8.510  13.377  0.00  0.00    +0.000 A 
ATOM      3  C   UNL     1      46.009   8.962  12.690  0.00  0.00    +0.000 A 
ATOM      4  C   UNL     1      45.078   8.046  12.198  0.00  0.00    +0.000 A 
ATOM      5  C   UNL     1      45.229   6.660  12.379  0.00  0.00    +0.000 A 
ATOM      6  C   UNL     1      46.354   6.229  13.099  0.00  0.00    +0.000 A 
ENDROOT
BRANCH   5   7
ATOM      7  N   UNL     1      44.294   5.789  11.842  0.00  0.00    +0.000 N 
ATOM      8  C   UNL     1      43.128   5.322  12.592  0.00  0.00    +0.000 C 
ATOM      9  C   UNL     1      43.255   3.839  12.939  0.00  0.00    +0.000 C 
ATOM     10  C   UNL     1      43.582   3.001  11.703  0.00  0.00    +0.000 C 
ATOM     11  C   UNL     1      44.822   3.544  11.000  0.00  0.00    +0.000 C 
ATOM     12  C   UNL     1      44.653   5.021  10.644  0.00  0.00    +0.000 C 
ENDBRANCH   5   7
BRANCH   1  13
ATOM     13  C   UNL     1      48.603   6.649  14.216  0.00  0.00    +0.000 C 
BRANCH  13  18
ATOM     14  C   UNL     1      47.579   3.219  17.620  0.00  0.00    +0.000 A 
ATOM     15  C   UNL     1      47.839   3.247  16.274  0.00  0.00    +0.000 A 
ATOM     16  N   UNL     1      48.144   4.372  15.603  0.00  0.00    +0.000 NA
ATOM     17  C   UNL     1      48.167   5.528  16.288  0.00  0.00    +0.000 A 
ATOM     18  N   UNL     1      48.529   6.697  15.656  0.00  0.00    +0.000 N 
ATOM     19  N   UNL     1      47.892   5.601  17.602  0.00  0.00    +0.000 NA
ATOM     20  C   UNL     1      47.622   4.443  18.242  0.00  0.00    +0.000 A 
ATOM     21  H   UNL     1      48.149   7.514  16.111  0.00  0.00    +0.000 HD
ENDBRANCH  13  18
ENDBRANCH   1  13
TORSDOF 3
ENDMDL
MODEL 6
REMARK VINA RESULT:    -5.917      2.262      6.741
REMARK INTER + INTRA:          -7.615
REMARK INTER:                  -6.956
REMARK INTRA:                  -0.659
REMARK UNBOUND:                -0.661
REMARK  Name = 
REMARK  3 active torsions:
REMARK  status: ('A' for Active; 'I' for Inactive)
REMARK    1  A    between atoms: N_5  and  C_6
REMARK    2  A    between atoms: C_6  and  C_7
REMARK    3  A    between atoms: C_11  and  N_12
REMARK                            x       y       z     vdW  Elec       q    Type
REMARK                         _______ _______ _______ _____ _____    ______ ____
ROOT
ATOM      1  C   UNL     1      45.509   6.639  11.836  0.00  0.00    +0.000 A 
ATOM      2  C   UNL     1      45.189   5.962  13.020  0.00  0.00    +0.000 A 
ATOM      3  C   UNL     1      44.773   4.638  12.975  0.00  0.00    +0.000 A 
ATOM      4  C   UNL     1      44.676   3.980  11.748  0.00  0.00    +0.000 A 
ATOM      5  C   UNL     1      44.996   4.616  10.535  0.00  0.00    +0.000 A 
ATOM      6  C   UNL     1      45.439   5.945  10.608  0.00  0.00    +0.000 A 
ENDROOT
BRANCH   5   7
ATOM      7  N   UNL     1      44.852   3.929   9.339  0.00  0.00    +0.000 N 
ATOM      8  C   UNL     1      44.533   2.502   9.281  0.00  0.00    +0.000 C 
ATOM      9  C   UNL     1      45.727   1.691   8.779  0.00  0.00    +0.000 C 
ATOM     10  C   UNL     1      46.283   2.263   7.476  0.00  0.00    +0.000 C 
ATOM     11  C   UNL     1      46.609   3.744   7.635  0.00  0.00    +0.000 C 
ATOM     12  C   UNL     1      45.389   4.530   8.113  0.00  0.00    +0.000 C 
ENDBRANCH   5   7
BRANCH   1  13
ATOM     13  C   UNL     1      45.846   8.111  11.882  0.00  0.00    +0.000 C 
BRANCH  13  18
ATOM     14  C   UNL     1      42.996  11.677   9.992  0.00  0.00    +0.000 A 
ATOM     15  C   UNL     1      43.915  10.774   9.521  0.00  0.00    +0.000 A 
ATOM     16  N   UNL     1      44.516   9.857  10.299  0.00  0.00    +0.000 NA
ATOM     17  C   UNL     1      44.216   9.847  11.610  0.00  0.00    +0.000 A 
ATOM     18  N   UNL     1      44.763   8.889  12.435  0.00  0.00    +0.000 N 
ATOM     19  N   UNL     1      43.354  10.715  12.165  0.00  0.00    +0.000 NA
ATOM     20  C   UNL     1      42.750  11.598  11.341  0.00  0.00    +0.000 A 
ATOM     21  H   UNL     1      44.802   9.188  13.398  0.00  0.00    +0.000 HD
ENDBRANCH  13  18
ENDBRANCH   1  13
TORSDOF 3
ENDMDL
MODEL 7
REMARK VINA RESULT:    -5.871      3.348      7.503
REMARK INTER + INTRA:          -7.562
REMARK INTER:                  -6.955
REMARK INTRA:                  -0.608
REMARK UNBOUND:                -0.661
REMARK  Name = 
REMARK  3 active torsions:
REMARK  status: ('A' for Active; 'I' for Inactive)
REMARK    1  A    between atoms: N_5  and  C_6
REMARK    2  A    between atoms: C_6  and  C_7
REMARK    3  A    between atoms: C_11  and  N_12
REMARK                            x       y       z     vdW  Elec       q    Type
REMARK                         _______ _______ _______ _____ _____    ______ ____
ROOT
ATOM      1  C   UNL     1      48.293   6.816  13.809  0.00  0.00    +0.000 A 
ATOM      2  C   UNL     1      48.483   7.554  12.634  0.00  0.00    +0.000 A 
ATOM      3  C   UNL     1      47.631   7.373  11.553  0.00  0.00    +0.000 A 
ATOM      4  C   UNL     1      46.582   6.456  11.639  0.00  0.00    +0.000 A 
ATOM      5  C   UNL     1      46.348   5.700  12.801  0.00  0.00    +0.000 A 
ATOM      6  C   UNL     1      47.206   5.920  13.889  0.00  0.00    +0.000 A 
ENDROOT
BRANCH   5   7
ATOM      7  N   UNL     1      45.313   4.778  12.825  0.00  0.00    +0.000 N 
ATOM      8  C   UNL     1      45.469   3.402  12.353  0.00  0.00    +0.000 C 
ATOM      9  C   UNL     1      44.692   3.172  11.058  0.00  0.00    +0.000 C 
ATOM     10  C   UNL     1      43.239   3.628  11.189  0.00  0.00    +0.000 C 
ATOM     11  C   UNL     1      43.172   5.077  11.660  0.00  0.00    +0.000 C 
ATOM     12  C   UNL     1      43.937   5.268  12.970  0.00  0.00    +0.000 C 
ENDBRANCH   5   7
BRANCH   1  13
ATOM     13  C   UNL     1      49.295   6.932  14.936  0.00  0.00    +0.000 C 
BRANCH  13  18
ATOM     14  C   UNL     1      49.063   3.872  18.807  0.00  0.00    +0.000 A 
ATOM     15  C   UNL     1      49.773   3.953  17.636  0.00  0.00    +0.000 A 
ATOM     16  N   UNL     1      49.649   4.971  16.766  0.00  0.00    +0.000 NA
ATOM     17  C   UNL     1      48.764   5.942  17.052  0.00  0.00    +0.000 A 
ATOM     18  N   UNL     1      48.644   7.032  16.220  0.00  0.00    +0.000 N 
ATOM     19  N   UNL     1      48.002   5.928  18.160  0.00  0.00    +0.000 NA
ATOM     20  C   UNL     1      48.182   4.903  19.020  0.00  0.00    +0.000 A 
ATOM     21  H   UNL     1      47.737   7.471  16.289  0.00  0.00    +0.000 HD
ENDBRANCH  13  18
ENDBRANCH   1  13
TORSDOF 3
ENDMDL
MODEL 8
REMARK VINA RESULT:    -5.870      4.837      6.624
REMARK INTER + INTRA:          -7.561
REMARK INTER:                  -7.018
REMARK INTRA:                  -0.542
REMARK UNBOUND:                -0.661
REMARK  Name = 
REMARK  3 active torsions:
REMARK  status: ('A' for Active; 'I' for Inactive)
REMARK    1  A    between atoms: N_5  and  C_6
REMARK    2  A    between atoms: C_6  and  C_7
REMARK    3  A    between atoms: C_11  and  N_12
REMARK                            x       y       z     vdW  Elec       q    Type
REMARK                         _______ _______ _______ _____ _____    ______ ____
ROOT
ATOM      1  C   UNL     1      47.576   4.238  15.898  0.00  0.00    +0.000 A 
ATOM      2  C   UNL     1      48.038   2.916  15.895  0.00  0.00    +0.000 A 
ATOM      3  C   UNL     1      48.751   2.425  16.981  0.00  0.00    +0.000 A 
ATOM      4  C   UNL     1      49.003   3.250  18.078  0.00  0.00    +0.000 A 
ATOM      5  C   UNL     1      48.551   4.580  18.129  0.00  0.00    +0.000 A 
ATOM      6  C   UNL     1      47.810   5.045  17.031  0.00  0.00    +0.000 A 
ENDROOT
BRANCH   5   7
ATOM      7  N   UNL     1      48.856   5.369  19.227  0.00  0.00    +0.000 N 
ATOM      8  C   UNL     1      48.829   4.859  20.598  0.00  0.00    +0.000 C 
ATOM      9  C   UNL     1      47.666   5.461  21.386  0.00  0.00    +0.000 C 
ATOM     10  C   UNL     1      47.651   6.985  21.285  0.00  0.00    +0.000 C 
ATOM     11  C   UNL     1      47.655   7.425  19.824  0.00  0.00    +0.000 C 
ATOM     12  C   UNL     1      48.843   6.828  19.071  0.00  0.00    +0.000 C 
ENDBRANCH   5   7
BRANCH   1  13
ATOM     13  C   UNL     1      46.906   4.799  14.664  0.00  0.00    +0.000 C 
BRANCH  13  18
ATOM     14  C   UNL     1      42.939   4.675  11.724  0.00  0.00    +0.000 A 
ATOM     15  C   UNL     1      43.658   5.631  12.394  0.00  0.00    +0.000 A 
ATOM     16  N   UNL     1      44.767   5.358  13.104  0.00  0.00    +0.000 NA
ATOM     17  C   UNL     1      45.169   4.078  13.180  0.00  0.00    +0.000 A 
ATOM     18  N   UNL     1      46.330   3.758  13.848  0.00  0.00    +0.000 N 
ATOM     19  N   UNL     1      44.507   3.071  12.583  0.00  0.00    +0.000 NA
ATOM     20  C   UNL     1      43.418   3.394  11.855  0.00  0.00    +0.000 A 
ATOM     21  H   UNL     1      46.334   2.803  14.179  0.00  0.00    +0.000 HD
ENDBRANCH  13  18
ENDBRANCH   1  13
TORSDOF 3
ENDMDL
MODEL 9
REMARK VINA RESULT:    -5.839      4.340      7.523
REMARK INTER + INTRA:          -7.524
REMARK INTER:                  -6.912
REMARK INTRA:                  -0.612
REMARK UNBOUND:                -0.661
REMARK  Name = 
REMARK  3 active torsions:
REMARK  status: ('A' for Active; 'I' for Inactive)
REMARK    1  A    between atoms: N_5  and  C_6
REMARK    2  A    between atoms: C_6  and  C_7
REMARK    3  A    between atoms: C_11  and  N_12
REMARK                            x       y       z     vdW  Elec       q    Type
REMARK                         _______ _______ _______ _____ _____    ______ ____
ROOT
ATOM      1  C   UNL     1      47.733   5.243  15.343  0.00  0.00    +0.000 A 
ATOM      2  C   UNL     1      48.451   6.403  15.027  0.00  0.00    +0.000 A 
ATOM      3  C   UNL     1      48.274   7.019  13.796  0.00  0.00    +0.000 A 
ATOM      4  C   UNL     1      47.376   6.481  12.872  0.00  0.00    +0.000 A 
ATOM      5  C   UNL     1      46.627   5.324  13.148  0.00  0.00    +0.000 A 
ATOM      6  C   UNL     1      46.804   4.735  14.409  0.00  0.00    +0.000 A 
ENDROOT
BRANCH   5   7
ATOM      7  N   UNL     1      45.773   4.811  12.184  0.00  0.00    +0.000 N 
ATOM      8  C   UNL     1      45.212   5.629  11.109  0.00  0.00    +0.000 C 
ATOM      9  C   UNL     1      43.712   5.841  11.304  0.00  0.00    +0.000 C 
ATOM     10  C   UNL     1      42.984   4.517  11.527  0.00  0.00    +0.000 C 
ATOM     11  C   UNL     1      43.618   3.744  12.679  0.00  0.00    +0.000 C 
ATOM     12  C   UNL     1      45.112   3.526  12.442  0.00  0.00    +0.000 C 
ENDBRANCH   5   7
BRANCH   1  13
ATOM     13  C   UNL     1      48.020   4.513  16.635  0.00  0.00    +0.000 C 
BRANCH  13  18
ATOM     14  C   UNL     1      52.115   2.009  17.802  0.00  0.00    +0.000 A 
ATOM     15  C   UNL     1      50.954   1.765  17.113  0.00  0.00    +0.000 A 
ATOM     16  N   UNL     1      50.005   2.695  16.912  0.00  0.00    +0.000 NA
ATOM     17  C   UNL     1      50.197   3.918  17.438  0.00  0.00    +0.000 A 
ATOM     18  N   UNL     1      49.280   4.919  17.209  0.00  0.00    +0.000 N 
ATOM     19  N   UNL     1      51.289   4.237  18.155  0.00  0.00    +0.000 NA
ATOM     20  C   UNL     1      52.230   3.281  18.306  0.00  0.00    +0.000 A 
ATOM     21  H   UNL     1      49.298   5.629  17.927  0.00  0.00    +0.000 HD
ENDBRANCH  13  18
ENDBRANCH   1  13
TORSDOF 3
ENDMDL
