MODEL 1
REMARK VINA RESULT:    -7.798      0.000      0.000
REMARK INTER + INTRA:         -12.080
REMARK INTER:                 -10.989
REMARK INTRA:                  -1.091
REMARK UNBOUND:                -1.091
REMARK  Name = 
REMARK  10 active torsions:
REMARK  status: ('A' for Active; 'I' for Inactive)
REMARK    1  A    between atoms: C_1  and  C_2
REMARK    2  A    between atoms: C_4  and  C_5
REMARK    3  A    between atoms: C_5  and  N_6
REMARK    4  A    between atoms: N_6  and  C_7
REMARK    5  A    between atoms: N_6  and  C_8
REMARK    6  A    between atoms: C_8  and  C_9
REMARK    7  A    between atoms: C_17  and  C_18
REMARK    8  A    between atoms: C_18  and  N_19
REMARK    9  A    between atoms: N_19  and  C_20
REMARK   10  A    between atoms: C_21  and  C_23
REMARK                            x       y       z     vdW  Elec       q    Type
REMARK                         _______ _______ _______ _____ _____    ______ ____
ROOT
ATOM      1  C   UNL     1      47.451   8.721  12.160  0.00  0.00    +0.000 C 
ATOM      2  C   UNL     1      46.937   7.433  12.749  0.00  0.00    +0.000 A 
ATOM      3  C   UNL     1      45.743   6.959  12.167  0.00  0.00    +0.000 A 
ATOM      4  C   UNL     1      45.297   5.650  12.347  0.00  0.00    +0.000 A 
ATOM      5  C   UNL     1      45.997   4.833  13.235  0.00  0.00    +0.000 A 
ATOM      6  C   UNL     1      47.125   5.324  13.914  0.00  0.00    +0.000 A 
ATOM      7  C   UNL     1      47.638   6.619  13.671  0.00  0.00    +0.000 A 
ENDROOT
BRANCH   4   8
ATOM      8  C   UNL     1      44.169   5.138  11.473  0.00  0.00    +0.000 C 
BRANCH   8   9
ATOM      9  N   UNL     1      44.336   3.760  10.980  0.00  0.00    +0.000 NA
ATOM     10  C   UNL     1      43.394   2.861  11.663  0.00  0.00    +0.000 C 
BRANCH   9  11
ATOM     11  C   UNL     1      44.077   3.705   9.524  0.00  0.00    +0.000 C 
BRANCH  11  12
ATOM     12  C   UNL     1      45.227   3.175   8.689  0.00  0.00    +0.000 A 
ATOM     13  C   UNL     1      45.555   1.811   8.698  0.00  0.00    +0.000 A 
ATOM     14  C   UNL     1      46.571   1.319   7.876  0.00  0.00    +0.000 A 
ATOM     15  C   UNL     1      47.275   2.183   7.038  0.00  0.00    +0.000 A 
ATOM     16  C   UNL     1      46.974   3.538   7.029  0.00  0.00    +0.000 A 
ATOM     17  C   UNL     1      45.955   4.036   7.852  0.00  0.00    +0.000 A 
ENDBRANCH  11  12
ENDBRANCH   9  11
ENDBRANCH   8   9
ENDBRANCH   4   8
BRANCH   7  18
ATOM     18  C   UNL     1      48.983   6.977  14.311  0.00  0.00    +0.000 C 
BRANCH  18  19
ATOM     19  N   UNL     1      48.969   7.344  15.744  0.00  0.00    +0.000 N 
ATOM     20  C   UNL     1      48.436   8.652  16.077  0.00  0.00    +0.000 C 
ATOM     21  C   UNL     1      49.803   6.637  16.644  0.00  0.00    +0.000 C 
ATOM     22  O   UNL     1      50.495   5.697  16.268  0.00  0.00    +0.000 OA
BRANCH  21  23
ATOM     23  C   UNL     1      49.797   7.015  18.083  0.00  0.00    +0.000 A 
ATOM     24  C   UNL     1      50.636   7.973  18.633  0.00  0.00    +0.000 A 
ATOM     25  S   UNL     1      50.411   8.226  20.303  0.00  0.00    +0.000 S 
ATOM     26  C   UNL     1      49.064   7.189  20.328  0.00  0.00    +0.000 A 
ATOM     27  N   UNL     1      48.320   7.043  21.458  0.00  0.00    +0.000 NA
ATOM     28  C   UNL     1      47.291   6.284  21.322  0.00  0.00    +0.000 A 
ATOM     29  N   UNL     1      46.961   5.620  20.170  0.00  0.00    +0.000 N 
ATOM     30  C   UNL     1      47.759   5.628  19.048  0.00  0.00    +0.000 A 
ATOM     31  O   UNL     1      47.562   4.839  18.135  0.00  0.00    +0.000 OA
ATOM     32  C   UNL     1      48.862   6.577  19.105  0.00  0.00    +0.000 A 
ATOM     33  H   UNL     1      46.185   4.978  20.149  0.00  0.00    +0.000 HD
ENDBRANCH  21  23
ENDBRANCH  18  19
ENDBRANCH   7  18
TORSDOF 7
ENDMDL
MODEL 2
REMARK VINA RESULT:    -7.395      1.322      1.667
REMARK INTER + INTRA:         -11.512
REMARK INTER:                 -10.476
REMARK INTRA:                  -1.036
REMARK UNBOUND:                -1.091
REMARK  Name = 
REMARK  10 active torsions:
REMARK  status: ('A' for Active; 'I' for Inactive)
REMARK    1  A    between atoms: C_1  and  C_2
REMARK    2  A    between atoms: C_4  and  C_5
REMARK    3  A    between atoms: C_5  and  N_6
REMARK    4  A    between atoms: N_6  and  C_7
REMARK    5  A    between atoms: N_6  and  C_8
REMARK    6  A    between atoms: C_8  and  C_9
REMARK    7  A    between atoms: C_17  and  C_18
REMARK    8  A    between atoms: C_18  and  N_19
REMARK    9  A    between atoms: N_19  and  C_20
REMARK   10  A    between atoms: C_21  and  C_23
REMARK                            x       y       z     vdW  Elec       q    Type
REMARK                         _______ _______ _______ _____ _____    ______ ____
ROOT
ATOM      1  C   UNL     1      45.460   9.630  12.615  0.00  0.00    +0.000 C 
ATOM      2  C   UNL     1      45.844   8.175  12.691  0.00  0.00    +0.000 A 
ATOM      3  C   UNL     1      44.961   7.301  12.023  0.00  0.00    +0.000 A 
ATOM      4  C   UNL     1      45.310   5.987  11.710  0.00  0.00    +0.000 A 
ATOM      5  C   UNL     1      46.525   5.498  12.190  0.00  0.00    +0.000 A 
ATOM      6  C   UNL     1      47.370   6.319  12.956  0.00  0.00    +0.000 A 
ATOM      7  C   UNL     1      47.068   7.678  13.202  0.00  0.00    +0.000 A 
ENDROOT
BRANCH   4   8
ATOM      8  C   UNL     1      44.428   5.207  10.755  0.00  0.00    +0.000 C 
BRANCH   8   9
ATOM      9  N   UNL     1      44.634   3.749  10.763  0.00  0.00    +0.000 NA
ATOM     10  C   UNL     1      43.856   3.134  11.849  0.00  0.00    +0.000 C 
BRANCH   9  11
ATOM     11  C   UNL     1      44.197   3.166   9.475  0.00  0.00    +0.000 C 
BRANCH  11  12
ATOM     12  C   UNL     1      45.322   2.757   8.543  0.00  0.00    +0.000 A 
ATOM     13  C   UNL     1      45.977   3.707   7.745  0.00  0.00    +0.000 A 
ATOM     14  C   UNL     1      47.057   3.335   6.940  0.00  0.00    +0.000 A 
ATOM     15  C   UNL     1      47.491   2.011   6.918  0.00  0.00    +0.000 A 
ATOM     16  C   UNL     1      46.844   1.056   7.689  0.00  0.00    +0.000 A 
ATOM     17  C   UNL     1      45.761   1.424   8.499  0.00  0.00    +0.000 A 
ENDBRANCH  11  12
ENDBRANCH   9  11
ENDBRANCH   8   9
ENDBRANCH   4   8
BRANCH   7  18
ATOM     18  C   UNL     1      48.149   8.532  13.872  0.00  0.00    +0.000 C 
BRANCH  18  19
ATOM     19  N   UNL     1      48.493   8.202  15.273  0.00  0.00    +0.000 N 
ATOM     20  C   UNL     1      47.924   9.053  16.302  0.00  0.00    +0.000 C 
ATOM     21  C   UNL     1      49.623   7.388  15.531  0.00  0.00    +0.000 C 
ATOM     22  O   UNL     1      50.289   6.913  14.617  0.00  0.00    +0.000 OA
BRANCH  21  23
ATOM     23  C   UNL     1      49.975   7.067  16.940  0.00  0.00    +0.000 A 
ATOM     24  C   UNL     1      50.789   7.863  17.733  0.00  0.00    +0.000 A 
ATOM     25  S   UNL     1      51.019   7.273  19.315  0.00  0.00    +0.000 S 
ATOM     26  C   UNL     1      49.899   6.019  19.062  0.00  0.00    +0.000 A 
ATOM     27  N   UNL     1      49.539   5.192  20.082  0.00  0.00    +0.000 NA
ATOM     28  C   UNL     1      48.635   4.331  19.773  0.00  0.00    +0.000 A 
ATOM     29  N   UNL     1      48.088   4.191  18.526  0.00  0.00    +0.000 N 
ATOM     30  C   UNL     1      48.522   4.911  17.434  0.00  0.00    +0.000 A 
ATOM     31  O   UNL     1      48.187   4.591  16.302  0.00  0.00    +0.000 OA
ATOM     32  C   UNL     1      49.445   5.988  17.757  0.00  0.00    +0.000 A 
ATOM     33  H   UNL     1      47.440   3.446  18.327  0.00  0.00    +0.000 HD
ENDBRANCH  21  23
ENDBRANCH  18  19
ENDBRANCH   7  18
TORSDOF 7
ENDMDL
MODEL 3
REMARK VINA RESULT:    -7.058      2.499      3.371
REMARK INTER + INTRA:         -11.037
REMARK INTER:                  -9.761
REMARK INTRA:                  -1.276
REMARK UNBOUND:                -1.091
REMARK  Name = 
REMARK  10 active torsions:
REMARK  status: ('A' for Active; 'I' for Inactive)
REMARK    1  A    between atoms: C_1  and  C_2
REMARK    2  A    between atoms: C_4  and  C_5
REMARK    3  A    between atoms: C_5  and  N_6
REMARK    4  A    between atoms: N_6  and  C_7
REMARK    5  A    between atoms: N_6  and  C_8
REMARK    6  A    between atoms: C_8  and  C_9
REMARK    7  A    between atoms: C_17  and  C_18
REMARK    8  A    between atoms: C_18  and  N_19
REMARK    9  A    between atoms: N_19  and  C_20
REMARK   10  A    between atoms: C_21  and  C_23
REMARK                            x       y       z     vdW  Elec       q    Type
REMARK                         _______ _______ _______ _____ _____    ______ ____
ROOT
ATOM      1  C   UNL     1      45.682  10.357  11.798  0.00  0.00    +0.000 C 
ATOM      2  C   UNL     1      46.105   8.928  12.025  0.00  0.00    +0.000 A 
ATOM      3  C   UNL     1      45.059   7.986  11.932  0.00  0.00    +0.000 A 
ATOM      4  C   UNL     1      45.300   6.619  11.792  0.00  0.00    +0.000 A 
ATOM      5  C   UNL     1      46.618   6.172  11.874  0.00  0.00    +0.000 A 
ATOM      6  C   UNL     1      47.667   7.084  12.081  0.00  0.00    +0.000 A 
ATOM      7  C   UNL     1      47.444   8.479  12.135  0.00  0.00    +0.000 A 
ENDROOT
BRANCH   4   8
ATOM      8  C   UNL     1      44.144   5.711  11.419  0.00  0.00    +0.000 C 
BRANCH   8   9
ATOM      9  N   UNL     1      44.508   4.307  11.169  0.00  0.00    +0.000 NA
ATOM     10  C   UNL     1      43.942   3.442  12.214  0.00  0.00    +0.000 C 
BRANCH   9  11
ATOM     11  C   UNL     1      43.985   3.871   9.855  0.00  0.00    +0.000 C 
BRANCH  11  12
ATOM     12  C   UNL     1      45.022   3.292   8.912  0.00  0.00    +0.000 A 
ATOM     13  C   UNL     1      45.773   4.124   8.068  0.00  0.00    +0.000 A 
ATOM     14  C   UNL     1      46.773   3.592   7.252  0.00  0.00    +0.000 A 
ATOM     15  C   UNL     1      47.032   2.222   7.263  0.00  0.00    +0.000 A 
ATOM     16  C   UNL     1      46.287   1.383   8.079  0.00  0.00    +0.000 A 
ATOM     17  C   UNL     1      45.283   1.913   8.901  0.00  0.00    +0.000 A 
ENDBRANCH  11  12
ENDBRANCH   9  11
ENDBRANCH   8   9
ENDBRANCH   4   8
BRANCH   7  18
ATOM     18  C   UNL     1      48.675   9.391  12.160  0.00  0.00    +0.000 C 
BRANCH  18  19
ATOM     19  N   UNL     1      49.588   9.254  13.316  0.00  0.00    +0.000 N 
ATOM     20  C   UNL     1      49.367  10.153  14.433  0.00  0.00    +0.000 C 
ATOM     21  C   UNL     1      50.826   8.588  13.140  0.00  0.00    +0.000 C 
ATOM     22  O   UNL     1      51.131   8.082  12.065  0.00  0.00    +0.000 OA
BRANCH  21  23
ATOM     23  C   UNL     1      51.749   8.461  14.299  0.00  0.00    +0.000 A 
ATOM     24  C   UNL     1      52.926   9.183  14.432  0.00  0.00    +0.000 A 
ATOM     25  S   UNL     1      53.790   8.859  15.865  0.00  0.00    +0.000 S 
ATOM     26  C   UNL     1      52.539   7.867  16.451  0.00  0.00    +0.000 A 
ATOM     27  N   UNL     1      52.597   7.346  17.707  0.00  0.00    +0.000 NA
ATOM     28  C   UNL     1      51.557   6.671  18.050  0.00  0.00    +0.000 A 
ATOM     29  N   UNL     1      50.483   6.430  17.235  0.00  0.00    +0.000 N 
ATOM     30  C   UNL     1      50.444   6.820  15.914  0.00  0.00    +0.000 A 
ATOM     31  O   UNL     1      49.588   6.381  15.160  0.00  0.00    +0.000 OA
ATOM     32  C   UNL     1      51.533   7.700  15.518  0.00  0.00    +0.000 A 
ATOM     33  H   UNL     1      49.732   5.829  17.535  0.00  0.00    +0.000 HD
ENDBRANCH  21  23
ENDBRANCH  18  19
ENDBRANCH   7  18
TORSDOF 7
ENDMDL
MODEL 4
REMARK VINA RESULT:    -6.747      3.237      3.970
REMARK INTER + INTRA:         -10.598
REMARK INTER:                  -9.742
REMARK INTRA:                  -0.857
REMARK UNBOUND:                -1.091
REMARK  Name = 
REMARK  10 active torsions:
REMARK  status: ('A' for Active; 'I' for Inactive)
REMARK    1  A    between atoms: C_1  and  C_2
REMARK    2  A    between atoms: C_4  and  C_5
REMARK    3  A    between atoms: C_5  and  N_6
REMARK    4  A    between atoms: N_6  and  C_7
REMARK    5  A    between atoms: N_6  and  C_8
REMARK    6  A    between atoms: C_8  and  C_9
REMARK    7  A    between atoms: C_17  and  C_18
REMARK    8  A    between atoms: C_18  and  N_19
REMARK    9  A    between atoms: N_19  and  C_20
REMARK   10  A    between atoms: C_21  and  C_23
REMARK                            x       y       z     vdW  Elec       q    Type
REMARK                         _______ _______ _______ _____ _____    ______ ____
ROOT
ATOM      1  C   UNL     1      49.015   9.679  14.891  0.00  0.00    +0.000 C 
ATOM      2  C   UNL     1      48.441   8.285  14.883  0.00  0.00    +0.000 A 
ATOM      3  C   UNL     1      47.734   7.950  13.709  0.00  0.00    +0.000 A 
ATOM      4  C   UNL     1      47.417   6.631  13.384  0.00  0.00    +0.000 A 
ATOM      5  C   UNL     1      47.704   5.636  14.318  0.00  0.00    +0.000 A 
ATOM      6  C   UNL     1      48.306   5.965  15.544  0.00  0.00    +0.000 A 
ATOM      7  C   UNL     1      48.713   7.284  15.847  0.00  0.00    +0.000 A 
ENDROOT
BRANCH   4   8
ATOM      8  C   UNL     1      46.912   6.328  11.987  0.00  0.00    +0.000 C 
BRANCH   8   9
ATOM      9  N   UNL     1      45.630   5.606  11.929  0.00  0.00    +0.000 NA
ATOM     10  C   UNL     1      44.693   6.157  12.918  0.00  0.00    +0.000 C 
BRANCH   9  11
ATOM     11  C   UNL     1      45.032   5.737  10.581  0.00  0.00    +0.000 C 
BRANCH  11  12
ATOM     12  C   UNL     1      45.224   4.536   9.676  0.00  0.00    +0.000 A 
ATOM     13  C   UNL     1      45.894   4.657   8.450  0.00  0.00    +0.000 A 
ATOM     14  C   UNL     1      46.127   3.534   7.652  0.00  0.00    +0.000 A 
ATOM     15  C   UNL     1      45.688   2.277   8.067  0.00  0.00    +0.000 A 
ATOM     16  C   UNL     1      45.009   2.142   9.269  0.00  0.00    +0.000 A 
ATOM     17  C   UNL     1      44.774   3.266  10.073  0.00  0.00    +0.000 A 
ENDBRANCH  11  12
ENDBRANCH   9  11
ENDBRANCH   8   9
ENDBRANCH   4   8
BRANCH   7  18
ATOM     18  C   UNL     1      49.539   7.494  17.120  0.00  0.00    +0.000 C 
BRANCH  18  19
ATOM     19  N   UNL     1      50.682   6.581  17.337  0.00  0.00    +0.000 N 
ATOM     20  C   UNL     1      51.701   6.554  16.304  0.00  0.00    +0.000 C 
ATOM     21  C   UNL     1      50.553   5.525  18.272  0.00  0.00    +0.000 C 
ATOM     22  O   UNL     1      49.532   5.384  18.938  0.00  0.00    +0.000 OA
BRANCH  21  23
ATOM     23  C   UNL     1      51.699   4.600  18.480  0.00  0.00    +0.000 A 
ATOM     24  C   UNL     1      52.817   4.916  19.238  0.00  0.00    +0.000 A 
ATOM     25  S   UNL     1      53.977   3.671  19.328  0.00  0.00    +0.000 S 
ATOM     26  C   UNL     1      52.955   2.593  18.501  0.00  0.00    +0.000 A 
ATOM     27  N   UNL     1      53.308   1.289  18.336  0.00  0.00    +0.000 NA
ATOM     28  C   UNL     1      52.417   0.568  17.753  0.00  0.00    +0.000 A 
ATOM     29  N   UNL     1      51.222   1.040  17.279  0.00  0.00    +0.000 N 
ATOM     30  C   UNL     1      50.884   2.376  17.301  0.00  0.00    +0.000 A 
ATOM     31  O   UNL     1      49.930   2.789  16.657  0.00  0.00    +0.000 OA
ATOM     32  C   UNL     1      51.797   3.211  18.068  0.00  0.00    +0.000 A 
ATOM     33  H   UNL     1      50.598   0.441  16.762  0.00  0.00    +0.000 HD
ENDBRANCH  21  23
ENDBRANCH  18  19
ENDBRANCH   7  18
TORSDOF 7
ENDMDL
MODEL 5
REMARK VINA RESULT:    -6.498      3.512      8.148
REMARK INTER + INTRA:         -10.248
REMARK INTER:                  -8.276
REMARK INTRA:                  -1.973
REMARK UNBOUND:                -1.091
REMARK  Name = 
REMARK  10 active torsions:
REMARK  status: ('A' for Active; 'I' for Inactive)
REMARK    1  A    between atoms: C_1  and  C_2
REMARK    2  A    between atoms: C_4  and  C_5
REMARK    3  A    between atoms: C_5  and  N_6
REMARK    4  A    between atoms: N_6  and  C_7
REMARK    5  A    between atoms: N_6  and  C_8
REMARK    6  A    between atoms: C_8  and  C_9
REMARK    7  A    between atoms: C_17  and  C_18
REMARK    8  A    between atoms: C_18  and  N_19
REMARK    9  A    between atoms: N_19  and  C_20
REMARK   10  A    between atoms: C_21  and  C_23
REMARK                            x       y       z     vdW  Elec       q    Type
REMARK                         _______ _______ _______ _____ _____    ______ ____
ROOT
ATOM      1  C   UNL     1      49.487  10.962  15.716  0.00  0.00    +0.000 C 
ATOM      2  C   UNL     1      50.057   9.568  15.784  0.00  0.00    +0.000 A 
ATOM      3  C   UNL     1      50.446   9.158  17.076  0.00  0.00    +0.000 A 
ATOM      4  C   UNL     1      50.687   7.820  17.390  0.00  0.00    +0.000 A 
ATOM      5  C   UNL     1      50.660   6.887  16.354  0.00  0.00    +0.000 A 
ATOM      6  C   UNL     1      50.386   7.293  15.038  0.00  0.00    +0.000 A 
ATOM      7  C   UNL     1      50.052   8.631  14.723  0.00  0.00    +0.000 A 
ENDROOT
BRANCH   4   8
ATOM      8  C   UNL     1      50.824   7.428  18.848  0.00  0.00    +0.000 C 
BRANCH   8   9
ATOM      9  N   UNL     1      51.117   6.005  19.088  0.00  0.00    +0.000 NA
ATOM     10  C   UNL     1      52.140   5.868  20.135  0.00  0.00    +0.000 C 
BRANCH   9  11
ATOM     11  C   UNL     1      49.892   5.299  19.523  0.00  0.00    +0.000 C 
BRANCH  11  12
ATOM     12  C   UNL     1      49.377   4.253  18.553  0.00  0.00    +0.000 A 
ATOM     13  C   UNL     1      48.010   4.162  18.251  0.00  0.00    +0.000 A 
ATOM     14  C   UNL     1      47.550   3.242  17.306  0.00  0.00    +0.000 A 
ATOM     15  C   UNL     1      48.450   2.398  16.654  0.00  0.00    +0.000 A 
ATOM     16  C   UNL     1      49.803   2.464  16.953  0.00  0.00    +0.000 A 
ATOM     17  C   UNL     1      50.269   3.387  17.900  0.00  0.00    +0.000 A 
ENDBRANCH  11  12
ENDBRANCH   9  11
ENDBRANCH   8   9
ENDBRANCH   4   8
BRANCH   7  18
ATOM     18  C   UNL     1      49.575   8.923  13.297  0.00  0.00    +0.000 C 
BRANCH  18  19
ATOM     19  N   UNL     1      48.512   8.050  12.752  0.00  0.00    +0.000 N 
ATOM     20  C   UNL     1      48.747   7.475  11.441  0.00  0.00    +0.000 C 
ATOM     21  C   UNL     1      47.207   8.133  13.298  0.00  0.00    +0.000 C 
ATOM     22  O   UNL     1      46.956   8.875  14.241  0.00  0.00    +0.000 OA
BRANCH  21  23
ATOM     23  C   UNL     1      46.136   7.263  12.742  0.00  0.00    +0.000 A 
ATOM     24  C   UNL     1      45.138   7.716  11.891  0.00  0.00    +0.000 A 
ATOM     25  S   UNL     1      44.045   6.509  11.387  0.00  0.00    +0.000 S 
ATOM     26  C   UNL     1      44.961   5.295  12.148  0.00  0.00    +0.000 A 
ATOM     27  N   UNL     1      44.628   3.983  12.007  0.00  0.00    +0.000 NA
ATOM     28  C   UNL     1      45.441   3.165  12.576  0.00  0.00    +0.000 A 
ATOM     29  N   UNL     1      46.534   3.540  13.312  0.00  0.00    +0.000 N 
ATOM     30  C   UNL     1      46.828   4.856  13.595  0.00  0.00    +0.000 A 
ATOM     31  O   UNL     1      47.659   5.140  14.447  0.00  0.00    +0.000 OA
ATOM     32  C   UNL     1      46.019   5.820  12.866  0.00  0.00    +0.000 A 
ATOM     33  H   UNL     1      47.089   2.855  13.799  0.00  0.00    +0.000 HD
ENDBRANCH  21  23
ENDBRANCH  18  19
ENDBRANCH   7  18
TORSDOF 7
ENDMDL
MODEL 6
REMARK VINA RESULT:    -6.307      4.976      8.813
REMARK INTER + INTRA:          -9.979
REMARK INTER:                  -8.980
REMARK INTRA:                  -0.999
REMARK UNBOUND:                -1.091
REMARK  Name = 
REMARK  10 active torsions:
REMARK  status: ('A' for Active; 'I' for Inactive)
REMARK    1  A    between atoms: C_1  and  C_2
REMARK    2  A    between atoms: C_4  and  C_5
REMARK    3  A    between atoms: C_5  and  N_6
REMARK    4  A    between atoms: N_6  and  C_7
REMARK    5  A    between atoms: N_6  and  C_8
REMARK    6  A    between atoms: C_8  and  C_9
REMARK    7  A    between atoms: C_17  and  C_18
REMARK    8  A    between atoms: C_18  and  N_19
REMARK    9  A    between atoms: N_19  and  C_20
REMARK   10  A    between atoms: C_21  and  C_23
REMARK                            x       y       z     vdW  Elec       q    Type
REMARK                         _______ _______ _______ _____ _____    ______ ____
ROOT
ATOM      1  C   UNL     1      48.840   9.250  15.309  0.00  0.00    +0.000 C 
ATOM      2  C   UNL     1      49.176   8.942  13.873  0.00  0.00    +0.000 A 
ATOM      3  C   UNL     1      50.546   9.053  13.556  0.00  0.00    +0.000 A 
ATOM      4  C   UNL     1      51.087   8.506  12.392  0.00  0.00    +0.000 A 
ATOM      5  C   UNL     1      50.212   7.945  11.462  0.00  0.00    +0.000 A 
ATOM      6  C   UNL     1      48.829   7.927  11.707  0.00  0.00    +0.000 A 
ATOM      7  C   UNL     1      48.279   8.397  12.922  0.00  0.00    +0.000 A 
ENDROOT
BRANCH   4   8
ATOM      8  C   UNL     1      52.595   8.421  12.260  0.00  0.00    +0.000 C 
BRANCH   8   9
ATOM      9  N   UNL     1      53.203   9.428  11.374  0.00  0.00    +0.000 NA
ATOM     10  C   UNL     1      53.919  10.435  12.170  0.00  0.00    +0.000 C 
BRANCH   9  11
ATOM     11  C   UNL     1      54.160   8.781  10.450  0.00  0.00    +0.000 C 
BRANCH  11  12
ATOM     12  C   UNL     1      53.589   8.405   9.096  0.00  0.00    +0.000 A 
ATOM     13  C   UNL     1      53.693   9.279   8.003  0.00  0.00    +0.000 A 
ATOM     14  C   UNL     1      53.224   8.899   6.743  0.00  0.00    +0.000 A 
ATOM     15  C   UNL     1      52.643   7.645   6.560  0.00  0.00    +0.000 A 
ATOM     16  C   UNL     1      52.518   6.776   7.634  0.00  0.00    +0.000 A 
ATOM     17  C   UNL     1      52.987   7.152   8.900  0.00  0.00    +0.000 A 
ENDBRANCH  11  12
ENDBRANCH   9  11
ENDBRANCH   8   9
ENDBRANCH   4   8
BRANCH   7  18
ATOM     18  C   UNL     1      46.788   8.145  13.167  0.00  0.00    +0.000 C 
BRANCH  18  19
ATOM     19  N   UNL     1      46.296   6.766  12.954  0.00  0.00    +0.000 N 
ATOM     20  C   UNL     1      47.151   5.689  13.419  0.00  0.00    +0.000 C 
ATOM     21  C   UNL     1      45.279   6.538  11.995  0.00  0.00    +0.000 C 
ATOM     22  O   UNL     1      44.766   7.465  11.377  0.00  0.00    +0.000 OA
BRANCH  21  23
ATOM     23  C   UNL     1      44.793   5.150  11.774  0.00  0.00    +0.000 A 
ATOM     24  C   UNL     1      44.058   4.431  12.706  0.00  0.00    +0.000 A 
ATOM     25  S   UNL     1      43.614   2.868  12.193  0.00  0.00    +0.000 S 
ATOM     26  C   UNL     1      44.236   3.149  10.636  0.00  0.00    +0.000 A 
ATOM     27  N   UNL     1      44.077   2.228   9.648  0.00  0.00    +0.000 NA
ATOM     28  C   UNL     1      44.535   2.593   8.503  0.00  0.00    +0.000 A 
ATOM     29  N   UNL     1      45.178   3.779   8.264  0.00  0.00    +0.000 N 
ATOM     30  C   UNL     1      45.483   4.677   9.263  0.00  0.00    +0.000 A 
ATOM     31  O   UNL     1      46.263   5.597   9.058  0.00  0.00    +0.000 OA
ATOM     32  C   UNL     1      44.871   4.374  10.548  0.00  0.00    +0.000 A 
ATOM     33  H   UNL     1      45.583   3.975   7.363  0.00  0.00    +0.000 HD
ENDBRANCH  21  23
ENDBRANCH  18  19
ENDBRANCH   7  18
TORSDOF 7
ENDMDL
MODEL 7
REMARK VINA RESULT:    -6.290      5.326      8.573
REMARK INTER + INTRA:          -9.955
REMARK INTER:                  -8.585
REMARK INTRA:                  -1.370
REMARK UNBOUND:                -1.091
REMARK  Name = 
REMARK  10 active torsions:
REMARK  status: ('A' for Active; 'I' for Inactive)
REMARK    1  A    between atoms: C_1  and  C_2
REMARK    2  A    between atoms: C_4  and  C_5
REMARK    3  A    between atoms: C_5  and  N_6
REMARK    4  A    between atoms: N_6  and  C_7
REMARK    5  A    between atoms: N_6  and  C_8
REMARK    6  A    between atoms: C_8  and  C_9
REMARK    7  A    between atoms: C_17  and  C_18
REMARK    8  A    between atoms: C_18  and  N_19
REMARK    9  A    between atoms: N_19  and  C_20
REMARK   10  A    between atoms: C_21  and  C_23
REMARK                            x       y       z     vdW  Elec       q    Type
REMARK                         _______ _______ _______ _____ _____    ______ ____
ROOT
ATOM      1  C   UNL     1      46.934  11.825  11.437  0.00  0.00    +0.000 C 
ATOM      2  C   UNL     1      48.085  10.855  11.352  0.00  0.00    +0.000 A 
ATOM      3  C   UNL     1      49.272  11.400  10.821  0.00  0.00    +0.000 A 
ATOM      4  C   UNL     1      50.508  10.769  10.961  0.00  0.00    +0.000 A 
ATOM      5  C   UNL     1      50.535   9.499  11.537  0.00  0.00    +0.000 A 
ATOM      6  C   UNL     1      49.346   8.888  11.970  0.00  0.00    +0.000 A 
ATOM      7  C   UNL     1      48.101   9.555  11.915  0.00  0.00    +0.000 A 
ENDROOT
BRANCH   4   8
ATOM      8  C   UNL     1      51.765  11.543  10.615  0.00  0.00    +0.000 C 
BRANCH   8   9
ATOM      9  N   UNL     1      52.135  11.530   9.190  0.00  0.00    +0.000 NA
ATOM     10  C   UNL     1      52.339  12.904   8.707  0.00  0.00    +0.000 C 
BRANCH   9  11
ATOM     11  C   UNL     1      53.386  10.765   8.996  0.00  0.00    +0.000 C 
BRANCH  11  12
ATOM     12  C   UNL     1      53.197   9.338   8.521  0.00  0.00    +0.000 A 
ATOM     13  C   UNL     1      52.834   9.062   7.194  0.00  0.00    +0.000 A 
ATOM     14  C   UNL     1      52.727   7.744   6.745  0.00  0.00    +0.000 A 
ATOM     15  C   UNL     1      52.977   6.684   7.616  0.00  0.00    +0.000 A 
ATOM     16  C   UNL     1      53.320   6.939   8.936  0.00  0.00    +0.000 A 
ATOM     17  C   UNL     1      53.429   8.260   9.391  0.00  0.00    +0.000 A 
ENDBRANCH  11  12
ENDBRANCH   9  11
ENDBRANCH   8   9
ENDBRANCH   4   8
BRANCH   7  18
ATOM     18  C   UNL     1      46.907   8.880  12.597  0.00  0.00    +0.000 C 
BRANCH  18  19
ATOM     19  N   UNL     1      46.116   7.932  11.782  0.00  0.00    +0.000 N 
ATOM     20  C   UNL     1      44.791   8.365  11.378  0.00  0.00    +0.000 C 
ATOM     21  C   UNL     1      46.478   6.562  11.775  0.00  0.00    +0.000 C 
ATOM     22  O   UNL     1      47.459   6.158  12.390  0.00  0.00    +0.000 OA
BRANCH  21  23
ATOM     23  C   UNL     1      45.675   5.607  10.965  0.00  0.00    +0.000 A 
ATOM     24  C   UNL     1      45.757   5.509   9.583  0.00  0.00    +0.000 A 
ATOM     25  S   UNL     1      44.739   4.322   8.904  0.00  0.00    +0.000 S 
ATOM     26  C   UNL     1      44.274   3.771  10.444  0.00  0.00    +0.000 A 
ATOM     27  N   UNL     1      43.481   2.673  10.578  0.00  0.00    +0.000 NA
ATOM     28  C   UNL     1      43.260   2.324  11.796  0.00  0.00    +0.000 A 
ATOM     29  N   UNL     1      43.723   2.998  12.895  0.00  0.00    +0.000 N 
ATOM     30  C   UNL     1      44.411   4.188  12.807  0.00  0.00    +0.000 A 
ATOM     31  O   UNL     1      44.593   4.879  13.799  0.00  0.00    +0.000 OA
ATOM     32  C   UNL     1      44.801   4.554  11.454  0.00  0.00    +0.000 A 
ATOM     33  H   UNL     1      43.451   2.719  13.824  0.00  0.00    +0.000 HD
ENDBRANCH  21  23
ENDBRANCH  18  19
ENDBRANCH   7  18
TORSDOF 7
ENDMDL
MODEL 8
REMARK VINA RESULT:    -6.098      3.574      9.449
REMARK INTER + INTRA:          -9.684
REMARK INTER:                  -8.010
REMARK INTRA:                  -1.674
REMARK UNBOUND:                -1.091
REMARK  Name = 
REMARK  10 active torsions:
REMARK  status: ('A' for Active; 'I' for Inactive)
REMARK    1  A    between atoms: C_1  and  C_2
REMARK    2  A    between atoms: C_4  and  C_5
REMARK    3  A    between atoms: C_5  and  N_6
REMARK    4  A    between atoms: N_6  and  C_7
REMARK    5  A    between atoms: N_6  and  C_8
REMARK    6  A    between atoms: C_8  and  C_9
REMARK    7  A    between atoms: C_17  and  C_18
REMARK    8  A    between atoms: C_18  and  N_19
REMARK    9  A    between atoms: N_19  and  C_20
REMARK   10  A    between atoms: C_21  and  C_23
REMARK                            x       y       z     vdW  Elec       q    Type
REMARK                         _______ _______ _______ _____ _____    ______ ____
ROOT
ATOM      1  C   UNL     1      50.216   8.804  12.203  0.00  0.00    +0.000 C 
ATOM      2  C   UNL     1      49.549   8.802  13.555  0.00  0.00    +0.000 A 
ATOM      3  C   UNL     1      50.407   9.109  14.631  0.00  0.00    +0.000 A 
ATOM      4  C   UNL     1      49.923   9.468  15.889  0.00  0.00    +0.000 A 
ATOM      5  C   UNL     1      48.548   9.395  16.109  0.00  0.00    +0.000 A 
ATOM      6  C   UNL     1      47.684   8.981  15.082  0.00  0.00    +0.000 A 
ATOM      7  C   UNL     1      48.154   8.702  13.778  0.00  0.00    +0.000 A 
ENDROOT
BRANCH   4   8
ATOM      8  C   UNL     1      50.889  10.050  16.903  0.00  0.00    +0.000 C 
BRANCH   8   9
ATOM      9  N   UNL     1      51.702   9.061  17.631  0.00  0.00    +0.000 NA
ATOM     10  C   UNL     1      52.936   9.687  18.128  0.00  0.00    +0.000 C 
BRANCH   9  11
ATOM     11  C   UNL     1      50.941   8.526  18.782  0.00  0.00    +0.000 C 
BRANCH  11  12
ATOM     12  C   UNL     1      50.138   7.273  18.492  0.00  0.00    +0.000 A 
ATOM     13  C   UNL     1      48.903   7.048  19.119  0.00  0.00    +0.000 A 
ATOM     14  C   UNL     1      48.137   5.925  18.798  0.00  0.00    +0.000 A 
ATOM     15  C   UNL     1      48.597   5.011  17.850  0.00  0.00    +0.000 A 
ATOM     16  C   UNL     1      49.824   5.210  17.233  0.00  0.00    +0.000 A 
ATOM     17  C   UNL     1      50.595   6.336  17.552  0.00  0.00    +0.000 A 
ENDBRANCH  11  12
ENDBRANCH   9  11
ENDBRANCH   8   9
ENDBRANCH   4   8
BRANCH   7  18
ATOM     18  C   UNL     1      47.107   8.458  12.687  0.00  0.00    +0.000 C 
BRANCH  18  19
ATOM     19  N   UNL     1      46.566   7.085  12.569  0.00  0.00    +0.000 N 
ATOM     20  C   UNL     1      47.486   5.996  12.842  0.00  0.00    +0.000 C 
ATOM     21  C   UNL     1      45.373   6.876  11.836  0.00  0.00    +0.000 C 
ATOM     22  O   UNL     1      44.755   7.813  11.342  0.00  0.00    +0.000 OA
BRANCH  21  23
ATOM     23  C   UNL     1      44.837   5.494  11.709  0.00  0.00    +0.000 A 
ATOM     24  C   UNL     1      44.068   4.872  12.682  0.00  0.00    +0.000 A 
ATOM     25  S   UNL     1      43.569   3.293  12.277  0.00  0.00    +0.000 S 
ATOM     26  C   UNL     1      44.213   3.439  10.711  0.00  0.00    +0.000 A 
ATOM     27  N   UNL     1      44.027   2.456   9.788  0.00  0.00    +0.000 NA
ATOM     28  C   UNL     1      44.507   2.722   8.625  0.00  0.00    +0.000 A 
ATOM     29  N   UNL     1      45.196   3.863   8.310  0.00  0.00    +0.000 N 
ATOM     30  C   UNL     1      45.527   4.819   9.245  0.00  0.00    +0.000 A 
ATOM     31  O   UNL     1      46.343   5.692   8.984  0.00  0.00    +0.000 OA
ATOM     32  C   UNL     1      44.895   4.631  10.542  0.00  0.00    +0.000 A 
ATOM     33  H   UNL     1      45.615   3.979   7.401  0.00  0.00    +0.000 HD
ENDBRANCH  21  23
ENDBRANCH  18  19
ENDBRANCH   7  18
TORSDOF 7
ENDMDL
MODEL 9
REMARK VINA RESULT:    -6.089      3.809      8.158
REMARK INTER + INTRA:          -9.671
REMARK INTER:                  -7.565
REMARK INTRA:                  -2.106
REMARK UNBOUND:                -1.091
REMARK  Name = 
REMARK  10 active torsions:
REMARK  status: ('A' for Active; 'I' for Inactive)
REMARK    1  A    between atoms: C_1  and  C_2
REMARK    2  A    between atoms: C_4  and  C_5
REMARK    3  A    between atoms: C_5  and  N_6
REMARK    4  A    between atoms: N_6  and  C_7
REMARK    5  A    between atoms: N_6  and  C_8
REMARK    6  A    between atoms: C_8  and  C_9
REMARK    7  A    between atoms: C_17  and  C_18
REMARK    8  A    between atoms: C_18  and  N_19
REMARK    9  A    between atoms: N_19  and  C_20
REMARK   10  A    between atoms: C_21  and  C_23
REMARK                            x       y       z     vdW  Elec       q    Type
REMARK                         _______ _______ _______ _____ _____    ______ ____
ROOT
ATOM      1  C   UNL     1      50.641  10.609  17.256  0.00  0.00    +0.000 C 
ATOM      2  C   UNL     1      51.185   9.249  16.902  0.00  0.00    +0.000 A 
ATOM      3  C   UNL     1      51.709   8.525  17.993  0.00  0.00    +0.000 A 
ATOM      4  C   UNL     1      51.953   7.154  17.927  0.00  0.00    +0.000 A 
ATOM      5  C   UNL     1      51.789   6.515  16.698  0.00  0.00    +0.000 A 
ATOM      6  C   UNL     1      51.377   7.242  15.568  0.00  0.00    +0.000 A 
ATOM      7  C   UNL     1      51.039   8.613  15.644  0.00  0.00    +0.000 A 
ENDROOT
BRANCH   4   8
ATOM      8  C   UNL     1      52.246   6.403  19.212  0.00  0.00    +0.000 C 
BRANCH   8   9
ATOM      9  N   UNL     1      51.807   4.998  19.229  0.00  0.00    +0.000 NA
ATOM     10  C   UNL     1      52.547   4.249  20.255  0.00  0.00    +0.000 C 
BRANCH   9  11
ATOM     11  C   UNL     1      50.361   4.921  19.533  0.00  0.00    +0.000 C 
BRANCH  11  12
ATOM     12  C   UNL     1      49.534   4.151  18.521  0.00  0.00    +0.000 A 
ATOM     13  C   UNL     1      50.124   3.180  17.698  0.00  0.00    +0.000 A 
ATOM     14  C   UNL     1      49.346   2.427  16.816  0.00  0.00    +0.000 A 
ATOM     15  C   UNL     1      47.970   2.637  16.742  0.00  0.00    +0.000 A 
ATOM     16  C   UNL     1      47.372   3.605  17.537  0.00  0.00    +0.000 A 
ATOM     17  C   UNL     1      48.149   4.362  18.424  0.00  0.00    +0.000 A 
ENDBRANCH  11  12
ENDBRANCH   9  11
ENDBRANCH   8   9
ENDBRANCH   4   8
BRANCH   7  18
ATOM     18  C   UNL     1      50.410   9.256  14.404  0.00  0.00    +0.000 C 
BRANCH  18  19
ATOM     19  N   UNL     1      49.003   8.907  14.108  0.00  0.00    +0.000 N 
ATOM     20  C   UNL     1      48.049   9.071  15.188  0.00  0.00    +0.000 C 
ATOM     21  C   UNL     1      48.719   8.083  12.991  0.00  0.00    +0.000 C 
ATOM     22  O   UNL     1      49.609   7.696  12.241  0.00  0.00    +0.000 OA
BRANCH  21  23
ATOM     23  C   UNL     1      47.305   7.723  12.701  0.00  0.00    +0.000 A 
ATOM     24  C   UNL     1      46.458   8.494  11.918  0.00  0.00    +0.000 A 
ATOM     25  S   UNL     1      44.893   7.845  11.731  0.00  0.00    +0.000 S 
ATOM     26  C   UNL     1      45.334   6.420  12.546  0.00  0.00    +0.000 A 
ATOM     27  N   UNL     1      44.466   5.376  12.640  0.00  0.00    +0.000 NA
ATOM     28  C   UNL     1      44.948   4.336  13.221  0.00  0.00    +0.000 A 
ATOM     29  N   UNL     1      46.206   4.256  13.758  0.00  0.00    +0.000 N 
ATOM     30  C   UNL     1      47.066   5.332  13.809  0.00  0.00    +0.000 A 
ATOM     31  O   UNL     1      48.071   5.295  14.504  0.00  0.00    +0.000 OA
ATOM     32  C   UNL     1      46.621   6.490  13.047  0.00  0.00    +0.000 A 
ATOM     33  H   UNL     1      46.499   3.440  14.270  0.00  0.00    +0.000 HD
ENDBRANCH  21  23
ENDBRANCH  18  19
ENDBRANCH   7  18
TORSDOF 7
ENDMDL
