MODEL 1
REMARK VINA RESULT:    -8.649      0.000      0.000
REMARK INTER + INTRA:         -13.468
REMARK INTER:                 -12.189
REMARK INTRA:                  -1.280
REMARK UNBOUND:                -1.280
REMARK  Name = 
REMARK  8 active torsions:
REMARK  status: ('A' for Active; 'I' for Inactive)
REMARK    1  A    between atoms: C_1  and  C_2
REMARK    2  A    between atoms: C_2  and  N_3
REMARK    3  A    between atoms: C_2  and  C_11
REMARK    4  A    between atoms: N_3  and  C_4
REMARK    5  A    between atoms: C_4  and  C_5
REMARK    6  A    between atoms: C_14  and  C_15
REMARK    7  A    between atoms: C_15  and  N_16
REMARK    8  A    between atoms: C_17  and  C_19
REMARK                            x       y       z     vdW  Elec       q    Type
REMARK                         _______ _______ _______ _____ _____    ______ ____
ROOT
ATOM      1  C   UNL     1      44.770   4.783  11.544  0.00  0.00    +0.000 A 
ATOM      2  C   UNL     1      45.100   4.551  12.886  0.00  0.00    +0.000 A 
ATOM      3  C   UNL     1      46.170   5.221  13.490  0.00  0.00    +0.000 A 
ATOM      4  C   UNL     1      46.934   6.151  12.771  0.00  0.00    +0.000 A 
ATOM      5  C   UNL     1      46.598   6.392  11.432  0.00  0.00    +0.000 A 
ATOM      6  C   UNL     1      45.518   5.736  10.835  0.00  0.00    +0.000 A 
ENDROOT
BRANCH   1   8
ATOM      7  C   UNL     1      43.244   2.783  11.761  0.00  0.00    +0.000 C 
ATOM      8  C   UNL     1      43.611   4.013  10.915  0.00  0.00    +0.000 C 
BRANCH   8   9
ATOM      9  N   UNL     1      43.963   3.706   9.526  0.00  0.00    +0.000 NA
ATOM     10  H   UNL     1      43.144   3.858   8.935  0.00  0.00    +0.000 HD
BRANCH   9  11
ATOM     11  C   UNL     1      44.470   2.358   9.291  0.00  0.00    +0.000 C 
BRANCH  11  12
ATOM     12  C   UNL     1      45.624   2.386   8.308  0.00  0.00    +0.000 A 
ATOM     13  C   UNL     1      45.971   3.579   7.654  0.00  0.00    +0.000 A 
ATOM     14  C   UNL     1      47.028   3.610   6.743  0.00  0.00    +0.000 A 
ATOM     15  C   UNL     1      47.753   2.450   6.476  0.00  0.00    +0.000 A 
ATOM     16  C   UNL     1      47.424   1.260   7.123  0.00  0.00    +0.000 A 
ATOM     17  C   UNL     1      46.367   1.228   8.038  0.00  0.00    +0.000 A 
ENDBRANCH  11  12
ENDBRANCH   9  11
ENDBRANCH   8   9
ENDBRANCH   1   8
BRANCH   4  18
ATOM     18  C   UNL     1      48.107   6.867  13.398  0.00  0.00    +0.000 C 
BRANCH  18  19
ATOM     19  N   UNL     1      48.022   6.880  14.836  0.00  0.00    +0.000 N 
ATOM     20  C   UNL     1      49.138   6.859  15.633  0.00  0.00    +0.000 C 
ATOM     21  O   UNL     1      50.281   6.838  15.183  0.00  0.00    +0.000 OA
ATOM     22  H   UNL     1      47.149   6.555  15.236  0.00  0.00    +0.000 HD
BRANCH  20  23
ATOM     23  C   UNL     1      48.881   6.930  17.080  0.00  0.00    +0.000 A 
ATOM     24  C   UNL     1      48.588   8.148  17.677  0.00  0.00    +0.000 A 
ATOM     25  S   UNL     1      48.277   8.028  19.352  0.00  0.00    +0.000 S 
ATOM     26  C   UNL     1      48.567   6.352  19.344  0.00  0.00    +0.000 A 
ATOM     27  N   UNL     1      48.495   5.624  20.490  0.00  0.00    +0.000 NA
ATOM     28  C   UNL     1      48.764   4.364  20.343  0.00  0.00    +0.000 A 
ATOM     29  N   UNL     1      49.088   3.774  19.149  0.00  0.00    +0.000 N 
ATOM     30  C   UNL     1      49.125   4.460  17.961  0.00  0.00    +0.000 A 
ATOM     31  O   UNL     1      49.339   3.882  16.902  0.00  0.00    +0.000 OA
ATOM     32  C   UNL     1      48.865   5.889  18.076  0.00  0.00    +0.000 A 
ATOM     33  H   UNL     1      49.267   2.781  19.098  0.00  0.00    +0.000 HD
ENDBRANCH  20  23
ENDBRANCH  18  19
ENDBRANCH   4  18
TORSDOF 7
ENDMDL
MODEL 2
REMARK VINA RESULT:    -8.176      1.381      2.245
REMARK INTER + INTRA:         -12.802
REMARK INTER:                 -11.610
REMARK INTRA:                  -1.192
REMARK UNBOUND:                -1.280
REMARK  Name = 
REMARK  8 active torsions:
REMARK  status: ('A' for Active; 'I' for Inactive)
REMARK    1  A    between atoms: C_1  and  C_2
REMARK    2  A    between atoms: C_2  and  N_3
REMARK    3  A    between atoms: C_2  and  C_11
REMARK    4  A    between atoms: N_3  and  C_4
REMARK    5  A    between atoms: C_4  and  C_5
REMARK    6  A    between atoms: C_14  and  C_15
REMARK    7  A    between atoms: C_15  and  N_16
REMARK    8  A    between atoms: C_17  and  C_19
REMARK                            x       y       z     vdW  Elec       q    Type
REMARK                         _______ _______ _______ _____ _____    ______ ____
ROOT
ATOM      1  C   UNL     1      44.942   4.850  11.521  0.00  0.00    +0.000 A 
ATOM      2  C   UNL     1      45.329   4.365  12.777  0.00  0.00    +0.000 A 
ATOM      3  C   UNL     1      46.347   4.990  13.507  0.00  0.00    +0.000 A 
ATOM      4  C   UNL     1      47.000   6.124  13.004  0.00  0.00    +0.000 A 
ATOM      5  C   UNL     1      46.607   6.616  11.752  0.00  0.00    +0.000 A 
ATOM      6  C   UNL     1      45.577   6.003  11.033  0.00  0.00    +0.000 A 
ENDROOT
BRANCH   1   8
ATOM      7  C   UNL     1      43.274   2.954  11.564  0.00  0.00    +0.000 C 
ATOM      8  C   UNL     1      43.844   4.125  10.746  0.00  0.00    +0.000 C 
BRANCH   8   9
ATOM      9  N   UNL     1      44.381   3.742   9.437  0.00  0.00    +0.000 NA
ATOM     10  H   UNL     1      43.622   3.742   8.754  0.00  0.00    +0.000 HD
BRANCH   9  11
ATOM     11  C   UNL     1      45.055   2.448   9.391  0.00  0.00    +0.000 C 
BRANCH  11  12
ATOM     12  C   UNL     1      45.899   2.331   8.137  0.00  0.00    +0.000 A 
ATOM     13  C   UNL     1      46.623   1.157   7.875  0.00  0.00    +0.000 A 
ATOM     14  C   UNL     1      47.407   1.046   6.726  0.00  0.00    +0.000 A 
ATOM     15  C   UNL     1      47.476   2.105   5.823  0.00  0.00    +0.000 A 
ATOM     16  C   UNL     1      46.757   3.274   6.067  0.00  0.00    +0.000 A 
ATOM     17  C   UNL     1      45.969   3.386   7.216  0.00  0.00    +0.000 A 
ENDBRANCH  11  12
ENDBRANCH   9  11
ENDBRANCH   8   9
ENDBRANCH   1   8
BRANCH   4  18
ATOM     18  C   UNL     1      48.117   6.798  13.765  0.00  0.00    +0.000 C 
BRANCH  18  19
ATOM     19  N   UNL     1      48.023   6.558  15.182  0.00  0.00    +0.000 N 
ATOM     20  C   UNL     1      49.134   6.441  15.977  0.00  0.00    +0.000 C 
ATOM     21  O   UNL     1      50.279   6.542  15.546  0.00  0.00    +0.000 OA
ATOM     22  H   UNL     1      47.161   6.136  15.509  0.00  0.00    +0.000 HD
BRANCH  20  23
ATOM     23  C   UNL     1      48.865   6.250  17.412  0.00  0.00    +0.000 A 
ATOM     24  C   UNL     1      49.129   5.028  18.014  0.00  0.00    +0.000 A 
ATOM     25  S   UNL     1      48.794   5.008  19.688  0.00  0.00    +0.000 S 
ATOM     26  C   UNL     1      48.244   6.618  19.656  0.00  0.00    +0.000 A 
ATOM     27  N   UNL     1      47.776   7.220  20.781  0.00  0.00    +0.000 NA
ATOM     28  C   UNL     1      47.367   8.438  20.608  0.00  0.00    +0.000 A 
ATOM     29  N   UNL     1      47.395   9.102  19.409  0.00  0.00    +0.000 N 
ATOM     30  C   UNL     1      47.904   8.550  18.260  0.00  0.00    +0.000 A 
ATOM     31  O   UNL     1      47.987   9.204  17.227  0.00  0.00    +0.000 OA
ATOM     32  C   UNL     1      48.345   7.169  18.393  0.00  0.00    +0.000 A 
ATOM     33  H   UNL     1      47.079  10.060  19.344  0.00  0.00    +0.000 HD
ENDBRANCH  20  23
ENDBRANCH  18  19
ENDBRANCH   4  18
TORSDOF 7
ENDMDL
MODEL 3
REMARK VINA RESULT:    -7.747      1.401      1.667
REMARK INTER + INTRA:         -12.197
REMARK INTER:                 -11.009
REMARK INTRA:                  -1.188
REMARK UNBOUND:                -1.280
REMARK  Name = 
REMARK  8 active torsions:
REMARK  status: ('A' for Active; 'I' for Inactive)
REMARK    1  A    between atoms: C_1  and  C_2
REMARK    2  A    between atoms: C_2  and  N_3
REMARK    3  A    between atoms: C_2  and  C_11
REMARK    4  A    between atoms: N_3  and  C_4
REMARK    5  A    between atoms: C_4  and  C_5
REMARK    6  A    between atoms: C_14  and  C_15
REMARK    7  A    between atoms: C_15  and  N_16
REMARK    8  A    between atoms: C_17  and  C_19
REMARK                            x       y       z     vdW  Elec       q    Type
REMARK                         _______ _______ _______ _____ _____    ______ ____
ROOT
ATOM      1  C   UNL     1      45.067   6.229  12.162  0.00  0.00    +0.000 A 
ATOM      2  C   UNL     1      45.711   5.364  13.057  0.00  0.00    +0.000 A 
ATOM      3  C   UNL     1      46.961   5.687  13.597  0.00  0.00    +0.000 A 
ATOM      4  C   UNL     1      47.599   6.890  13.264  0.00  0.00    +0.000 A 
ATOM      5  C   UNL     1      46.952   7.761  12.378  0.00  0.00    +0.000 A 
ATOM      6  C   UNL     1      45.695   7.447  11.854  0.00  0.00    +0.000 A 
ENDROOT
BRANCH   1   8
ATOM      7  C   UNL     1      42.952   4.901  12.537  0.00  0.00    +0.000 C 
ATOM      8  C   UNL     1      43.715   5.829  11.577  0.00  0.00    +0.000 C 
BRANCH   8   9
ATOM      9  N   UNL     1      43.941   5.263  10.244  0.00  0.00    +0.000 NA
ATOM     10  H   UNL     1      43.220   5.610   9.610  0.00  0.00    +0.000 HD
BRANCH   9  11
ATOM     11  C   UNL     1      43.963   3.805  10.178  0.00  0.00    +0.000 C 
BRANCH  11  12
ATOM     12  C   UNL     1      44.971   3.333   9.149  0.00  0.00    +0.000 A 
ATOM     13  C   UNL     1      45.558   4.246   8.259  0.00  0.00    +0.000 A 
ATOM     14  C   UNL     1      46.482   3.818   7.304  0.00  0.00    +0.000 A 
ATOM     15  C   UNL     1      46.832   2.471   7.228  0.00  0.00    +0.000 A 
ATOM     16  C   UNL     1      46.262   1.554   8.110  0.00  0.00    +0.000 A 
ATOM     17  C   UNL     1      45.339   1.982   9.068  0.00  0.00    +0.000 A 
ENDBRANCH  11  12
ENDBRANCH   9  11
ENDBRANCH   8   9
ENDBRANCH   1   8
BRANCH   4  18
ATOM     18  C   UNL     1      48.959   7.246  13.817  0.00  0.00    +0.000 C 
BRANCH  18  19
ATOM     19  N   UNL     1      48.891   7.631  15.204  0.00  0.00    +0.000 N 
ATOM     20  C   UNL     1      49.291   6.792  16.213  0.00  0.00    +0.000 C 
ATOM     21  O   UNL     1      49.741   5.669  16.011  0.00  0.00    +0.000 OA
ATOM     22  H   UNL     1      48.232   8.366  15.433  0.00  0.00    +0.000 HD
BRANCH  20  23
ATOM     23  C   UNL     1      49.207   7.356  17.570  0.00  0.00    +0.000 A 
ATOM     24  C   UNL     1      49.912   8.508  17.892  0.00  0.00    +0.000 A 
ATOM     25  S   UNL     1      49.659   9.035  19.496  0.00  0.00    +0.000 S 
ATOM     26  C   UNL     1      48.634   7.718  19.828  0.00  0.00    +0.000 A 
ATOM     27  N   UNL     1      48.087   7.552  21.061  0.00  0.00    +0.000 NA
ATOM     28  C   UNL     1      47.347   6.494  21.181  0.00  0.00    +0.000 A 
ATOM     29  N   UNL     1      47.104   5.598  20.173  0.00  0.00    +0.000 N 
ATOM     30  C   UNL     1      47.597   5.752  18.901  0.00  0.00    +0.000 A 
ATOM     31  O   UNL     1      47.293   4.974  18.005  0.00  0.00    +0.000 OA
ATOM     32  C   UNL     1      48.465   6.908  18.721  0.00  0.00    +0.000 A 
ATOM     33  H   UNL     1      46.501   4.802  20.326  0.00  0.00    +0.000 HD
ENDBRANCH  20  23
ENDBRANCH  18  19
ENDBRANCH   4  18
TORSDOF 7
ENDMDL
MODEL 4
REMARK VINA RESULT:    -7.300      1.689      3.027
REMARK INTER + INTRA:         -11.567
REMARK INTER:                 -10.693
REMARK INTRA:                  -0.875
REMARK UNBOUND:                -1.280
REMARK  Name = 
REMARK  8 active torsions:
REMARK  status: ('A' for Active; 'I' for Inactive)
REMARK    1  A    between atoms: C_1  and  C_2
REMARK    2  A    between atoms: C_2  and  N_3
REMARK    3  A    between atoms: C_2  and  C_11
REMARK    4  A    between atoms: N_3  and  C_4
REMARK    5  A    between atoms: C_4  and  C_5
REMARK    6  A    between atoms: C_14  and  C_15
REMARK    7  A    between atoms: C_15  and  N_16
REMARK    8  A    between atoms: C_17  and  C_19
REMARK                            x       y       z     vdW  Elec       q    Type
REMARK                         _______ _______ _______ _____ _____    ______ ____
ROOT
ATOM      1  C   UNL     1      45.447   4.992  11.763  0.00  0.00    +0.000 A 
ATOM      2  C   UNL     1      46.110   5.983  12.499  0.00  0.00    +0.000 A 
ATOM      3  C   UNL     1      46.819   5.662  13.662  0.00  0.00    +0.000 A 
ATOM      4  C   UNL     1      46.894   4.338  14.116  0.00  0.00    +0.000 A 
ATOM      5  C   UNL     1      46.241   3.344  13.375  0.00  0.00    +0.000 A 
ATOM      6  C   UNL     1      45.548   3.663  12.204  0.00  0.00    +0.000 A 
ENDROOT
BRANCH   1   8
ATOM      7  C   UNL     1      43.172   5.047  10.668  0.00  0.00    +0.000 C 
ATOM      8  C   UNL     1      44.664   5.386  10.513  0.00  0.00    +0.000 C 
BRANCH   8   9
ATOM      9  N   UNL     1      45.306   4.764   9.352  0.00  0.00    +0.000 NA
ATOM     10  H   UNL     1      45.114   5.329   8.524  0.00  0.00    +0.000 HD
BRANCH   9  11
ATOM     11  C   UNL     1      44.912   3.384   9.082  0.00  0.00    +0.000 C 
BRANCH  11  12
ATOM     12  C   UNL     1      45.786   2.782   8.000  0.00  0.00    +0.000 A 
ATOM     13  C   UNL     1      46.252   1.463   8.116  0.00  0.00    +0.000 A 
ATOM     14  C   UNL     1      47.063   0.904   7.127  0.00  0.00    +0.000 A 
ATOM     15  C   UNL     1      47.416   1.656   6.008  0.00  0.00    +0.000 A 
ATOM     16  C   UNL     1      46.955   2.965   5.876  0.00  0.00    +0.000 A 
ATOM     17  C   UNL     1      46.141   3.525   6.865  0.00  0.00    +0.000 A 
ENDBRANCH  11  12
ENDBRANCH   9  11
ENDBRANCH   8   9
ENDBRANCH   1   8
BRANCH   4  18
ATOM     18  C   UNL     1      47.634   3.975  15.382  0.00  0.00    +0.000 C 
BRANCH  18  19
ATOM     19  N   UNL     1      47.613   5.048  16.343  0.00  0.00    +0.000 N 
ATOM     20  C   UNL     1      48.724   5.403  17.064  0.00  0.00    +0.000 C 
ATOM     21  O   UNL     1      49.811   4.846  16.937  0.00  0.00    +0.000 OA
ATOM     22  H   UNL     1      46.705   5.291  16.723  0.00  0.00    +0.000 HD
BRANCH  20  23
ATOM     23  C   UNL     1      48.549   6.554  17.965  0.00  0.00    +0.000 A 
ATOM     24  C   UNL     1      48.544   6.368  19.340  0.00  0.00    +0.000 A 
ATOM     25  S   UNL     1      48.372   7.820  20.222  0.00  0.00    +0.000 S 
ATOM     26  C   UNL     1      48.255   8.740  18.796  0.00  0.00    +0.000 A 
ATOM     27  N   UNL     1      48.064  10.085  18.845  0.00  0.00    +0.000 NA
ATOM     28  C   UNL     1      47.968  10.656  17.685  0.00  0.00    +0.000 A 
ATOM     29  N   UNL     1      48.055   9.997  16.486  0.00  0.00    +0.000 N 
ATOM     30  C   UNL     1      48.296   8.649  16.389  0.00  0.00    +0.000 A 
ATOM     31  O   UNL     1      48.448   8.109  15.300  0.00  0.00    +0.000 OA
ATOM     32  C   UNL     1      48.377   7.953  17.666  0.00  0.00    +0.000 A 
ATOM     33  H   UNL     1      47.992  10.504  15.614  0.00  0.00    +0.000 HD
ENDBRANCH  20  23
ENDBRANCH  18  19
ENDBRANCH   4  18
TORSDOF 7
ENDMDL
MODEL 5
REMARK VINA RESULT:    -7.241      3.111      8.875
REMARK INTER + INTRA:         -11.484
REMARK INTER:                  -9.552
REMARK INTRA:                  -1.932
REMARK UNBOUND:                -1.280
REMARK  Name = 
REMARK  8 active torsions:
REMARK  status: ('A' for Active; 'I' for Inactive)
REMARK    1  A    between atoms: C_1  and  C_2
REMARK    2  A    between atoms: C_2  and  N_3
REMARK    3  A    between atoms: C_2  and  C_11
REMARK    4  A    between atoms: N_3  and  C_4
REMARK    5  A    between atoms: C_4  and  C_5
REMARK    6  A    between atoms: C_14  and  C_15
REMARK    7  A    between atoms: C_15  and  N_16
REMARK    8  A    between atoms: C_17  and  C_19
REMARK                            x       y       z     vdW  Elec       q    Type
REMARK                         _______ _______ _______ _____ _____    ______ ____
ROOT
ATOM      1  C   UNL     1      49.052   8.192  16.134  0.00  0.00    +0.000 A 
ATOM      2  C   UNL     1      49.320   7.017  15.417  0.00  0.00    +0.000 A 
ATOM      3  C   UNL     1      48.900   6.874  14.090  0.00  0.00    +0.000 A 
ATOM      4  C   UNL     1      48.208   7.904  13.439  0.00  0.00    +0.000 A 
ATOM      5  C   UNL     1      47.948   9.083  14.152  0.00  0.00    +0.000 A 
ATOM      6  C   UNL     1      48.385   9.233  15.471  0.00  0.00    +0.000 A 
ENDROOT
BRANCH   1   8
ATOM      7  C   UNL     1      50.985   7.901  17.734  0.00  0.00    +0.000 C 
ATOM      8  C   UNL     1      49.507   8.300  17.588  0.00  0.00    +0.000 C 
BRANCH   8   9
ATOM      9  N   UNL     1      48.586   7.516  18.417  0.00  0.00    +0.000 NA
ATOM     10  H   UNL     1      48.186   8.123  19.133  0.00  0.00    +0.000 HD
BRANCH   9  11
ATOM     11  C   UNL     1      49.169   6.345  19.065  0.00  0.00    +0.000 C 
BRANCH  11  12
ATOM     12  C   UNL     1      48.804   5.082  18.312  0.00  0.00    +0.000 A 
ATOM     13  C   UNL     1      49.775   4.097  18.063  0.00  0.00    +0.000 A 
ATOM     14  C   UNL     1      49.447   2.935  17.364  0.00  0.00    +0.000 A 
ATOM     15  C   UNL     1      48.146   2.740  16.906  0.00  0.00    +0.000 A 
ATOM     16  C   UNL     1      47.170   3.706  17.151  0.00  0.00    +0.000 A 
ATOM     17  C   UNL     1      47.496   4.869  17.853  0.00  0.00    +0.000 A 
ENDBRANCH  11  12
ENDBRANCH   9  11
ENDBRANCH   8   9
ENDBRANCH   1   8
BRANCH   4  18
ATOM     18  C   UNL     1      47.724   7.759  12.015  0.00  0.00    +0.000 C 
BRANCH  18  19
ATOM     19  N   UNL     1      46.972   6.545  11.825  0.00  0.00    +0.000 N 
ATOM     20  C   UNL     1      45.624   6.476  12.071  0.00  0.00    +0.000 C 
ATOM     21  O   UNL     1      44.965   7.437  12.457  0.00  0.00    +0.000 OA
ATOM     22  H   UNL     1      47.502   5.681  11.849  0.00  0.00    +0.000 HD
BRANCH  20  23
ATOM     23  C   UNL     1      44.996   5.179  11.776  0.00  0.00    +0.000 A 
ATOM     24  C   UNL     1      44.292   4.504  12.764  0.00  0.00    +0.000 A 
ATOM     25  S   UNL     1      43.598   3.040  12.226  0.00  0.00    +0.000 S 
ATOM     26  C   UNL     1      44.252   3.236  10.668  0.00  0.00    +0.000 A 
ATOM     27  N   UNL     1      44.056   2.298   9.704  0.00  0.00    +0.000 NA
ATOM     28  C   UNL     1      44.630   2.563   8.572  0.00  0.00    +0.000 A 
ATOM     29  N   UNL     1      45.375   3.687   8.324  0.00  0.00    +0.000 N 
ATOM     30  C   UNL     1      45.558   4.682   9.252  0.00  0.00    +0.000 A 
ATOM     31  O   UNL     1      46.162   5.710   8.967  0.00  0.00    +0.000 OA
ATOM     32  C   UNL     1      44.961   4.416  10.554  0.00  0.00    +0.000 A 
ATOM     33  H   UNL     1      45.781   3.844   7.412  0.00  0.00    +0.000 HD
ENDBRANCH  20  23
ENDBRANCH  18  19
ENDBRANCH   4  18
TORSDOF 7
ENDMDL
MODEL 6
REMARK VINA RESULT:    -7.229      3.771      5.970
REMARK INTER + INTRA:         -11.467
REMARK INTER:                 -10.187
REMARK INTRA:                  -1.280
REMARK UNBOUND:                -1.280
REMARK  Name = 
REMARK  8 active torsions:
REMARK  status: ('A' for Active; 'I' for Inactive)
REMARK    1  A    between atoms: C_1  and  C_2
REMARK    2  A    between atoms: C_2  and  N_3
REMARK    3  A    between atoms: C_2  and  C_11
REMARK    4  A    between atoms: N_3  and  C_4
REMARK    5  A    between atoms: C_4  and  C_5
REMARK    6  A    between atoms: C_14  and  C_15
REMARK    7  A    between atoms: C_15  and  N_16
REMARK    8  A    between atoms: C_17  and  C_19
REMARK                            x       y       z     vdW  Elec       q    Type
REMARK                         _______ _______ _______ _____ _____    ______ ____
ROOT
ATOM      1  C   UNL     1      45.396   4.822  11.652  0.00  0.00    +0.000 A 
ATOM      2  C   UNL     1      45.994   5.960  11.094  0.00  0.00    +0.000 A 
ATOM      3  C   UNL     1      46.992   6.659  11.782  0.00  0.00    +0.000 A 
ATOM      4  C   UNL     1      47.427   6.235  13.045  0.00  0.00    +0.000 A 
ATOM      5  C   UNL     1      46.837   5.092  13.601  0.00  0.00    +0.000 A 
ATOM      6  C   UNL     1      45.854   4.383  12.904  0.00  0.00    +0.000 A 
ENDROOT
BRANCH   1   8
ATOM      7  C   UNL     1      42.947   4.208  11.614  0.00  0.00    +0.000 C 
ATOM      8  C   UNL     1      44.294   4.102  10.880  0.00  0.00    +0.000 C 
BRANCH   8   9
ATOM      9  N   UNL     1      44.735   2.727  10.624  0.00  0.00    +0.000 NA
ATOM     10  H   UNL     1      45.747   2.676  10.743  0.00  0.00    +0.000 HD
BRANCH   9  11
ATOM     11  C   UNL     1      44.388   2.192   9.311  0.00  0.00    +0.000 C 
BRANCH  11  12
ATOM     12  C   UNL     1      45.561   2.315   8.359  0.00  0.00    +0.000 A 
ATOM     13  C   UNL     1      46.341   1.190   8.045  0.00  0.00    +0.000 A 
ATOM     14  C   UNL     1      47.427   1.297   7.174  0.00  0.00    +0.000 A 
ATOM     15  C   UNL     1      47.745   2.529   6.605  0.00  0.00    +0.000 A 
ATOM     16  C   UNL     1      46.975   3.652   6.902  0.00  0.00    +0.000 A 
ATOM     17  C   UNL     1      45.886   3.546   7.771  0.00  0.00    +0.000 A 
ENDBRANCH  11  12
ENDBRANCH   9  11
ENDBRANCH   8   9
ENDBRANCH   1   8
BRANCH   4  18
ATOM     18  C   UNL     1      48.486   6.989  13.815  0.00  0.00    +0.000 C 
BRANCH  18  19
ATOM     19  N   UNL     1      49.229   7.886  12.966  0.00  0.00    +0.000 N 
ATOM     20  C   UNL     1      50.113   8.804  13.474  0.00  0.00    +0.000 C 
ATOM     21  O   UNL     1      50.341   8.921  14.674  0.00  0.00    +0.000 OA
ATOM     22  H   UNL     1      48.836   8.064  12.049  0.00  0.00    +0.000 HD
BRANCH  20  23
ATOM     23  C   UNL     1      50.830   9.608  12.471  0.00  0.00    +0.000 A 
ATOM     24  C   UNL     1      52.218   9.635  12.462  0.00  0.00    +0.000 A 
ATOM     25  S   UNL     1      52.873  10.585  11.203  0.00  0.00    +0.000 S 
ATOM     26  C   UNL     1      51.324  11.027  10.655  0.00  0.00    +0.000 A 
ATOM     27  N   UNL     1      51.170  11.870   9.599  0.00  0.00    +0.000 NA
ATOM     28  C   UNL     1      49.937  12.141   9.304  0.00  0.00    +0.000 A 
ATOM     29  N   UNL     1      48.851  11.635   9.969  0.00  0.00    +0.000 N 
ATOM     30  C   UNL     1      48.959  10.744  11.008  0.00  0.00    +0.000 A 
ATOM     31  O   UNL     1      47.963  10.250  11.525  0.00  0.00    +0.000 OA
ATOM     32  C   UNL     1      50.326  10.433  11.403  0.00  0.00    +0.000 A 
ATOM     33  H   UNL     1      47.913  11.870   9.676  0.00  0.00    +0.000 HD
ENDBRANCH  20  23
ENDBRANCH  18  19
ENDBRANCH   4  18
TORSDOF 7
ENDMDL
MODEL 7
REMARK VINA RESULT:    -7.205      3.407      8.409
REMARK INTER + INTRA:         -11.433
REMARK INTER:                  -9.641
REMARK INTRA:                  -1.791
REMARK UNBOUND:                -1.280
REMARK  Name = 
REMARK  8 active torsions:
REMARK  status: ('A' for Active; 'I' for Inactive)
REMARK    1  A    between atoms: C_1  and  C_2
REMARK    2  A    between atoms: C_2  and  N_3
REMARK    3  A    between atoms: C_2  and  C_11
REMARK    4  A    between atoms: N_3  and  C_4
REMARK    5  A    between atoms: C_4  and  C_5
REMARK    6  A    between atoms: C_14  and  C_15
REMARK    7  A    between atoms: C_15  and  N_16
REMARK    8  A    between atoms: C_17  and  C_19
REMARK                            x       y       z     vdW  Elec       q    Type
REMARK                         _______ _______ _______ _____ _____    ______ ____
ROOT
ATOM      1  C   UNL     1      48.711   8.056  16.198  0.00  0.00    +0.000 A 
ATOM      2  C   UNL     1      49.123   6.943  15.453  0.00  0.00    +0.000 A 
ATOM      3  C   UNL     1      49.035   6.939  14.056  0.00  0.00    +0.000 A 
ATOM      4  C   UNL     1      48.540   8.052  13.364  0.00  0.00    +0.000 A 
ATOM      5  C   UNL     1      48.137   9.170  14.106  0.00  0.00    +0.000 A 
ATOM      6  C   UNL     1      48.243   9.181  15.500  0.00  0.00    +0.000 A 
ENDROOT
BRANCH   1   8
ATOM      7  C   UNL     1      50.262   7.887  18.183  0.00  0.00    +0.000 C 
ATOM      8  C   UNL     1      48.801   8.012  17.721  0.00  0.00    +0.000 C 
BRANCH   8   9
ATOM      9  N   UNL     1      47.923   6.941  18.202  0.00  0.00    +0.000 NA
ATOM     10  H   UNL     1      47.176   7.351  18.765  0.00  0.00    +0.000 HD
BRANCH   9  11
ATOM     11  C   UNL     1      48.579   5.896  18.983  0.00  0.00    +0.000 C 
BRANCH  11  12
ATOM     12  C   UNL     1      48.712   4.626  18.166  0.00  0.00    +0.000 A 
ATOM     13  C   UNL     1      47.641   4.170  17.381  0.00  0.00    +0.000 A 
ATOM     14  C   UNL     1      47.754   2.997  16.633  0.00  0.00    +0.000 A 
ATOM     15  C   UNL     1      48.941   2.266  16.658  0.00  0.00    +0.000 A 
ATOM     16  C   UNL     1      50.015   2.710  17.428  0.00  0.00    +0.000 A 
ATOM     17  C   UNL     1      49.903   3.885  18.176  0.00  0.00    +0.000 A 
ENDBRANCH  11  12
ENDBRANCH   9  11
ENDBRANCH   8   9
ENDBRANCH   1   8
BRANCH   4  18
ATOM     18  C   UNL     1      48.415   8.058  11.858  0.00  0.00    +0.000 C 
BRANCH  18  19
ATOM     19  N   UNL     1      47.651   6.935  11.379  0.00  0.00    +0.000 N 
ATOM     20  C   UNL     1      46.280   6.953  11.331  0.00  0.00    +0.000 C 
ATOM     21  O   UNL     1      45.611   7.921  11.679  0.00  0.00    +0.000 OA
ATOM     22  H   UNL     1      48.111   6.032  11.414  0.00  0.00    +0.000 HD
BRANCH  20  23
ATOM     23  C   UNL     1      45.654   5.746  10.766  0.00  0.00    +0.000 A 
ATOM     24  C   UNL     1      45.787   5.459   9.414  0.00  0.00    +0.000 A 
ATOM     25  S   UNL     1      45.031   4.000   8.951  0.00  0.00    +0.000 S 
ATOM     26  C   UNL     1      44.462   3.726  10.531  0.00  0.00    +0.000 A 
ATOM     27  N   UNL     1      43.701   2.638  10.821  0.00  0.00    +0.000 NA
ATOM     28  C   UNL     1      43.316   2.566  12.057  0.00  0.00    +0.000 A 
ATOM     29  N   UNL     1      43.635   3.485  13.023  0.00  0.00    +0.000 N 
ATOM     30  C   UNL     1      44.440   4.571  12.786  0.00  0.00    +0.000 A 
ATOM     31  O   UNL     1      44.769   5.326  13.694  0.00  0.00    +0.000 OA
ATOM     32  C   UNL     1      44.871   4.717  11.402  0.00  0.00    +0.000 A 
ATOM     33  H   UNL     1      43.319   3.361  13.975  0.00  0.00    +0.000 HD
ENDBRANCH  20  23
ENDBRANCH  18  19
ENDBRANCH   4  18
TORSDOF 7
ENDMDL
MODEL 8
REMARK VINA RESULT:    -7.024      3.798      9.604
REMARK INTER + INTRA:         -11.178
REMARK INTER:                  -9.223
REMARK INTRA:                  -1.956
REMARK UNBOUND:                -1.280
REMARK  Name = 
REMARK  8 active torsions:
REMARK  status: ('A' for Active; 'I' for Inactive)
REMARK    1  A    between atoms: C_1  and  C_2
REMARK    2  A    between atoms: C_2  and  N_3
REMARK    3  A    between atoms: C_2  and  C_11
REMARK    4  A    between atoms: N_3  and  C_4
REMARK    5  A    between atoms: C_4  and  C_5
REMARK    6  A    between atoms: C_14  and  C_15
REMARK    7  A    between atoms: C_15  and  N_16
REMARK    8  A    between atoms: C_17  and  C_19
REMARK                            x       y       z     vdW  Elec       q    Type
REMARK                         _______ _______ _______ _____ _____    ______ ____
ROOT
ATOM      1  C   UNL     1      48.601   5.751  20.285  0.00  0.00    +0.000 A 
ATOM      2  C   UNL     1      49.539   4.952  19.617  0.00  0.00    +0.000 A 
ATOM      3  C   UNL     1      49.211   4.307  18.419  0.00  0.00    +0.000 A 
ATOM      4  C   UNL     1      47.937   4.450  17.851  0.00  0.00    +0.000 A 
ATOM      5  C   UNL     1      47.002   5.256  18.513  0.00  0.00    +0.000 A 
ATOM      6  C   UNL     1      47.336   5.915  19.699  0.00  0.00    +0.000 A 
ENDROOT
BRANCH   1   8
ATOM      7  C   UNL     1      47.773   7.085  22.263  0.00  0.00    +0.000 C 
ATOM      8  C   UNL     1      48.991   6.418  21.602  0.00  0.00    +0.000 C 
BRANCH   8   9
ATOM      9  N   UNL     1      50.110   7.328  21.343  0.00  0.00    +0.000 NA
ATOM     10  H   UNL     1      50.732   7.329  22.153  0.00  0.00    +0.000 HD
BRANCH   9  11
ATOM     11  C   UNL     1      49.739   8.706  21.033  0.00  0.00    +0.000 C 
BRANCH  11  12
ATOM     12  C   UNL     1      49.364   8.841  19.571  0.00  0.00    +0.000 A 
ATOM     13  C   UNL     1      50.260   8.439  18.567  0.00  0.00    +0.000 A 
ATOM     14  C   UNL     1      49.925   8.568  17.219  0.00  0.00    +0.000 A 
ATOM     15  C   UNL     1      48.688   9.097  16.856  0.00  0.00    +0.000 A 
ATOM     16  C   UNL     1      47.785   9.494  17.842  0.00  0.00    +0.000 A 
ATOM     17  C   UNL     1      48.119   9.363  19.192  0.00  0.00    +0.000 A 
ENDBRANCH  11  12
ENDBRANCH   9  11
ENDBRANCH   8   9
ENDBRANCH   1   8
BRANCH   4  18
ATOM     18  C   UNL     1      47.556   3.743  16.572  0.00  0.00    +0.000 C 
BRANCH  18  19
ATOM     19  N   UNL     1      46.965   4.644  15.616  0.00  0.00    +0.000 N 
ATOM     20  C   UNL     1      46.832   4.316  14.290  0.00  0.00    +0.000 C 
ATOM     21  O   UNL     1      47.192   3.237  13.828  0.00  0.00    +0.000 OA
ATOM     22  H   UNL     1      46.976   5.627  15.860  0.00  0.00    +0.000 HD
BRANCH  20  23
ATOM     23  C   UNL     1      46.159   5.325  13.456  0.00  0.00    +0.000 A 
ATOM     24  C   UNL     1      46.775   6.542  13.202  0.00  0.00    +0.000 A 
ATOM     25  S   UNL     1      45.865   7.566  12.183  0.00  0.00    +0.000 S 
ATOM     26  C   UNL     1      44.598   6.435  12.083  0.00  0.00    +0.000 A 
ATOM     27  N   UNL     1      43.472   6.708  11.372  0.00  0.00    +0.000 NA
ATOM     28  C   UNL     1      42.578   5.769  11.402  0.00  0.00    +0.000 A 
ATOM     29  N   UNL     1      42.720   4.583  12.074  0.00  0.00    +0.000 N 
ATOM     30  C   UNL     1      43.858   4.247  12.765  0.00  0.00    +0.000 A 
ATOM     31  O   UNL     1      43.980   3.144  13.286  0.00  0.00    +0.000 OA
ATOM     32  C   UNL     1      44.881   5.283  12.792  0.00  0.00    +0.000 A 
ATOM     33  H   UNL     1      41.993   3.882  12.042  0.00  0.00    +0.000 HD
ENDBRANCH  20  23
ENDBRANCH  18  19
ENDBRANCH   4  18
TORSDOF 7
ENDMDL
MODEL 9
REMARK VINA RESULT:    -6.956      3.859      9.144
REMARK INTER + INTRA:         -11.082
REMARK INTER:                  -8.843
REMARK INTRA:                  -2.239
REMARK UNBOUND:                -1.280
REMARK  Name = 
REMARK  8 active torsions:
REMARK  status: ('A' for Active; 'I' for Inactive)
REMARK    1  A    between atoms: C_1  and  C_2
REMARK    2  A    between atoms: C_2  and  N_3
REMARK    3  A    between atoms: C_2  and  C_11
REMARK    4  A    between atoms: N_3  and  C_4
REMARK    5  A    between atoms: C_4  and  C_5
REMARK    6  A    between atoms: C_14  and  C_15
REMARK    7  A    between atoms: C_15  and  N_16
REMARK    8  A    between atoms: C_17  and  C_19
REMARK                            x       y       z     vdW  Elec       q    Type
REMARK                         _______ _______ _______ _____ _____    ______ ____
ROOT
ATOM      1  C   UNL     1      50.781   4.355  18.899  0.00  0.00    +0.000 A 
ATOM      2  C   UNL     1      50.781   3.570  17.739  0.00  0.00    +0.000 A 
ATOM      3  C   UNL     1      49.585   3.253  17.085  0.00  0.00    +0.000 A 
ATOM      4  C   UNL     1      48.355   3.721  17.568  0.00  0.00    +0.000 A 
ATOM      5  C   UNL     1      48.355   4.515  18.723  0.00  0.00    +0.000 A 
ATOM      6  C   UNL     1      49.551   4.847  19.364  0.00  0.00    +0.000 A 
ENDROOT
BRANCH   1   8
ATOM      7  C   UNL     1      51.875   5.451  20.894  0.00  0.00    +0.000 C 
ATOM      8  C   UNL     1      52.105   4.658  19.597  0.00  0.00    +0.000 C 
BRANCH   8   9
ATOM      9  N   UNL     1      52.991   5.321  18.634  0.00  0.00    +0.000 NA
ATOM     10  H   UNL     1      53.957   5.071  18.846  0.00  0.00    +0.000 HD
BRANCH   9  11
ATOM     11  C   UNL     1      52.882   6.776  18.582  0.00  0.00    +0.000 C 
BRANCH  11  12
ATOM     12  C   UNL     1      51.746   7.193  17.669  0.00  0.00    +0.000 A 
ATOM     13  C   UNL     1      51.736   6.798  16.322  0.00  0.00    +0.000 A 
ATOM     14  C   UNL     1      50.697   7.185  15.474  0.00  0.00    +0.000 A 
ATOM     15  C   UNL     1      49.654   7.969  15.962  0.00  0.00    +0.000 A 
ATOM     16  C   UNL     1      49.648   8.364  17.300  0.00  0.00    +0.000 A 
ATOM     17  C   UNL     1      50.686   7.975  18.150  0.00  0.00    +0.000 A 
ENDBRANCH  11  12
ENDBRANCH   9  11
ENDBRANCH   8   9
ENDBRANCH   1   8
BRANCH   4  18
ATOM     18  C   UNL     1      47.051   3.370  16.891  0.00  0.00    +0.000 C 
BRANCH  18  19
ATOM     19  N   UNL     1      46.679   4.351  15.903  0.00  0.00    +0.000 N 
ATOM     20  C   UNL     1      46.841   4.129  14.559  0.00  0.00    +0.000 C 
ATOM     21  O   UNL     1      47.300   3.085  14.103  0.00  0.00    +0.000 OA
ATOM     22  H   UNL     1      46.631   5.312  16.221  0.00  0.00    +0.000 HD
BRANCH  20  23
ATOM     23  C   UNL     1      46.361   5.208  13.680  0.00  0.00    +0.000 A 
ATOM     24  C   UNL     1      47.146   6.332  13.465  0.00  0.00    +0.000 A 
ATOM     25  S   UNL     1      46.445   7.455  12.386  0.00  0.00    +0.000 S 
ATOM     26  C   UNL     1      45.051   6.497  12.205  0.00  0.00    +0.000 A 
ATOM     27  N   UNL     1      44.019   6.906  11.420  0.00  0.00    +0.000 NA
ATOM     28  C   UNL     1      43.010   6.092  11.392  0.00  0.00    +0.000 A 
ATOM     29  N   UNL     1      42.953   4.905  12.075  0.00  0.00    +0.000 N 
ATOM     30  C   UNL     1      43.990   4.431  12.840  0.00  0.00    +0.000 A 
ATOM     31  O   UNL     1      43.933   3.327  13.370  0.00  0.00    +0.000 OA
ATOM     32  C   UNL     1      45.135   5.326  12.933  0.00  0.00    +0.000 A 
ATOM     33  H   UNL     1      42.144   4.304  11.996  0.00  0.00    +0.000 HD
ENDBRANCH  20  23
ENDBRANCH  18  19
ENDBRANCH   4  18
TORSDOF 7
ENDMDL
