MODEL 1
REMARK VINA RESULT:    -8.175      0.000      0.000
REMARK INTER + INTRA:         -12.133
REMARK INTER:                 -11.043
REMARK INTRA:                  -1.090
REMARK UNBOUND:                -1.090
REMARK  Name = 
REMARK  6 active torsions:
REMARK  status: ('A' for Active; 'I' for Inactive)
REMARK    1  A    between atoms: C_2  and  C_4
REMARK    2  A    between atoms: C_7  and  O_8
REMARK    3  A    between atoms: O_8  and  C_9
REMARK    4  A    between atoms: C_9  and  C_10
REMARK    5  A    between atoms: C_10  and  C_11
REMARK    6  A    between atoms: C_15  and  C_16
REMARK                            x       y       z     vdW  Elec       q    Type
REMARK                         _______ _______ _______ _____ _____    ______ ____
ROOT
ATOM      1  C   UNL     1      43.682   3.226  11.434  0.00  0.00    +0.000 C 
ENDROOT
BRANCH   1   2
ATOM      2  O   UNL     1      43.563   3.714  10.097  0.00  0.00    +0.000 OA
BRANCH   2   6
ATOM      3  C   UNL     1      46.634   2.478   7.561  0.00  0.00    +0.000 A 
ATOM      4  C   UNL     1      46.305   3.838   7.595  0.00  0.00    +0.000 A 
ATOM      5  C   UNL     1      45.281   4.294   8.431  0.00  0.00    +0.000 A 
ATOM      6  C   UNL     1      44.577   3.398   9.238  0.00  0.00    +0.000 A 
ATOM      7  C   UNL     1      44.902   2.037   9.193  0.00  0.00    +0.000 A 
ATOM      8  C   UNL     1      45.922   1.576   8.356  0.00  0.00    +0.000 A 
BRANCH   3  10
ATOM      9  N   UNL     1      48.753   2.794   6.401  0.00  0.00    +0.000 N 
ATOM     10  C   UNL     1      47.710   1.955   6.683  0.00  0.00    +0.000 C 
ATOM     11  O   UNL     1      47.694   0.809   6.254  0.00  0.00    +0.000 OA
ATOM     12  H   UNL     1      49.530   2.385   5.898  0.00  0.00    +0.000 HD
ATOM     13  H   UNL     1      48.931   3.630   6.939  0.00  0.00    +0.000 HD
ENDBRANCH   3  10
ENDBRANCH   2   6
ENDBRANCH   1   2
BRANCH   1  14
ATOM     14  C   UNL     1      43.638   4.415  12.394  0.00  0.00    +0.000 C 
BRANCH  14  15
ATOM     15  C   UNL     1      45.022   4.951  12.655  0.00  0.00    +0.000 A 
ATOM     16  C   UNL     1      45.575   5.925  11.821  0.00  0.00    +0.000 A 
ATOM     17  C   UNL     1      46.830   6.454  12.106  0.00  0.00    +0.000 A 
ATOM     18  C   UNL     1      47.527   6.034  13.242  0.00  0.00    +0.000 A 
ATOM     19  C   UNL     1      46.983   5.092  14.133  0.00  0.00    +0.000 A 
ATOM     20  C   UNL     1      45.732   4.541  13.796  0.00  0.00    +0.000 A 
BRANCH  19  21
ATOM     21  C   UNL     1      47.644   4.766  15.419  0.00  0.00    +0.000 A 
ATOM     22  C   UNL     1      47.553   3.471  15.964  0.00  0.00    +0.000 A 
ATOM     23  C   UNL     1      48.244   3.114  17.125  0.00  0.00    +0.000 A 
ATOM     24  C   UNL     1      49.053   4.045  17.767  0.00  0.00    +0.000 A 
ATOM     25  C   UNL     1      49.149   5.338  17.262  0.00  0.00    +0.000 A 
ATOM     26  C   UNL     1      48.445   5.698  16.107  0.00  0.00    +0.000 A 
ENDBRANCH  19  21
ENDBRANCH  14  15
ENDBRANCH   1  14
TORSDOF 6
ENDMDL
MODEL 2
REMARK VINA RESULT:    -8.157      1.937      3.812
REMARK INTER + INTRA:         -12.108
REMARK INTER:                 -10.870
REMARK INTRA:                  -1.238
REMARK UNBOUND:                -1.090
REMARK  Name = 
REMARK  6 active torsions:
REMARK  status: ('A' for Active; 'I' for Inactive)
REMARK    1  A    between atoms: C_2  and  C_4
REMARK    2  A    between atoms: C_7  and  O_8
REMARK    3  A    between atoms: O_8  and  C_9
REMARK    4  A    between atoms: C_9  and  C_10
REMARK    5  A    between atoms: C_10  and  C_11
REMARK    6  A    between atoms: C_15  and  C_16
REMARK                            x       y       z     vdW  Elec       q    Type
REMARK                         _______ _______ _______ _____ _____    ______ ____
ROOT
ATOM      1  C   UNL     1      43.233   5.037  10.677  0.00  0.00    +0.000 C 
ENDROOT
BRANCH   1   2
ATOM      2  O   UNL     1      43.443   3.632  10.525  0.00  0.00    +0.000 OA
BRANCH   2   6
ATOM      3  C   UNL     1      46.367   2.738   7.689  0.00  0.00    +0.000 A 
ATOM      4  C   UNL     1      45.779   1.683   8.394  0.00  0.00    +0.000 A 
ATOM      5  C   UNL     1      44.794   1.939   9.355  0.00  0.00    +0.000 A 
ATOM      6  C   UNL     1      44.391   3.249   9.619  0.00  0.00    +0.000 A 
ATOM      7  C   UNL     1      44.990   4.304   8.919  0.00  0.00    +0.000 A 
ATOM      8  C   UNL     1      45.976   4.053   7.962  0.00  0.00    +0.000 A 
BRANCH   3  10
ATOM      9  N   UNL     1      47.330   3.225   5.504  0.00  0.00    +0.000 N 
ATOM     10  C   UNL     1      47.418   2.507   6.666  0.00  0.00    +0.000 C 
ATOM     11  O   UNL     1      48.349   1.738   6.860  0.00  0.00    +0.000 OA
ATOM     12  H   UNL     1      48.113   3.140   4.870  0.00  0.00    +0.000 HD
ATOM     13  H   UNL     1      46.745   4.042   5.420  0.00  0.00    +0.000 HD
ENDBRANCH   3  10
ENDBRANCH   2   6
ENDBRANCH   1   2
BRANCH   1  14
ATOM     14  C   UNL     1      43.283   5.381  12.166  0.00  0.00    +0.000 C 
BRANCH  14  15
ATOM     15  C   UNL     1      44.707   5.493  12.646  0.00  0.00    +0.000 A 
ATOM     16  C   UNL     1      45.311   4.435  13.329  0.00  0.00    +0.000 A 
ATOM     17  C   UNL     1      46.645   4.528  13.717  0.00  0.00    +0.000 A 
ATOM     18  C   UNL     1      47.390   5.667  13.400  0.00  0.00    +0.000 A 
ATOM     19  C   UNL     1      46.831   6.732  12.670  0.00  0.00    +0.000 A 
ATOM     20  C   UNL     1      45.469   6.630  12.330  0.00  0.00    +0.000 A 
BRANCH  19  21
ATOM     21  C   UNL     1      47.660   7.865  12.192  0.00  0.00    +0.000 A 
ATOM     22  C   UNL     1      47.140   9.173  12.169  0.00  0.00    +0.000 A 
ATOM     23  C   UNL     1      47.929  10.270  11.812  0.00  0.00    +0.000 A 
ATOM     24  C   UNL     1      49.266  10.084  11.477  0.00  0.00    +0.000 A 
ATOM     25  C   UNL     1      49.803   8.801  11.473  0.00  0.00    +0.000 A 
ATOM     26  C   UNL     1      49.007   7.702  11.818  0.00  0.00    +0.000 A 
ENDBRANCH  19  21
ENDBRANCH  14  15
ENDBRANCH   1  14
TORSDOF 6
ENDMDL
MODEL 3
REMARK VINA RESULT:    -7.930      2.074      4.071
REMARK INTER + INTRA:         -11.801
REMARK INTER:                 -10.684
REMARK INTRA:                  -1.117
REMARK UNBOUND:                -1.090
REMARK  Name = 
REMARK  6 active torsions:
REMARK  status: ('A' for Active; 'I' for Inactive)
REMARK    1  A    between atoms: C_2  and  C_4
REMARK    2  A    between atoms: C_7  and  O_8
REMARK    3  A    between atoms: O_8  and  C_9
REMARK    4  A    between atoms: C_9  and  C_10
REMARK    5  A    between atoms: C_10  and  C_11
REMARK    6  A    between atoms: C_15  and  C_16
REMARK                            x       y       z     vdW  Elec       q    Type
REMARK                         _______ _______ _______ _____ _____    ______ ____
ROOT
ATOM      1  C   UNL     1      43.212   4.293  11.157  0.00  0.00    +0.000 C 
ENDROOT
BRANCH   1   2
ATOM      2  O   UNL     1      43.714   3.039  10.693  0.00  0.00    +0.000 OA
BRANCH   2   6
ATOM      3  C   UNL     1      46.312   2.871   7.435  0.00  0.00    +0.000 A 
ATOM      4  C   UNL     1      45.898   4.127   7.893  0.00  0.00    +0.000 A 
ATOM      5  C   UNL     1      45.027   4.228   8.983  0.00  0.00    +0.000 A 
ATOM      6  C   UNL     1      44.561   3.077   9.621  0.00  0.00    +0.000 A 
ATOM      7  C   UNL     1      44.969   1.822   9.154  0.00  0.00    +0.000 A 
ATOM      8  C   UNL     1      45.835   1.716   8.063  0.00  0.00    +0.000 A 
BRANCH   3  10
ATOM      9  N   UNL     1      48.566   2.598   6.551  0.00  0.00    +0.000 N 
ATOM     10  C   UNL     1      47.231   2.723   6.279  0.00  0.00    +0.000 C 
ATOM     11  O   UNL     1      46.818   2.674   5.128  0.00  0.00    +0.000 OA
ATOM     12  H   UNL     1      49.162   2.385   5.762  0.00  0.00    +0.000 HD
ATOM     13  H   UNL     1      48.908   2.370   7.473  0.00  0.00    +0.000 HD
ENDBRANCH   3  10
ENDBRANCH   2   6
ENDBRANCH   1   2
BRANCH   1  14
ATOM     14  C   UNL     1      43.494   4.408  12.655  0.00  0.00    +0.000 C 
BRANCH  14  15
ATOM     15  C   UNL     1      44.790   5.136  12.908  0.00  0.00    +0.000 A 
ATOM     16  C   UNL     1      45.925   4.439  13.327  0.00  0.00    +0.000 A 
ATOM     17  C   UNL     1      47.131   5.113  13.501  0.00  0.00    +0.000 A 
ATOM     18  C   UNL     1      47.215   6.480  13.229  0.00  0.00    +0.000 A 
ATOM     19  C   UNL     1      46.107   7.207  12.757  0.00  0.00    +0.000 A 
ATOM     20  C   UNL     1      44.890   6.510  12.633  0.00  0.00    +0.000 A 
BRANCH  19  21
ATOM     21  C   UNL     1      46.233   8.616  12.313  0.00  0.00    +0.000 A 
ATOM     22  C   UNL     1      45.087   9.401  12.085  0.00  0.00    +0.000 A 
ATOM     23  C   UNL     1      45.180  10.757  11.758  0.00  0.00    +0.000 A 
ATOM     24  C   UNL     1      46.427  11.364  11.659  0.00  0.00    +0.000 A 
ATOM     25  C   UNL     1      47.578  10.610  11.862  0.00  0.00    +0.000 A 
ATOM     26  C   UNL     1      47.483   9.249  12.176  0.00  0.00    +0.000 A 
ENDBRANCH  19  21
ENDBRANCH  14  15
ENDBRANCH   1  14
TORSDOF 6
ENDMDL
MODEL 4
REMARK VINA RESULT:    -7.476      3.227      7.642
REMARK INTER + INTRA:         -11.188
REMARK INTER:                  -9.982
REMARK INTRA:                  -1.206
REMARK UNBOUND:                -1.090
REMARK  Name = 
REMARK  6 active torsions:
REMARK  status: ('A' for Active; 'I' for Inactive)
REMARK    1  A    between atoms: C_2  and  C_4
REMARK    2  A    between atoms: C_7  and  O_8
REMARK    3  A    between atoms: O_8  and  C_9
REMARK    4  A    between atoms: C_9  and  C_10
REMARK    5  A    between atoms: C_10  and  C_11
REMARK    6  A    between atoms: C_15  and  C_16
REMARK                            x       y       z     vdW  Elec       q    Type
REMARK                         _______ _______ _______ _____ _____    ______ ____
ROOT
ATOM      1  C   UNL     1      45.124   6.899  12.350  0.00  0.00    +0.000 C 
ENDROOT
BRANCH   1   2
ATOM      2  O   UNL     1      46.491   6.483  12.347  0.00  0.00    +0.000 OA
BRANCH   2   6
ATOM      3  C   UNL     1      47.646   4.029  15.515  0.00  0.00    +0.000 A 
ATOM      4  C   UNL     1      47.981   5.387  15.568  0.00  0.00    +0.000 A 
ATOM      5  C   UNL     1      47.613   6.245  14.527  0.00  0.00    +0.000 A 
ATOM      6  C   UNL     1      46.910   5.754  13.424  0.00  0.00    +0.000 A 
ATOM      7  C   UNL     1      46.587   4.393  13.370  0.00  0.00    +0.000 A 
ATOM      8  C   UNL     1      46.957   3.532  14.406  0.00  0.00    +0.000 A 
BRANCH   3  10
ATOM      9  N   UNL     1      47.359   3.202  17.789  0.00  0.00    +0.000 N 
ATOM     10  C   UNL     1      48.024   3.087  16.598  0.00  0.00    +0.000 C 
ATOM     11  O   UNL     1      48.867   2.216  16.431  0.00  0.00    +0.000 OA
ATOM     12  H   UNL     1      47.548   2.481  18.474  0.00  0.00    +0.000 HD
ATOM     13  H   UNL     1      46.495   3.716  17.875  0.00  0.00    +0.000 HD
ENDBRANCH   3  10
ENDBRANCH   2   6
ENDBRANCH   1   2
BRANCH   1  14
ATOM     14  C   UNL     1      44.529   6.632  10.967  0.00  0.00    +0.000 C 
BRANCH  14  15
ATOM     15  C   UNL     1      44.500   5.155  10.667  0.00  0.00    +0.000 A 
ATOM     16  C   UNL     1      43.595   4.316  11.322  0.00  0.00    +0.000 A 
ATOM     17  C   UNL     1      43.538   2.964  10.995  0.00  0.00    +0.000 A 
ATOM     18  C   UNL     1      44.363   2.450   9.991  0.00  0.00    +0.000 A 
ATOM     19  C   UNL     1      45.250   3.273   9.275  0.00  0.00    +0.000 A 
ATOM     20  C   UNL     1      45.320   4.626   9.657  0.00  0.00    +0.000 A 
BRANCH  19  21
ATOM     21  C   UNL     1      46.006   2.766   8.104  0.00  0.00    +0.000 A 
ATOM     22  C   UNL     1      46.436   1.427   8.053  0.00  0.00    +0.000 A 
ATOM     23  C   UNL     1      47.067   0.901   6.922  0.00  0.00    +0.000 A 
ATOM     24  C   UNL     1      47.275   1.704   5.807  0.00  0.00    +0.000 A 
ATOM     25  C   UNL     1      46.877   3.037   5.833  0.00  0.00    +0.000 A 
ATOM     26  C   UNL     1      46.258   3.565   6.973  0.00  0.00    +0.000 A 
ENDBRANCH  19  21
ENDBRANCH  14  15
ENDBRANCH   1  14
TORSDOF 6
ENDMDL
MODEL 5
REMARK VINA RESULT:    -7.437      3.461      7.777
REMARK INTER + INTRA:         -11.136
REMARK INTER:                 -10.148
REMARK INTRA:                  -0.988
REMARK UNBOUND:                -1.090
REMARK  Name = 
REMARK  6 active torsions:
REMARK  status: ('A' for Active; 'I' for Inactive)
REMARK    1  A    between atoms: C_2  and  C_4
REMARK    2  A    between atoms: C_7  and  O_8
REMARK    3  A    between atoms: O_8  and  C_9
REMARK    4  A    between atoms: C_9  and  C_10
REMARK    5  A    between atoms: C_10  and  C_11
REMARK    6  A    between atoms: C_15  and  C_16
REMARK                            x       y       z     vdW  Elec       q    Type
REMARK                         _______ _______ _______ _____ _____    ______ ____
ROOT
ATOM      1  C   UNL     1      47.549   7.167  11.953  0.00  0.00    +0.000 C 
ENDROOT
BRANCH   1   2
ATOM      2  O   UNL     1      47.828   7.410  13.333  0.00  0.00    +0.000 OA
BRANCH   2   6
ATOM      3  C   UNL     1      47.676   4.282  16.087  0.00  0.00    +0.000 A 
ATOM      4  C   UNL     1      46.965   4.150  14.889  0.00  0.00    +0.000 A 
ATOM      5  C   UNL     1      46.989   5.176  13.938  0.00  0.00    +0.000 A 
ATOM      6  C   UNL     1      47.720   6.341  14.177  0.00  0.00    +0.000 A 
ATOM      7  C   UNL     1      48.422   6.474  15.381  0.00  0.00    +0.000 A 
ATOM      8  C   UNL     1      48.397   5.454  16.335  0.00  0.00    +0.000 A 
BRANCH   3  10
ATOM      9  N   UNL     1      48.884   2.793  17.589  0.00  0.00    +0.000 N 
ATOM     10  C   UNL     1      47.671   3.219  17.122  0.00  0.00    +0.000 C 
ATOM     11  O   UNL     1      46.629   2.762  17.573  0.00  0.00    +0.000 OA
ATOM     12  H   UNL     1      48.859   2.152  18.372  0.00  0.00    +0.000 HD
ATOM     13  H   UNL     1      49.732   3.319  17.441  0.00  0.00    +0.000 HD
ENDBRANCH   3  10
ENDBRANCH   2   6
ENDBRANCH   1   2
BRANCH   1  14
ATOM     14  C   UNL     1      46.119   7.617  11.656  0.00  0.00    +0.000 C 
BRANCH  14  15
ATOM     15  C   UNL     1      45.274   6.461  11.187  0.00  0.00    +0.000 A 
ATOM     16  C   UNL     1      43.919   6.391  11.519  0.00  0.00    +0.000 A 
ATOM     17  C   UNL     1      43.136   5.349  11.032  0.00  0.00    +0.000 A 
ATOM     18  C   UNL     1      43.695   4.387  10.187  0.00  0.00    +0.000 A 
ATOM     19  C   UNL     1      45.043   4.451   9.790  0.00  0.00    +0.000 A 
ATOM     20  C   UNL     1      45.822   5.490  10.333  0.00  0.00    +0.000 A 
BRANCH  19  21
ATOM     21  C   UNL     1      45.597   3.529   8.768  0.00  0.00    +0.000 A 
ATOM     22  C   UNL     1      46.240   4.033   7.622  0.00  0.00    +0.000 A 
ATOM     23  C   UNL     1      46.852   3.187   6.693  0.00  0.00    +0.000 A 
ATOM     24  C   UNL     1      46.842   1.812   6.894  0.00  0.00    +0.000 A 
ATOM     25  C   UNL     1      46.199   1.283   8.008  0.00  0.00    +0.000 A 
ATOM     26  C   UNL     1      45.575   2.131   8.931  0.00  0.00    +0.000 A 
ENDBRANCH  19  21
ENDBRANCH  14  15
ENDBRANCH   1  14
TORSDOF 6
ENDMDL
MODEL 6
REMARK VINA RESULT:    -6.924      3.699      7.681
REMARK INTER + INTRA:         -10.442
REMARK INTER:                  -9.280
REMARK INTRA:                  -1.162
REMARK UNBOUND:                -1.090
REMARK  Name = 
REMARK  6 active torsions:
REMARK  status: ('A' for Active; 'I' for Inactive)
REMARK    1  A    between atoms: C_2  and  C_4
REMARK    2  A    between atoms: C_7  and  O_8
REMARK    3  A    between atoms: O_8  and  C_9
REMARK    4  A    between atoms: C_9  and  C_10
REMARK    5  A    between atoms: C_10  and  C_11
REMARK    6  A    between atoms: C_15  and  C_16
REMARK                            x       y       z     vdW  Elec       q    Type
REMARK                         _______ _______ _______ _____ _____    ______ ____
ROOT
ATOM      1  C   UNL     1      45.762   4.657  13.649  0.00  0.00    +0.000 C 
ENDROOT
BRANCH   1   2
ATOM      2  O   UNL     1      46.980   5.149  13.086  0.00  0.00    +0.000 OA
BRANCH   2   6
ATOM      3  C   UNL     1      47.389   9.190  12.141  0.00  0.00    +0.000 A 
ATOM      4  C   UNL     1      46.129   8.721  12.528  0.00  0.00    +0.000 A 
ATOM      5  C   UNL     1      45.948   7.373  12.853  0.00  0.00    +0.000 A 
ATOM      6  C   UNL     1      47.022   6.483  12.792  0.00  0.00    +0.000 A 
ATOM      7  C   UNL     1      48.279   6.954  12.394  0.00  0.00    +0.000 A 
ATOM      8  C   UNL     1      48.463   8.299  12.065  0.00  0.00    +0.000 A 
BRANCH   3  10
ATOM      9  N   UNL     1      47.061  11.561  12.596  0.00  0.00    +0.000 N 
ATOM     10  C   UNL     1      47.619  10.612  11.783  0.00  0.00    +0.000 C 
ATOM     11  O   UNL     1      48.310  10.934  10.826  0.00  0.00    +0.000 OA
ATOM     12  H   UNL     1      47.322  12.520  12.404  0.00  0.00    +0.000 HD
ATOM     13  H   UNL     1      46.719  11.344  13.520  0.00  0.00    +0.000 HD
ENDBRANCH   3  10
ENDBRANCH   2   6
ENDBRANCH   1   2
BRANCH   1  14
ATOM     14  C   UNL     1      45.373   3.369  12.921  0.00  0.00    +0.000 C 
BRANCH  14  15
ATOM     15  C   UNL     1      44.921   3.660  11.513  0.00  0.00    +0.000 A 
ATOM     16  C   UNL     1      44.003   4.681  11.258  0.00  0.00    +0.000 A 
ATOM     17  C   UNL     1      43.637   4.978   9.949  0.00  0.00    +0.000 A 
ATOM     18  C   UNL     1      44.209   4.276   8.885  0.00  0.00    +0.000 A 
ATOM     19  C   UNL     1      45.174   3.275   9.097  0.00  0.00    +0.000 A 
ATOM     20  C   UNL     1      45.492   2.965  10.433  0.00  0.00    +0.000 A 
BRANCH  19  21
ATOM     21  C   UNL     1      45.901   2.644   7.969  0.00  0.00    +0.000 A 
ATOM     22  C   UNL     1      46.180   3.374   6.799  0.00  0.00    +0.000 A 
ATOM     23  C   UNL     1      46.943   2.832   5.761  0.00  0.00    +0.000 A 
ATOM     24  C   UNL     1      47.455   1.544   5.874  0.00  0.00    +0.000 A 
ATOM     25  C   UNL     1      47.181   0.792   7.011  0.00  0.00    +0.000 A 
ATOM     26  C   UNL     1      46.405   1.332   8.044  0.00  0.00    +0.000 A 
ENDBRANCH  19  21
ENDBRANCH  14  15
ENDBRANCH   1  14
TORSDOF 6
ENDMDL
MODEL 7
REMARK VINA RESULT:    -6.838      3.997      7.858
REMARK INTER + INTRA:         -10.326
REMARK INTER:                  -9.095
REMARK INTRA:                  -1.231
REMARK UNBOUND:                -1.090
REMARK  Name = 
REMARK  6 active torsions:
REMARK  status: ('A' for Active; 'I' for Inactive)
REMARK    1  A    between atoms: C_2  and  C_4
REMARK    2  A    between atoms: C_7  and  O_8
REMARK    3  A    between atoms: O_8  and  C_9
REMARK    4  A    between atoms: C_9  and  C_10
REMARK    5  A    between atoms: C_10  and  C_11
REMARK    6  A    between atoms: C_15  and  C_16
REMARK                            x       y       z     vdW  Elec       q    Type
REMARK                         _______ _______ _______ _____ _____    ______ ____
ROOT
ATOM      1  C   UNL     1      49.577   7.403  13.124  0.00  0.00    +0.000 C 
ENDROOT
BRANCH   1   2
ATOM      2  O   UNL     1      49.014   7.772  14.384  0.00  0.00    +0.000 OA
BRANCH   2   6
ATOM      3  C   UNL     1      47.994   4.569  16.853  0.00  0.00    +0.000 A 
ATOM      4  C   UNL     1      48.951   5.482  17.309  0.00  0.00    +0.000 A 
ATOM      5  C   UNL     1      49.322   6.570  16.512  0.00  0.00    +0.000 A 
ATOM      6  C   UNL     1      48.743   6.753  15.254  0.00  0.00    +0.000 A 
ATOM      7  C   UNL     1      47.793   5.831  14.798  0.00  0.00    +0.000 A 
ATOM      8  C   UNL     1      47.423   4.741  15.589  0.00  0.00    +0.000 A 
BRANCH   3  10
ATOM      9  N   UNL     1      48.347   3.088  18.756  0.00  0.00    +0.000 N 
ATOM     10  C   UNL     1      47.578   3.399  17.667  0.00  0.00    +0.000 C 
ATOM     11  O   UNL     1      46.570   2.756  17.406  0.00  0.00    +0.000 OA
ATOM     12  H   UNL     1      47.986   2.362  19.361  0.00  0.00    +0.000 HD
ATOM     13  H   UNL     1      49.012   3.738  19.147  0.00  0.00    +0.000 HD
ENDBRANCH   3  10
ENDBRANCH   2   6
ENDBRANCH   1   2
BRANCH   1  14
ATOM     14  C   UNL     1      48.889   8.214  12.026  0.00  0.00    +0.000 C 
BRANCH  14  15
ATOM     15  C   UNL     1      47.433   7.845  11.913  0.00  0.00    +0.000 A 
ATOM     16  C   UNL     1      46.439   8.759  12.271  0.00  0.00    +0.000 A 
ATOM     17  C   UNL     1      45.097   8.427  12.107  0.00  0.00    +0.000 A 
ATOM     18  C   UNL     1      44.741   7.192  11.558  0.00  0.00    +0.000 A 
ATOM     19  C   UNL     1      45.713   6.266  11.139  0.00  0.00    +0.000 A 
ATOM     20  C   UNL     1      47.061   6.609  11.357  0.00  0.00    +0.000 A 
BRANCH  19  21
ATOM     21  C   UNL     1      45.344   5.029  10.409  0.00  0.00    +0.000 A 
ATOM     22  C   UNL     1      44.666   3.985  11.065  0.00  0.00    +0.000 A 
ATOM     23  C   UNL     1      44.225   2.851  10.378  0.00  0.00    +0.000 A 
ATOM     24  C   UNL     1      44.445   2.738   9.010  0.00  0.00    +0.000 A 
ATOM     25  C   UNL     1      45.129   3.745   8.337  0.00  0.00    +0.000 A 
ATOM     26  C   UNL     1      45.582   4.874   9.030  0.00  0.00    +0.000 A 
ENDBRANCH  19  21
ENDBRANCH  14  15
ENDBRANCH   1  14
TORSDOF 6
ENDMDL
MODEL 8
REMARK VINA RESULT:    -6.767      4.183      7.426
REMARK INTER + INTRA:         -10.230
REMARK INTER:                  -9.330
REMARK INTRA:                  -0.901
REMARK UNBOUND:                -1.090
REMARK  Name = 
REMARK  6 active torsions:
REMARK  status: ('A' for Active; 'I' for Inactive)
REMARK    1  A    between atoms: C_2  and  C_4
REMARK    2  A    between atoms: C_7  and  O_8
REMARK    3  A    between atoms: O_8  and  C_9
REMARK    4  A    between atoms: C_9  and  C_10
REMARK    5  A    between atoms: C_10  and  C_11
REMARK    6  A    between atoms: C_15  and  C_16
REMARK                            x       y       z     vdW  Elec       q    Type
REMARK                         _______ _______ _______ _____ _____    ______ ____
ROOT
ATOM      1  C   UNL     1      45.540   6.987  12.545  0.00  0.00    +0.000 C 
ENDROOT
BRANCH   1   2
ATOM      2  O   UNL     1      45.997   8.336  12.438  0.00  0.00    +0.000 OA
BRANCH   2   6
ATOM      3  C   UNL     1      50.071   8.596  11.585  0.00  0.00    +0.000 A 
ATOM      4  C   UNL     1      49.313   9.772  11.579  0.00  0.00    +0.000 A 
ATOM      5  C   UNL     1      47.944   9.729  11.859  0.00  0.00    +0.000 A 
ATOM      6  C   UNL     1      47.320   8.513  12.145  0.00  0.00    +0.000 A 
ATOM      7  C   UNL     1      48.080   7.337  12.140  0.00  0.00    +0.000 A 
ATOM      8  C   UNL     1      49.447   7.375  11.856  0.00  0.00    +0.000 A 
BRANCH   3  10
ATOM      9  N   UNL     1      52.356   8.034  12.216  0.00  0.00    +0.000 N 
ATOM     10  C   UNL     1      51.525   8.600  11.287  0.00  0.00    +0.000 C 
ATOM     11  O   UNL     1      51.969   9.053  10.241  0.00  0.00    +0.000 OA
ATOM     12  H   UNL     1      53.327   7.944  11.946  0.00  0.00    +0.000 HD
ATOM     13  H   UNL     1      52.014   7.427  12.945  0.00  0.00    +0.000 HD
ENDBRANCH   3  10
ENDBRANCH   2   6
ENDBRANCH   1   2
BRANCH   1  14
ATOM     14  C   UNL     1      44.434   6.762  11.514  0.00  0.00    +0.000 C 
BRANCH  14  15
ATOM     15  C   UNL     1      44.344   5.309  11.126  0.00  0.00    +0.000 A 
ATOM     16  C   UNL     1      43.382   4.478  11.704  0.00  0.00    +0.000 A 
ATOM     17  C   UNL     1      43.271   3.152  11.295  0.00  0.00    +0.000 A 
ATOM     18  C   UNL     1      44.101   2.658  10.285  0.00  0.00    +0.000 A 
ATOM     19  C   UNL     1      45.047   3.477   9.644  0.00  0.00    +0.000 A 
ATOM     20  C   UNL     1      45.168   4.800  10.108  0.00  0.00    +0.000 A 
BRANCH  19  21
ATOM     21  C   UNL     1      45.813   3.003   8.466  0.00  0.00    +0.000 A 
ATOM     22  C   UNL     1      46.204   1.655   8.359  0.00  0.00    +0.000 A 
ATOM     23  C   UNL     1      46.844   1.165   7.218  0.00  0.00    +0.000 A 
ATOM     24  C   UNL     1      47.102   2.013   6.147  0.00  0.00    +0.000 A 
ATOM     25  C   UNL     1      46.743   3.355   6.230  0.00  0.00    +0.000 A 
ATOM     26  C   UNL     1      46.115   3.847   7.380  0.00  0.00    +0.000 A 
ENDBRANCH  19  21
ENDBRANCH  14  15
ENDBRANCH   1  14
TORSDOF 6
ENDMDL
MODEL 9
REMARK VINA RESULT:    -6.499      2.821      5.454
REMARK INTER + INTRA:          -9.868
REMARK INTER:                  -8.880
REMARK INTRA:                  -0.988
REMARK UNBOUND:                -1.090
REMARK  Name = 
REMARK  6 active torsions:
REMARK  status: ('A' for Active; 'I' for Inactive)
REMARK    1  A    between atoms: C_2  and  C_4
REMARK    2  A    between atoms: C_7  and  O_8
REMARK    3  A    between atoms: O_8  and  C_9
REMARK    4  A    between atoms: C_9  and  C_10
REMARK    5  A    between atoms: C_10  and  C_11
REMARK    6  A    between atoms: C_15  and  C_16
REMARK                            x       y       z     vdW  Elec       q    Type
REMARK                         _______ _______ _______ _____ _____    ______ ____
ROOT
ATOM      1  C   UNL     1      48.578   6.556  14.350  0.00  0.00    +0.000 C 
ENDROOT
BRANCH   1   2
ATOM      2  O   UNL     1      47.404   7.142  13.785  0.00  0.00    +0.000 OA
BRANCH   2   6
ATOM      3  C   UNL     1      44.887   4.844  11.380  0.00  0.00    +0.000 A 
ATOM      4  C   UNL     1      45.519   4.226  12.466  0.00  0.00    +0.000 A 
ATOM      5  C   UNL     1      46.371   4.960  13.297  0.00  0.00    +0.000 A 
ATOM      6  C   UNL     1      46.601   6.315  13.050  0.00  0.00    +0.000 A 
ATOM      7  C   UNL     1      45.976   6.927  11.957  0.00  0.00    +0.000 A 
ATOM      8  C   UNL     1      45.127   6.196  11.122  0.00  0.00    +0.000 A 
BRANCH   3  10
ATOM      9  N   UNL     1      43.978   4.459   9.153  0.00  0.00    +0.000 N 
ATOM     10  C   UNL     1      43.981   4.097  10.473  0.00  0.00    +0.000 C 
ATOM     11  O   UNL     1      43.289   3.170  10.871  0.00  0.00    +0.000 OA
ATOM     12  H   UNL     1      43.442   3.867   8.532  0.00  0.00    +0.000 HD
ATOM     13  H   UNL     1      44.711   5.022   8.748  0.00  0.00    +0.000 HD
ENDBRANCH   3  10
ENDBRANCH   2   6
ENDBRANCH   1   2
BRANCH   1  14
ATOM     14  C   UNL     1      48.519   6.712  15.870  0.00  0.00    +0.000 C 
BRANCH  14  15
ATOM     15  C   UNL     1      48.529   5.368  16.551  0.00  0.00    +0.000 A 
ATOM     16  C   UNL     1      47.344   4.649  16.721  0.00  0.00    +0.000 A 
ATOM     17  C   UNL     1      47.374   3.384  17.300  0.00  0.00    +0.000 A 
ATOM     18  C   UNL     1      48.592   2.818  17.686  0.00  0.00    +0.000 A 
ATOM     19  C   UNL     1      49.811   3.489  17.486  0.00  0.00    +0.000 A 
ATOM     20  C   UNL     1      49.747   4.785  16.939  0.00  0.00    +0.000 A 
BRANCH  19  21
ATOM     21  C   UNL     1      51.113   2.828  17.742  0.00  0.00    +0.000 A 
ATOM     22  C   UNL     1      51.324   1.489  17.363  0.00  0.00    +0.000 A 
ATOM     23  C   UNL     1      52.570   0.872  17.509  0.00  0.00    +0.000 A 
ATOM     24  C   UNL     1      53.642   1.587  18.030  0.00  0.00    +0.000 A 
ATOM     25  C   UNL     1      53.460   2.907  18.430  0.00  0.00    +0.000 A 
ATOM     26  C   UNL     1      52.207   3.518  18.297  0.00  0.00    +0.000 A 
ENDBRANCH  19  21
ENDBRANCH  14  15
ENDBRANCH   1  14
TORSDOF 6
ENDMDL
