MODEL 1
REMARK VINA RESULT:    -7.389      0.000      0.000
REMARK INTER + INTRA:          -9.630
REMARK INTER:                  -9.117
REMARK INTRA:                  -0.513
REMARK UNBOUND:                -0.513
REMARK  Name = 
REMARK  4 active torsions:
REMARK  status: ('A' for Active; 'I' for Inactive)
REMARK    1  A    between atoms: C_2  and  C_4
REMARK    2  A    between atoms: C_9  and  C_10
REMARK    3  A    between atoms: C_10  and  S_11
REMARK    4  A    between atoms: S_11  and  C_12
REMARK                            x       y       z     vdW  Elec       q    Type
REMARK                         _______ _______ _______ _____ _____    ______ ____
ROOT
ATOM      1  C   UNL     1      46.743   6.354  12.765  0.00  0.00    +0.000 C 
ENDROOT
BRANCH   1   7
ATOM      2  C   UNL     1      47.881   4.657  15.999  0.00  0.00    +0.000 A 
ATOM      3  C   UNL     1      48.809   5.571  16.507  0.00  0.00    +0.000 A 
ATOM      4  C   UNL     1      49.045   6.766  15.825  0.00  0.00    +0.000 A 
ATOM      5  C   UNL     1      48.372   7.048  14.628  0.00  0.00    +0.000 A 
ATOM      6 CL   UNL     1      48.712   8.562  13.870  0.00  0.00    +0.000 Cl
ATOM      7  C   UNL     1      47.470   6.123  14.076  0.00  0.00    +0.000 A 
ATOM      8  C   UNL     1      47.230   4.927  14.787  0.00  0.00    +0.000 A 
BRANCH   2  10
ATOM      9  N   UNL     1      48.574   2.448  16.759  0.00  0.00    +0.000 N 
ATOM     10  C   UNL     1      47.579   3.384  16.706  0.00  0.00    +0.000 C 
ATOM     11  O   UNL     1      46.499   3.196  17.251  0.00  0.00    +0.000 OA
ATOM     12  H   UNL     1      48.396   1.637  17.338  0.00  0.00    +0.000 HD
ATOM     13  H   UNL     1      49.538   2.666  16.548  0.00  0.00    +0.000 HD
ENDBRANCH   2  10
ENDBRANCH   1   7
BRANCH   1  14
ATOM     14  S   UNL     1      44.942   6.107  12.937  0.00  0.00    +0.000 S 
BRANCH  14  15
ATOM     15  C   UNL     1      44.574   4.720  11.859  0.00  0.00    +0.000 A 
ATOM     16  C   UNL     1      43.530   3.885  12.252  0.00  0.00    +0.000 A 
ATOM     17  C   UNL     1      43.244   2.769  11.483  0.00  0.00    +0.000 A 
ATOM     18  N   UNL     1      43.924   2.426  10.370  0.00  0.00    +0.000 NA
ATOM     19  C   UNL     1      44.928   3.232   9.975  0.00  0.00    +0.000 A 
ATOM     20  N   UNL     1      45.722   2.885   8.878  0.00  0.00    +0.000 N 
ATOM     21  C   UNL     1      45.724   1.447   8.538  0.00  0.00    +0.000 C 
ATOM     22  C   UNL     1      46.850   1.212   7.514  0.00  0.00    +0.000 C 
ATOM     23  O   UNL     1      46.657   2.009   6.329  0.00  0.00    +0.000 OA
ATOM     24  C   UNL     1      46.587   3.409   6.660  0.00  0.00    +0.000 C 
ATOM     25  C   UNL     1      45.467   3.697   7.675  0.00  0.00    +0.000 C 
ATOM     26  C   UNL     1      45.266   4.389  10.692  0.00  0.00    +0.000 A 
ENDBRANCH  14  15
ENDBRANCH   1  14
TORSDOF 4
ENDMDL
MODEL 2
REMARK VINA RESULT:    -7.111      3.431      4.511
REMARK INTER + INTRA:          -9.287
REMARK INTER:                  -8.812
REMARK INTRA:                  -0.475
REMARK UNBOUND:                -0.513
REMARK  Name = 
REMARK  4 active torsions:
REMARK  status: ('A' for Active; 'I' for Inactive)
REMARK    1  A    between atoms: C_2  and  C_4
REMARK    2  A    between atoms: C_9  and  C_10
REMARK    3  A    between atoms: C_10  and  S_11
REMARK    4  A    between atoms: S_11  and  C_12
REMARK                            x       y       z     vdW  Elec       q    Type
REMARK                         _______ _______ _______ _____ _____    ______ ____
ROOT
ATOM      1  C   UNL     1      46.658   6.446  12.576  0.00  0.00    +0.000 C 
ENDROOT
BRANCH   1   7
ATOM      2  C   UNL     1      45.874  10.135  11.937  0.00  0.00    +0.000 A 
ATOM      3  C   UNL     1      47.146  10.681  11.739  0.00  0.00    +0.000 A 
ATOM      4  C   UNL     1      48.267   9.850  11.773  0.00  0.00    +0.000 A 
ATOM      5  C   UNL     1      48.129   8.477  12.019  0.00  0.00    +0.000 A 
ATOM      6 CL   UNL     1      49.571   7.527  12.016  0.00  0.00    +0.000 Cl
ATOM      7  C   UNL     1      46.865   7.915  12.265  0.00  0.00    +0.000 A 
ATOM      8  C   UNL     1      45.740   8.766  12.211  0.00  0.00    +0.000 A 
BRANCH   2  10
ATOM      9  N   UNL     1      43.455  10.358  12.117  0.00  0.00    +0.000 N 
ATOM     10  C   UNL     1      44.651  10.978  11.883  0.00  0.00    +0.000 C 
ATOM     11  O   UNL     1      44.713  12.183  11.677  0.00  0.00    +0.000 OA
ATOM     12  H   UNL     1      42.645  10.960  12.190  0.00  0.00    +0.000 HD
ATOM     13  H   UNL     1      43.391   9.440  12.533  0.00  0.00    +0.000 HD
ENDBRANCH   2  10
ENDBRANCH   1   7
BRANCH   1  14
ATOM     14  S   UNL     1      44.898   6.058  12.876  0.00  0.00    +0.000 S 
BRANCH  14  15
ATOM     15  C   UNL     1      44.553   4.669  11.795  0.00  0.00    +0.000 A 
ATOM     16  C   UNL     1      43.512   3.825  12.177  0.00  0.00    +0.000 A 
ATOM     17  C   UNL     1      43.243   2.706  11.405  0.00  0.00    +0.000 A 
ATOM     18  N   UNL     1      43.938   2.369  10.299  0.00  0.00    +0.000 NA
ATOM     19  C   UNL     1      44.939   3.184   9.915  0.00  0.00    +0.000 A 
ATOM     20  N   UNL     1      45.748   2.842   8.826  0.00  0.00    +0.000 N 
ATOM     21  C   UNL     1      45.765   1.405   8.486  0.00  0.00    +0.000 C 
ATOM     22  C   UNL     1      46.904   1.180   7.475  0.00  0.00    +0.000 C 
ATOM     23  O   UNL     1      46.717   1.974   6.287  0.00  0.00    +0.000 OA
ATOM     24  C   UNL     1      46.631   3.374   6.617  0.00  0.00    +0.000 C 
ATOM     25  C   UNL     1      45.499   3.653   7.620  0.00  0.00    +0.000 C 
ATOM     26  C   UNL     1      45.260   4.343  10.635  0.00  0.00    +0.000 A 
ENDBRANCH  14  15
ENDBRANCH   1  14
TORSDOF 4
ENDMDL
MODEL 3
REMARK VINA RESULT:    -6.886      2.762      4.089
REMARK INTER + INTRA:          -9.009
REMARK INTER:                  -8.284
REMARK INTRA:                  -0.725
REMARK UNBOUND:                -0.513
REMARK  Name = 
REMARK  4 active torsions:
REMARK  status: ('A' for Active; 'I' for Inactive)
REMARK    1  A    between atoms: C_2  and  C_4
REMARK    2  A    between atoms: C_9  and  C_10
REMARK    3  A    between atoms: C_10  and  S_11
REMARK    4  A    between atoms: S_11  and  C_12
REMARK                            x       y       z     vdW  Elec       q    Type
REMARK                         _______ _______ _______ _____ _____    ______ ____
ROOT
ATOM      1  C   UNL     1      49.690   8.037  14.920  0.00  0.00    +0.000 C 
ENDROOT
BRANCH   1   7
ATOM      2  C   UNL     1      48.550   5.190  17.207  0.00  0.00    +0.000 A 
ATOM      3  C   UNL     1      49.764   4.657  17.649  0.00  0.00    +0.000 A 
ATOM      4  C   UNL     1      50.964   5.241  17.240  0.00  0.00    +0.000 A 
ATOM      5  C   UNL     1      50.962   6.346  16.379  0.00  0.00    +0.000 A 
ATOM      6 CL   UNL     1      52.495   7.015  15.949  0.00  0.00    +0.000 Cl
ATOM      7  C   UNL     1      49.755   6.870  15.885  0.00  0.00    +0.000 A 
ATOM      8  C   UNL     1      48.549   6.278  16.321  0.00  0.00    +0.000 A 
BRANCH   2  10
ATOM      9  N   UNL     1      46.561   5.287  18.611  0.00  0.00    +0.000 N 
ATOM     10  C   UNL     1      47.248   4.617  17.637  0.00  0.00    +0.000 C 
ATOM     11  O   UNL     1      46.789   3.608  17.116  0.00  0.00    +0.000 OA
ATOM     12  H   UNL     1      45.628   4.952  18.814  0.00  0.00    +0.000 HD
ATOM     13  H   UNL     1      46.782   6.237  18.875  0.00  0.00    +0.000 HD
ENDBRANCH   2  10
ENDBRANCH   1   7
BRANCH   1  14
ATOM     14  S   UNL     1      49.563   7.477  13.187  0.00  0.00    +0.000 S 
BRANCH  14  15
ATOM     15  C   UNL     1      47.800   7.314  12.895  0.00  0.00    +0.000 A 
ATOM     16  C   UNL     1      47.013   8.425  13.192  0.00  0.00    +0.000 A 
ATOM     17  C   UNL     1      45.640   8.329  13.037  0.00  0.00    +0.000 A 
ATOM     18  N   UNL     1      45.004   7.214  12.622  0.00  0.00    +0.000 NA
ATOM     19  C   UNL     1      45.756   6.138  12.321  0.00  0.00    +0.000 A 
ATOM     20  N   UNL     1      45.148   4.930  11.967  0.00  0.00    +0.000 N 
ATOM     21  C   UNL     1      43.750   4.777  12.417  0.00  0.00    +0.000 C 
ATOM     22  C   UNL     1      43.347   3.307  12.196  0.00  0.00    +0.000 C 
ATOM     23  O   UNL     1      43.473   2.930  10.811  0.00  0.00    +0.000 OA
ATOM     24  C   UNL     1      44.819   3.140  10.345  0.00  0.00    +0.000 C 
ATOM     25  C   UNL     1      45.266   4.600  10.535  0.00  0.00    +0.000 C 
ATOM     26  C   UNL     1      47.153   6.163  12.437  0.00  0.00    +0.000 A 
ENDBRANCH  14  15
ENDBRANCH   1  14
TORSDOF 4
ENDMDL
MODEL 4
REMARK VINA RESULT:    -6.771      2.548      8.204
REMARK INTER + INTRA:          -8.868
REMARK INTER:                  -8.482
REMARK INTRA:                  -0.386
REMARK UNBOUND:                -0.513
REMARK  Name = 
REMARK  4 active torsions:
REMARK  status: ('A' for Active; 'I' for Inactive)
REMARK    1  A    between atoms: C_2  and  C_4
REMARK    2  A    between atoms: C_9  and  C_10
REMARK    3  A    between atoms: C_10  and  S_11
REMARK    4  A    between atoms: S_11  and  C_12
REMARK                            x       y       z     vdW  Elec       q    Type
REMARK                         _______ _______ _______ _____ _____    ______ ____
ROOT
ATOM      1  C   UNL     1      45.165   6.779  11.662  0.00  0.00    +0.000 C 
ENDROOT
BRANCH   1   7
ATOM      2  C   UNL     1      45.197   3.814   9.244  0.00  0.00    +0.000 A 
ATOM      3  C   UNL     1      44.263   2.947   9.821  0.00  0.00    +0.000 A 
ATOM      4  C   UNL     1      43.586   3.334  10.978  0.00  0.00    +0.000 A 
ATOM      5  C   UNL     1      43.845   4.575  11.575  0.00  0.00    +0.000 A 
ATOM      6 CL   UNL     1      42.939   4.975  12.990  0.00  0.00    +0.000 Cl
ATOM      7  C   UNL     1      44.812   5.442  11.039  0.00  0.00    +0.000 A 
ATOM      8  C   UNL     1      45.477   5.044   9.859  0.00  0.00    +0.000 A 
BRANCH   2  10
ATOM      9  N   UNL     1      46.234   2.137   7.814  0.00  0.00    +0.000 N 
ATOM     10  C   UNL     1      45.922   3.455   7.998  0.00  0.00    +0.000 C 
ATOM     11  O   UNL     1      46.197   4.297   7.152  0.00  0.00    +0.000 OA
ATOM     12  H   UNL     1      46.625   1.889   6.914  0.00  0.00    +0.000 HD
ATOM     13  H   UNL     1      45.808   1.397   8.355  0.00  0.00    +0.000 HD
ENDBRANCH   2  10
ENDBRANCH   1   7
BRANCH   1  14
ATOM     14  S   UNL     1      46.971   6.992  11.832  0.00  0.00    +0.000 S 
BRANCH  14  15
ATOM     15  C   UNL     1      47.381   6.150  13.362  0.00  0.00    +0.000 A 
ATOM     16  C   UNL     1      46.836   4.880  13.541  0.00  0.00    +0.000 A 
ATOM     17  C   UNL     1      47.078   4.213  14.731  0.00  0.00    +0.000 A 
ATOM     18  N   UNL     1      47.807   4.721  15.746  0.00  0.00    +0.000 NA
ATOM     19  C   UNL     1      48.348   5.943  15.579  0.00  0.00    +0.000 A 
ATOM     20  N   UNL     1      49.042   6.556  16.626  0.00  0.00    +0.000 N 
ATOM     21  C   UNL     1      48.718   6.047  17.974  0.00  0.00    +0.000 C 
ATOM     22  C   UNL     1      49.344   7.011  18.999  0.00  0.00    +0.000 C 
ATOM     23  O   UNL     1      50.772   7.106  18.827  0.00  0.00    +0.000 OA
ATOM     24  C   UNL     1      51.098   7.537  17.493  0.00  0.00    +0.000 C 
ATOM     25  C   UNL     1      50.503   6.599  16.429  0.00  0.00    +0.000 C 
ATOM     26  C   UNL     1      48.162   6.673  14.396  0.00  0.00    +0.000 A 
ENDBRANCH  14  15
ENDBRANCH   1  14
TORSDOF 4
ENDMDL
MODEL 5
REMARK VINA RESULT:    -6.687      2.275      7.956
REMARK INTER + INTRA:          -8.763
REMARK INTER:                  -8.293
REMARK INTRA:                  -0.470
REMARK UNBOUND:                -0.513
REMARK  Name = 
REMARK  4 active torsions:
REMARK  status: ('A' for Active; 'I' for Inactive)
REMARK    1  A    between atoms: C_2  and  C_4
REMARK    2  A    between atoms: C_9  and  C_10
REMARK    3  A    between atoms: C_10  and  S_11
REMARK    4  A    between atoms: S_11  and  C_12
REMARK                            x       y       z     vdW  Elec       q    Type
REMARK                         _______ _______ _______ _____ _____    ______ ____
ROOT
ATOM      1  C   UNL     1      45.197   6.650  11.867  0.00  0.00    +0.000 C 
ENDROOT
BRANCH   1   7
ATOM      2  C   UNL     1      45.181   3.748   9.375  0.00  0.00    +0.000 A 
ATOM      3  C   UNL     1      44.256   2.868   9.946  0.00  0.00    +0.000 A 
ATOM      4  C   UNL     1      43.599   3.227  11.123  0.00  0.00    +0.000 A 
ATOM      5  C   UNL     1      43.871   4.452  11.747  0.00  0.00    +0.000 A 
ATOM      6 CL   UNL     1      42.989   4.818  13.187  0.00  0.00    +0.000 Cl
ATOM      7  C   UNL     1      44.831   5.331  11.217  0.00  0.00    +0.000 A 
ATOM      8  C   UNL     1      45.474   4.961  10.016  0.00  0.00    +0.000 A 
BRANCH   2  10
ATOM      9  N   UNL     1      46.213   2.109   7.897  0.00  0.00    +0.000 N 
ATOM     10  C   UNL     1      45.885   3.419   8.108  0.00  0.00    +0.000 C 
ATOM     11  O   UNL     1      46.129   4.278   7.270  0.00  0.00    +0.000 OA
ATOM     12  H   UNL     1      46.587   1.881   6.985  0.00  0.00    +0.000 HD
ATOM     13  H   UNL     1      45.810   1.355   8.436  0.00  0.00    +0.000 HD
ENDBRANCH   2  10
ENDBRANCH   1   7
BRANCH   1  14
ATOM     14  S   UNL     1      46.976   7.021  11.693  0.00  0.00    +0.000 S 
BRANCH  14  15
ATOM     15  C   UNL     1      47.590   7.082  13.379  0.00  0.00    +0.000 A 
ATOM     16  C   UNL     1      48.002   8.328  13.847  0.00  0.00    +0.000 A 
ATOM     17  C   UNL     1      48.536   8.417  15.122  0.00  0.00    +0.000 A 
ATOM     18  N   UNL     1      48.697   7.362  15.947  0.00  0.00    +0.000 NA
ATOM     19  C   UNL     1      48.292   6.154  15.508  0.00  0.00    +0.000 A 
ATOM     20  N   UNL     1      48.509   5.012  16.285  0.00  0.00    +0.000 N 
ATOM     21  C   UNL     1      49.586   5.133  17.288  0.00  0.00    +0.000 C 
ATOM     22  C   UNL     1      49.873   3.723  17.836  0.00  0.00    +0.000 C 
ATOM     23  O   UNL     1      48.696   3.141  18.431  0.00  0.00    +0.000 OA
ATOM     24  C   UNL     1      47.618   3.082  17.477  0.00  0.00    +0.000 C 
ATOM     25  C   UNL     1      47.286   4.471  16.906  0.00  0.00    +0.000 C 
ATOM     26  C   UNL     1      47.726   5.988  14.236  0.00  0.00    +0.000 A 
ENDBRANCH  14  15
ENDBRANCH   1  14
TORSDOF 4
ENDMDL
MODEL 6
REMARK VINA RESULT:    -6.589      2.772      4.274
REMARK INTER + INTRA:          -8.643
REMARK INTER:                  -7.962
REMARK INTRA:                  -0.682
REMARK UNBOUND:                -0.513
REMARK  Name = 
REMARK  4 active torsions:
REMARK  status: ('A' for Active; 'I' for Inactive)
REMARK    1  A    between atoms: C_2  and  C_4
REMARK    2  A    between atoms: C_9  and  C_10
REMARK    3  A    between atoms: C_10  and  S_11
REMARK    4  A    between atoms: S_11  and  C_12
REMARK                            x       y       z     vdW  Elec       q    Type
REMARK                         _______ _______ _______ _____ _____    ______ ____
ROOT
ATOM      1  C   UNL     1      49.345   8.111  15.695  0.00  0.00    +0.000 C 
ENDROOT
BRANCH   1   7
ATOM      2  C   UNL     1      47.946   4.907  17.248  0.00  0.00    +0.000 A 
ATOM      3  C   UNL     1      47.687   5.301  18.565  0.00  0.00    +0.000 A 
ATOM      4  C   UNL     1      47.926   6.621  18.950  0.00  0.00    +0.000 A 
ATOM      5  C   UNL     1      48.439   7.549  18.033  0.00  0.00    +0.000 A 
ATOM      6 CL   UNL     1      48.679   9.164  18.596  0.00  0.00    +0.000 Cl
ATOM      7  C   UNL     1      48.751   7.163  16.718  0.00  0.00    +0.000 A 
ATOM      8  C   UNL     1      48.487   5.829  16.340  0.00  0.00    +0.000 A 
BRANCH   2  10
ATOM      9  N   UNL     1      46.959   2.711  17.620  0.00  0.00    +0.000 N 
ATOM     10  C   UNL     1      47.681   3.519  16.787  0.00  0.00    +0.000 C 
ATOM     11  O   UNL     1      48.060   3.126  15.691  0.00  0.00    +0.000 OA
ATOM     12  H   UNL     1      46.688   1.810  17.248  0.00  0.00    +0.000 HD
ATOM     13  H   UNL     1      46.424   3.072  18.398  0.00  0.00    +0.000 HD
ENDBRANCH   2  10
ENDBRANCH   1   7
BRANCH   1  14
ATOM     14  S   UNL     1      49.474   7.335  14.047  0.00  0.00    +0.000 S 
BRANCH  14  15
ATOM     15  C   UNL     1      47.821   7.462  13.359  0.00  0.00    +0.000 A 
ATOM     16  C   UNL     1      47.209   8.712  13.437  0.00  0.00    +0.000 A 
ATOM     17  C   UNL     1      45.911   8.847  12.970  0.00  0.00    +0.000 A 
ATOM     18  N   UNL     1      45.188   7.835  12.449  0.00  0.00    +0.000 NA
ATOM     19  C   UNL     1      45.774   6.626  12.359  0.00  0.00    +0.000 A 
ATOM     20  N   UNL     1      45.047   5.521  11.907  0.00  0.00    +0.000 N 
ATOM     21  C   UNL     1      43.580   5.647  12.024  0.00  0.00    +0.000 C 
ATOM     22  C   UNL     1      42.971   4.258  11.756  0.00  0.00    +0.000 C 
ATOM     23  O   UNL     1      43.330   3.770  10.448  0.00  0.00    +0.000 OA
ATOM     24  C   UNL     1      44.761   3.709  10.301  0.00  0.00    +0.000 C 
ATOM     25  C   UNL     1      45.418   5.078  10.550  0.00  0.00    +0.000 C 
ATOM     26  C   UNL     1      47.090   6.414  12.795  0.00  0.00    +0.000 A 
ENDBRANCH  14  15
ENDBRANCH   1  14
TORSDOF 4
ENDMDL
MODEL 7
REMARK VINA RESULT:    -6.566      3.343      3.810
REMARK INTER + INTRA:          -8.614
REMARK INTER:                  -8.054
REMARK INTRA:                  -0.560
REMARK UNBOUND:                -0.513
REMARK  Name = 
REMARK  4 active torsions:
REMARK  status: ('A' for Active; 'I' for Inactive)
REMARK    1  A    between atoms: C_2  and  C_4
REMARK    2  A    between atoms: C_9  and  C_10
REMARK    3  A    between atoms: C_10  and  S_11
REMARK    4  A    between atoms: S_11  and  C_12
REMARK                            x       y       z     vdW  Elec       q    Type
REMARK                         _______ _______ _______ _____ _____    ______ ____
ROOT
ATOM      1  C   UNL     1      44.930   7.701  12.404  0.00  0.00    +0.000 C 
ENDROOT
BRANCH   1   7
ATOM      2  C   UNL     1      48.635   8.552  11.973  0.00  0.00    +0.000 A 
ATOM      3  C   UNL     1      48.595   9.913  11.655  0.00  0.00    +0.000 A 
ATOM      4  C   UNL     1      47.368  10.576  11.617  0.00  0.00    +0.000 A 
ATOM      5  C   UNL     1      46.176   9.886  11.877  0.00  0.00    +0.000 A 
ATOM      6 CL   UNL     1      44.710  10.799  11.831  0.00  0.00    +0.000 Cl
ATOM      7  C   UNL     1      46.189   8.509  12.153  0.00  0.00    +0.000 A 
ATOM      8  C   UNL     1      47.439   7.856  12.205  0.00  0.00    +0.000 A 
BRANCH   2  10
ATOM      9  N   UNL     1      50.340   7.416  13.291  0.00  0.00    +0.000 N 
ATOM     10  C   UNL     1      49.921   7.811  12.051  0.00  0.00    +0.000 C 
ATOM     11  O   UNL     1      50.561   7.531  11.045  0.00  0.00    +0.000 OA
ATOM     12  H   UNL     1      51.155   6.816  13.320  0.00  0.00    +0.000 HD
ATOM     13  H   UNL     1      49.726   7.405  14.094  0.00  0.00    +0.000 HD
ENDBRANCH   2  10
ENDBRANCH   1   7
BRANCH   1  14
ATOM     14  S   UNL     1      45.293   6.129  13.259  0.00  0.00    +0.000 S 
BRANCH  14  15
ATOM     15  C   UNL     1      44.761   4.858  12.109  0.00  0.00    +0.000 A 
ATOM     16  C   UNL     1      43.601   4.161  12.443  0.00  0.00    +0.000 A 
ATOM     17  C   UNL     1      43.181   3.133  11.616  0.00  0.00    +0.000 A 
ATOM     18  N   UNL     1      43.834   2.748  10.500  0.00  0.00    +0.000 NA
ATOM     19  C   UNL     1      44.950   3.422  10.163  0.00  0.00    +0.000 A 
ATOM     20  N   UNL     1      45.715   3.015   9.065  0.00  0.00    +0.000 N 
ATOM     21  C   UNL     1      45.523   1.609   8.656  0.00  0.00    +0.000 C 
ATOM     22  C   UNL     1      46.631   1.264   7.643  0.00  0.00    +0.000 C 
ATOM     23  O   UNL     1      46.581   2.132   6.494  0.00  0.00    +0.000 OA
ATOM     24  C   UNL     1      46.698   3.512   6.891  0.00  0.00    +0.000 C 
ATOM     25  C   UNL     1      45.605   3.909   7.898  0.00  0.00    +0.000 C 
ATOM     26  C   UNL     1      45.428   4.486  10.940  0.00  0.00    +0.000 A 
ENDBRANCH  14  15
ENDBRANCH   1  14
TORSDOF 4
ENDMDL
MODEL 8
REMARK VINA RESULT:    -6.464      4.138      5.984
REMARK INTER + INTRA:          -8.489
REMARK INTER:                  -7.863
REMARK INTRA:                  -0.626
REMARK UNBOUND:                -0.513
REMARK  Name = 
REMARK  4 active torsions:
REMARK  status: ('A' for Active; 'I' for Inactive)
REMARK    1  A    between atoms: C_2  and  C_4
REMARK    2  A    between atoms: C_9  and  C_10
REMARK    3  A    between atoms: C_10  and  S_11
REMARK    4  A    between atoms: S_11  and  C_12
REMARK                            x       y       z     vdW  Elec       q    Type
REMARK                         _______ _______ _______ _____ _____    ______ ____
ROOT
ATOM      1  C   UNL     1      49.300   8.060  12.293  0.00  0.00    +0.000 C 
ENDROOT
BRANCH   1   7
ATOM      2  C   UNL     1      46.330  10.364  11.585  0.00  0.00    +0.000 A 
ATOM      3  C   UNL     1      46.949  11.489  11.031  0.00  0.00    +0.000 A 
ATOM      4  C   UNL     1      48.332  11.494  10.846  0.00  0.00    +0.000 A 
ATOM      5  C   UNL     1      49.106  10.389  11.225  0.00  0.00    +0.000 A 
ATOM      6 CL   UNL     1      50.806  10.480  10.933  0.00  0.00    +0.000 Cl
ATOM      7  C   UNL     1      48.511   9.267  11.825  0.00  0.00    +0.000 A 
ATOM      8  C   UNL     1      47.109   9.271  11.990  0.00  0.00    +0.000 A 
BRANCH   2  10
ATOM      9  N   UNL     1      44.252   9.092  11.592  0.00  0.00    +0.000 N 
ATOM     10  C   UNL     1      44.857  10.304  11.776  0.00  0.00    +0.000 C 
ATOM     11  O   UNL     1      44.216  11.289  12.121  0.00  0.00    +0.000 OA
ATOM     12  H   UNL     1      43.271   9.039  11.835  0.00  0.00    +0.000 HD
ATOM     13  H   UNL     1      44.771   8.226  11.559  0.00  0.00    +0.000 HD
ENDBRANCH   2  10
ENDBRANCH   1   7
BRANCH   1  14
ATOM     14  S   UNL     1      49.114   7.782  14.088  0.00  0.00    +0.000 S 
BRANCH  14  15
ATOM     15  C   UNL     1      47.957   6.416  14.214  0.00  0.00    +0.000 A 
ATOM     16  C   UNL     1      48.134   5.547  15.289  0.00  0.00    +0.000 A 
ATOM     17  C   UNL     1      47.301   4.446  15.399  0.00  0.00    +0.000 A 
ATOM     18  N   UNL     1      46.324   4.148  14.517  0.00  0.00    +0.000 NA
ATOM     19  C   UNL     1      46.137   4.988  13.481  0.00  0.00    +0.000 A 
ATOM     20  N   UNL     1      45.198   4.688  12.490  0.00  0.00    +0.000 N 
ATOM     21  C   UNL     1      44.832   3.261  12.386  0.00  0.00    +0.000 C 
ATOM     22  C   UNL     1      44.028   3.079  11.086  0.00  0.00    +0.000 C 
ATOM     23  O   UNL     1      42.845   3.902  11.080  0.00  0.00    +0.000 OA
ATOM     24  C   UNL     1      43.188   5.291  11.249  0.00  0.00    +0.000 C 
ATOM     25  C   UNL     1      43.986   5.527  12.543  0.00  0.00    +0.000 C 
ATOM     26  C   UNL     1      46.929   6.133  13.312  0.00  0.00    +0.000 A 
ENDBRANCH  14  15
ENDBRANCH   1  14
TORSDOF 4
ENDMDL
MODEL 9
REMARK VINA RESULT:    -6.316      4.336      8.154
REMARK INTER + INTRA:          -8.305
REMARK INTER:                  -8.129
REMARK INTRA:                  -0.176
REMARK UNBOUND:                -0.513
REMARK  Name = 
REMARK  4 active torsions:
REMARK  status: ('A' for Active; 'I' for Inactive)
REMARK    1  A    between atoms: C_2  and  C_4
REMARK    2  A    between atoms: C_9  and  C_10
REMARK    3  A    between atoms: C_10  and  S_11
REMARK    4  A    between atoms: S_11  and  C_12
REMARK                            x       y       z     vdW  Elec       q    Type
REMARK                         _______ _______ _______ _____ _____    ______ ____
ROOT
ATOM      1  C   UNL     1      45.100   5.473  10.035  0.00  0.00    +0.000 C 
ENDROOT
BRANCH   1   7
ATOM      2  C   UNL     1      46.274   2.819   7.542  0.00  0.00    +0.000 A 
ATOM      3  C   UNL     1      45.648   1.664   8.018  0.00  0.00    +0.000 A 
ATOM      4  C   UNL     1      44.807   1.742   9.129  0.00  0.00    +0.000 A 
ATOM      5  C   UNL     1      44.599   2.965   9.780  0.00  0.00    +0.000 A 
ATOM      6 CL   UNL     1      43.521   2.967  11.131  0.00  0.00    +0.000 Cl
ATOM      7  C   UNL     1      45.254   4.130   9.348  0.00  0.00    +0.000 A 
ATOM      8  C   UNL     1      46.088   4.038   8.212  0.00  0.00    +0.000 A 
BRANCH   2  10
ATOM      9  N   UNL     1      48.504   2.701   6.567  0.00  0.00    +0.000 N 
ATOM     10  C   UNL     1      47.157   2.788   6.347  0.00  0.00    +0.000 C 
ATOM     11  O   UNL     1      46.698   2.800   5.212  0.00  0.00    +0.000 OA
ATOM     12  H   UNL     1      49.084   2.566   5.749  0.00  0.00    +0.000 HD
ATOM     13  H   UNL     1      48.892   2.437   7.462  0.00  0.00    +0.000 HD
ENDBRANCH   2  10
ENDBRANCH   1   7
BRANCH   1  14
ATOM     14  S   UNL     1      45.717   5.429  11.753  0.00  0.00    +0.000 S 
BRANCH  14  15
ATOM     15  C   UNL     1      46.503   7.025  11.990  0.00  0.00    +0.000 A 
ATOM     16  C   UNL     1      45.675   8.077  12.376  0.00  0.00    +0.000 A 
ATOM     17  C   UNL     1      46.225   9.340  12.517  0.00  0.00    +0.000 A 
ATOM     18  N   UNL     1      47.524   9.626  12.291  0.00  0.00    +0.000 NA
ATOM     19  C   UNL     1      48.336   8.615  11.928  0.00  0.00    +0.000 A 
ATOM     20  N   UNL     1      49.671   8.865  11.599  0.00  0.00    +0.000 N 
ATOM     21  C   UNL     1      49.968  10.256  11.202  0.00  0.00    +0.000 C 
ATOM     22  C   UNL     1      51.389  10.279  10.610  0.00  0.00    +0.000 C 
ATOM     23  O   UNL     1      52.363   9.811  11.564  0.00  0.00    +0.000 OA
ATOM     24  C   UNL     1      52.043   8.479  12.008  0.00  0.00    +0.000 C 
ATOM     25  C   UNL     1      50.633   8.405  12.618  0.00  0.00    +0.000 C 
ATOM     26  C   UNL     1      47.856   7.305  11.782  0.00  0.00    +0.000 A 
ENDBRANCH  14  15
ENDBRANCH   1  14
TORSDOF 4
ENDMDL
