MODEL 1
REMARK VINA RESULT:    -8.177      0.000      0.000
REMARK INTER + INTRA:         -10.551
REMARK INTER:                  -9.611
REMARK INTRA:                  -0.940
REMARK UNBOUND:                -0.940
REMARK  Name = 
REMARK  5 active torsions:
REMARK  status: ('A' for Active; 'I' for Inactive)
REMARK    1  A    between atoms: C_1  and  C_2
REMARK    2  A    between atoms: C_4  and  C_5
REMARK    3  A    between atoms: C_8  and  N_9
REMARK    4  A    between atoms: C_10  and  C_11
REMARK    5  A    between atoms: C_15  and  C_16
REMARK                            x       y       z     vdW  Elec       q    Type
REMARK                         _______ _______ _______ _____ _____    ______ ____
ROOT
ATOM      1  N   UNL     1      44.124   4.676   9.692  0.00  0.00    +0.000 NA
ATOM      2  C   UNL     1      44.150   5.025  10.910  0.00  0.00    +0.000 C 
ATOM      3  C   UNL     1      42.714   4.994  11.467  0.00  0.00    +0.000 C 
ATOM      4  C   UNL     1      43.339   6.310  11.171  0.00  0.00    +0.000 C 
ENDROOT
BRANCH   1  12
ATOM      5  C   UNL     1      44.296   1.806   9.781  0.00  0.00    +0.000 C 
ATOM      6  C   UNL     1      45.165   2.653   8.896  0.00  0.00    +0.000 A 
ATOM      7  C   UNL     1      46.067   2.005   8.036  0.00  0.00    +0.000 A 
ATOM      8  C   UNL     1      46.878   2.749   7.190  0.00  0.00    +0.000 A 
ATOM      9  C   UNL     1      47.831   2.084   6.251  0.00  0.00    +0.000 C 
ATOM     10  C   UNL     1      46.758   4.128   7.268  0.00  0.00    +0.000 A 
ATOM     11  N   UNL     1      45.917   4.788   8.106  0.00  0.00    +0.000 NA
ATOM     12  C   UNL     1      45.079   4.057   8.869  0.00  0.00    +0.000 A 
ENDBRANCH   1  12
BRANCH   2  13
ATOM     13  C   UNL     1      45.357   4.939  11.885  0.00  0.00    +0.000 A 
ATOM     14  C   UNL     1      45.509   3.875  12.804  0.00  0.00    +0.000 A 
ATOM     15  C   UNL     1      46.465   3.893  13.824  0.00  0.00    +0.000 A 
ATOM     16  C   UNL     1      47.390   4.928  13.888  0.00  0.00    +0.000 A 
ATOM     17  C   UNL     1      47.372   5.954  12.934  0.00  0.00    +0.000 A 
ATOM     18  C   UNL     1      46.286   5.984  12.031  0.00  0.00    +0.000 A 
BRANCH  17  19
ATOM     19  C   UNL     1      48.494   6.904  12.766  0.00  0.00    +0.000 A 
ATOM     20  C   UNL     1      48.535   7.834  11.728  0.00  0.00    +0.000 A 
ATOM     21  C   UNL     1      49.492   8.840  11.744  0.00  0.00    +0.000 A 
ATOM     22  C   UNL     1      50.387   8.907  12.801  0.00  0.00    +0.000 A 
ATOM     23  C   UNL     1      50.308   7.939  13.782  0.00  0.00    +0.000 A 
ATOM     24  N   UNL     1      49.401   6.943  13.784  0.00  0.00    +0.000 NA
ENDBRANCH  17  19
ENDBRANCH   2  13
TORSDOF 3
ENDMDL
MODEL 2
REMARK VINA RESULT:    -6.798      2.255      7.751
REMARK INTER + INTRA:          -8.930
REMARK INTER:                  -7.804
REMARK INTRA:                  -1.126
REMARK UNBOUND:                -0.940
REMARK  Name = 
REMARK  5 active torsions:
REMARK  status: ('A' for Active; 'I' for Inactive)
REMARK    1  A    between atoms: C_1  and  C_2
REMARK    2  A    between atoms: C_4  and  C_5
REMARK    3  A    between atoms: C_8  and  N_9
REMARK    4  A    between atoms: C_10  and  C_11
REMARK    5  A    between atoms: C_15  and  C_16
REMARK                            x       y       z     vdW  Elec       q    Type
REMARK                         _______ _______ _______ _____ _____    ______ ____
ROOT
ATOM      1  N   UNL     1      49.867   7.779  13.704  0.00  0.00    +0.000 NA
ATOM      2  C   UNL     1      49.271   7.921  12.595  0.00  0.00    +0.000 C 
ATOM      3  C   UNL     1      50.270   7.647  11.455  0.00  0.00    +0.000 C 
ATOM      4  C   UNL     1      49.878   9.052  11.741  0.00  0.00    +0.000 C 
ENDROOT
BRANCH   1  12
ATOM      5  C   UNL     1      49.344   9.888  15.591  0.00  0.00    +0.000 C 
ATOM      6  C   UNL     1      49.139   8.434  15.907  0.00  0.00    +0.000 A 
ATOM      7  C   UNL     1      48.618   8.097  17.168  0.00  0.00    +0.000 A 
ATOM      8  C   UNL     1      48.398   6.767  17.496  0.00  0.00    +0.000 A 
ATOM      9  C   UNL     1      47.827   6.382  18.821  0.00  0.00    +0.000 C 
ATOM     10  C   UNL     1      48.740   5.825  16.537  0.00  0.00    +0.000 A 
ATOM     11  N   UNL     1      49.269   6.113  15.319  0.00  0.00    +0.000 NA
ATOM     12  C   UNL     1      49.408   7.410  14.980  0.00  0.00    +0.000 A 
ENDBRANCH   1  12
BRANCH   2  13
ATOM     13  C   UNL     1      47.744   7.800  12.328  0.00  0.00    +0.000 A 
ATOM     14  C   UNL     1      46.820   8.767  12.786  0.00  0.00    +0.000 A 
ATOM     15  C   UNL     1      45.437   8.567  12.741  0.00  0.00    +0.000 A 
ATOM     16  C   UNL     1      44.922   7.435  12.123  0.00  0.00    +0.000 A 
ATOM     17  C   UNL     1      45.780   6.492  11.540  0.00  0.00    +0.000 A 
ATOM     18  C   UNL     1      47.166   6.650  11.761  0.00  0.00    +0.000 A 
BRANCH  17  19
ATOM     19  C   UNL     1      45.298   5.440  10.618  0.00  0.00    +0.000 A 
ATOM     20  C   UNL     1      45.788   5.304   9.321  0.00  0.00    +0.000 A 
ATOM     21  C   UNL     1      45.466   4.174   8.579  0.00  0.00    +0.000 A 
ATOM     22  C   UNL     1      44.667   3.195   9.149  0.00  0.00    +0.000 A 
ATOM     23  C   UNL     1      44.194   3.405  10.429  0.00  0.00    +0.000 A 
ATOM     24  N   UNL     1      44.477   4.497  11.165  0.00  0.00    +0.000 NA
ENDBRANCH  17  19
ENDBRANCH   2  13
TORSDOF 3
ENDMDL
MODEL 3
REMARK VINA RESULT:    -6.172      3.270      5.831
REMARK INTER + INTRA:          -8.194
REMARK INTER:                  -7.244
REMARK INTRA:                  -0.949
REMARK UNBOUND:                -0.940
REMARK  Name = 
REMARK  5 active torsions:
REMARK  status: ('A' for Active; 'I' for Inactive)
REMARK    1  A    between atoms: C_1  and  C_2
REMARK    2  A    between atoms: C_4  and  C_5
REMARK    3  A    between atoms: C_8  and  N_9
REMARK    4  A    between atoms: C_10  and  C_11
REMARK    5  A    between atoms: C_15  and  C_16
REMARK                            x       y       z     vdW  Elec       q    Type
REMARK                         _______ _______ _______ _____ _____    ______ ____
ROOT
ATOM      1  N   UNL     1      47.528   7.366  11.796  0.00  0.00    +0.000 NA
ATOM      2  C   UNL     1      48.299   8.038  12.545  0.00  0.00    +0.000 C 
ATOM      3  C   UNL     1      48.726   9.317  11.800  0.00  0.00    +0.000 C 
ATOM      4  C   UNL     1      49.706   8.208  11.939  0.00  0.00    +0.000 C 
ENDROOT
BRANCH   1  12
ATOM      5  C   UNL     1      44.825   8.295  11.469  0.00  0.00    +0.000 C 
ATOM      6  C   UNL     1      45.166   6.902  11.912  0.00  0.00    +0.000 A 
ATOM      7  C   UNL     1      44.112   5.998  12.128  0.00  0.00    +0.000 A 
ATOM      8  C   UNL     1      44.382   4.696  12.523  0.00  0.00    +0.000 A 
ATOM      9  C   UNL     1      43.281   3.709  12.739  0.00  0.00    +0.000 C 
ATOM     10  C   UNL     1      45.716   4.367  12.710  0.00  0.00    +0.000 A 
ATOM     11  N   UNL     1      46.758   5.221  12.537  0.00  0.00    +0.000 NA
ATOM     12  C   UNL     1      46.492   6.461  12.080  0.00  0.00    +0.000 A 
ENDBRANCH   1  12
BRANCH   2  13
ATOM     13  C   UNL     1      48.379   7.986  14.096  0.00  0.00    +0.000 A 
ATOM     14  C   UNL     1      48.181   9.132  14.900  0.00  0.00    +0.000 A 
ATOM     15  C   UNL     1      48.459   9.147  16.270  0.00  0.00    +0.000 A 
ATOM     16  C   UNL     1      48.831   7.973  16.913  0.00  0.00    +0.000 A 
ATOM     17  C   UNL     1      48.929   6.773  16.198  0.00  0.00    +0.000 A 
ATOM     18  C   UNL     1      48.809   6.842  14.792  0.00  0.00    +0.000 A 
BRANCH  17  19
ATOM     19  C   UNL     1      49.022   5.454  16.863  0.00  0.00    +0.000 A 
ATOM     20  C   UNL     1      47.903   4.657  17.098  0.00  0.00    +0.000 A 
ATOM     21  C   UNL     1      48.071   3.345  17.522  0.00  0.00    +0.000 A 
ATOM     22  C   UNL     1      49.353   2.848  17.696  0.00  0.00    +0.000 A 
ATOM     23  C   UNL     1      50.417   3.700  17.471  0.00  0.00    +0.000 A 
ATOM     24  N   UNL     1      50.284   4.980  17.075  0.00  0.00    +0.000 NA
ENDBRANCH  17  19
ENDBRANCH   2  13
TORSDOF 3
ENDMDL
MODEL 4
REMARK VINA RESULT:    -5.916      4.086      8.914
REMARK INTER + INTRA:          -7.894
REMARK INTER:                  -6.967
REMARK INTRA:                  -0.927
REMARK UNBOUND:                -0.940
REMARK  Name = 
REMARK  5 active torsions:
REMARK  status: ('A' for Active; 'I' for Inactive)
REMARK    1  A    between atoms: C_1  and  C_2
REMARK    2  A    between atoms: C_4  and  C_5
REMARK    3  A    between atoms: C_8  and  N_9
REMARK    4  A    between atoms: C_10  and  C_11
REMARK    5  A    between atoms: C_15  and  C_16
REMARK                            x       y       z     vdW  Elec       q    Type
REMARK                         _______ _______ _______ _____ _____    ______ ____
ROOT
ATOM      1  N   UNL     1      48.294   4.633  18.458  0.00  0.00    +0.000 NA
ATOM      2  C   UNL     1      48.084   4.172  17.297  0.00  0.00    +0.000 C 
ATOM      3  C   UNL     1      47.357   2.820  17.421  0.00  0.00    +0.000 C 
ATOM      4  C   UNL     1      48.798   2.828  17.059  0.00  0.00    +0.000 C 
ENDROOT
BRANCH   1  12
ATOM      5  C   UNL     1      50.941   5.545  19.118  0.00  0.00    +0.000 C 
ATOM      6  C   UNL     1      49.719   6.406  19.257  0.00  0.00    +0.000 A 
ATOM      7  C   UNL     1      49.888   7.735  19.682  0.00  0.00    +0.000 A 
ATOM      8  C   UNL     1      48.787   8.569  19.808  0.00  0.00    +0.000 A 
ATOM      9  C   UNL     1      48.941   9.992  20.238  0.00  0.00    +0.000 C 
ATOM     10  C   UNL     1      47.549   8.014  19.523  0.00  0.00    +0.000 A 
ATOM     11  N   UNL     1      47.346   6.727  19.136  0.00  0.00    +0.000 NA
ATOM     12  C   UNL     1      48.427   5.946  18.942  0.00  0.00    +0.000 A 
ENDBRANCH   1  12
BRANCH   2  13
ATOM     13  C   UNL     1      47.990   4.979  15.971  0.00  0.00    +0.000 A 
ATOM     14  C   UNL     1      48.836   6.078  15.696  0.00  0.00    +0.000 A 
ATOM     15  C   UNL     1      48.624   6.938  14.614  0.00  0.00    +0.000 A 
ATOM     16  C   UNL     1      47.624   6.656  13.692  0.00  0.00    +0.000 A 
ATOM     17  C   UNL     1      46.826   5.514  13.838  0.00  0.00    +0.000 A 
ATOM     18  C   UNL     1      46.962   4.774  15.034  0.00  0.00    +0.000 A 
BRANCH  17  19
ATOM     19  C   UNL     1      45.962   5.001  12.751  0.00  0.00    +0.000 A 
ATOM     20  C   UNL     1      45.814   5.672  11.538  0.00  0.00    +0.000 A 
ATOM     21  C   UNL     1      45.173   5.041  10.479  0.00  0.00    +0.000 A 
ATOM     22  C   UNL     1      44.699   3.750  10.646  0.00  0.00    +0.000 A 
ATOM     23  C   UNL     1      44.856   3.154  11.882  0.00  0.00    +0.000 A 
ATOM     24  N   UNL     1      45.459   3.746  12.930  0.00  0.00    +0.000 NA
ENDBRANCH  17  19
ENDBRANCH   2  13
TORSDOF 3
ENDMDL
MODEL 5
REMARK VINA RESULT:    -5.886      3.278      7.891
REMARK INTER + INTRA:          -7.859
REMARK INTER:                  -6.707
REMARK INTRA:                  -1.151
REMARK UNBOUND:                -0.940
REMARK  Name = 
REMARK  5 active torsions:
REMARK  status: ('A' for Active; 'I' for Inactive)
REMARK    1  A    between atoms: C_1  and  C_2
REMARK    2  A    between atoms: C_4  and  C_5
REMARK    3  A    between atoms: C_8  and  N_9
REMARK    4  A    between atoms: C_10  and  C_11
REMARK    5  A    between atoms: C_15  and  C_16
REMARK                            x       y       z     vdW  Elec       q    Type
REMARK                         _______ _______ _______ _____ _____    ______ ____
ROOT
ATOM      1  N   UNL     1      49.496   7.036  17.572  0.00  0.00    +0.000 NA
ATOM      2  C   UNL     1      49.243   7.854  16.637  0.00  0.00    +0.000 C 
ATOM      3  C   UNL     1      49.541   9.282  17.131  0.00  0.00    +0.000 C 
ATOM      4  C   UNL     1      48.125   8.846  17.011  0.00  0.00    +0.000 C 
ENDROOT
BRANCH   1  12
ATOM      5  C   UNL     1      47.427   5.041  17.700  0.00  0.00    +0.000 C 
ATOM      6  C   UNL     1      48.888   4.704  17.615  0.00  0.00    +0.000 A 
ATOM      7  C   UNL     1      49.253   3.349  17.543  0.00  0.00    +0.000 A 
ATOM      8  C   UNL     1      50.591   2.993  17.447  0.00  0.00    +0.000 A 
ATOM      9  C   UNL     1      51.005   1.561  17.349  0.00  0.00    +0.000 C 
ATOM     10  C   UNL     1      51.512   4.030  17.453  0.00  0.00    +0.000 A 
ATOM     11  N   UNL     1      51.197   5.348  17.548  0.00  0.00    +0.000 NA
ATOM     12  C   UNL     1      49.893   5.689  17.564  0.00  0.00    +0.000 A 
ENDBRANCH   1  12
BRANCH   2  13
ATOM     13  C   UNL     1      49.214   7.555  15.112  0.00  0.00    +0.000 A 
ATOM     14  C   UNL     1      50.242   7.983  14.241  0.00  0.00    +0.000 A 
ATOM     15  C   UNL     1      50.128   7.910  12.850  0.00  0.00    +0.000 A 
ATOM     16  C   UNL     1      49.024   7.290  12.278  0.00  0.00    +0.000 A 
ATOM     17  C   UNL     1      48.023   6.736  13.087  0.00  0.00    +0.000 A 
ATOM     18  C   UNL     1      48.097   6.986  14.475  0.00  0.00    +0.000 A 
BRANCH  17  19
ATOM     19  C   UNL     1      46.993   5.814  12.560  0.00  0.00    +0.000 A 
ATOM     20  C   UNL     1      46.533   4.716  13.286  0.00  0.00    +0.000 A 
ATOM     21  C   UNL     1      45.418   4.018  12.842  0.00  0.00    +0.000 A 
ATOM     22  C   UNL     1      44.775   4.431  11.686  0.00  0.00    +0.000 A 
ATOM     23  C   UNL     1      45.298   5.510  11.001  0.00  0.00    +0.000 A 
ATOM     24  N   UNL     1      46.387   6.197  11.399  0.00  0.00    +0.000 NA
ENDBRANCH  17  19
ENDBRANCH   2  13
TORSDOF 3
ENDMDL
MODEL 6
REMARK VINA RESULT:    -5.786      2.249      4.108
REMARK INTER + INTRA:          -7.740
REMARK INTER:                  -7.021
REMARK INTRA:                  -0.719
REMARK UNBOUND:                -0.940
REMARK  Name = 
REMARK  5 active torsions:
REMARK  status: ('A' for Active; 'I' for Inactive)
REMARK    1  A    between atoms: C_1  and  C_2
REMARK    2  A    between atoms: C_4  and  C_5
REMARK    3  A    between atoms: C_8  and  N_9
REMARK    4  A    between atoms: C_10  and  C_11
REMARK    5  A    between atoms: C_15  and  C_16
REMARK                            x       y       z     vdW  Elec       q    Type
REMARK                         _______ _______ _______ _____ _____    ______ ____
ROOT
ATOM      1  N   UNL     1      44.486   7.512  11.112  0.00  0.00    +0.000 NA
ATOM      2  C   UNL     1      45.260   8.232  11.812  0.00  0.00    +0.000 C 
ATOM      3  C   UNL     1      44.423   9.298  12.543  0.00  0.00    +0.000 C 
ATOM      4  C   UNL     1      45.245   9.710  11.375  0.00  0.00    +0.000 C 
ENDROOT
BRANCH   1  12
ATOM      5  C   UNL     1      42.478   5.678  12.050  0.00  0.00    +0.000 C 
ATOM      6  C   UNL     1      43.590   5.275  11.125  0.00  0.00    +0.000 A 
ATOM      7  C   UNL     1      43.617   3.950  10.657  0.00  0.00    +0.000 A 
ATOM      8  C   UNL     1      44.617   3.539   9.788  0.00  0.00    +0.000 A 
ATOM      9  C   UNL     1      44.657   2.142   9.261  0.00  0.00    +0.000 C 
ATOM     10  C   UNL     1      45.571   4.486   9.445  0.00  0.00    +0.000 A 
ATOM     11  N   UNL     1      45.591   5.767   9.898  0.00  0.00    +0.000 NA
ATOM     12  C   UNL     1      44.573   6.178  10.681  0.00  0.00    +0.000 A 
ENDBRANCH   1  12
BRANCH   2  13
ATOM     13  C   UNL     1      46.661   7.843  12.360  0.00  0.00    +0.000 A 
ATOM     14  C   UNL     1      47.858   8.323  11.780  0.00  0.00    +0.000 A 
ATOM     15  C   UNL     1      49.116   7.819  12.122  0.00  0.00    +0.000 A 
ATOM     16  C   UNL     1      49.233   6.893  13.152  0.00  0.00    +0.000 A 
ATOM     17  C   UNL     1      48.098   6.463  13.852  0.00  0.00    +0.000 A 
ATOM     18  C   UNL     1      46.838   6.868  13.358  0.00  0.00    +0.000 A 
BRANCH  17  19
ATOM     19  C   UNL     1      48.184   5.726  15.132  0.00  0.00    +0.000 A 
ATOM     20  C   UNL     1      48.774   6.274  16.269  0.00  0.00    +0.000 A 
ATOM     21  C   UNL     1      48.633   5.633  17.493  0.00  0.00    +0.000 A 
ATOM     22  C   UNL     1      47.896   4.461  17.563  0.00  0.00    +0.000 A 
ATOM     23  C   UNL     1      47.360   3.959  16.394  0.00  0.00    +0.000 A 
ATOM     24  N   UNL     1      47.494   4.551  15.191  0.00  0.00    +0.000 NA
ENDBRANCH  17  19
ENDBRANCH   2  13
TORSDOF 3
ENDMDL
MODEL 7
REMARK VINA RESULT:    -5.591      4.174      7.351
REMARK INTER + INTRA:          -7.512
REMARK INTER:                  -6.538
REMARK INTRA:                  -0.973
REMARK UNBOUND:                -0.940
REMARK  Name = 
REMARK  5 active torsions:
REMARK  status: ('A' for Active; 'I' for Inactive)
REMARK    1  A    between atoms: C_1  and  C_2
REMARK    2  A    between atoms: C_4  and  C_5
REMARK    3  A    between atoms: C_8  and  N_9
REMARK    4  A    between atoms: C_10  and  C_11
REMARK    5  A    between atoms: C_15  and  C_16
REMARK                            x       y       z     vdW  Elec       q    Type
REMARK                         _______ _______ _______ _____ _____    ______ ____
ROOT
ATOM      1  N   UNL     1      49.193   6.940  13.809  0.00  0.00    +0.000 NA
ATOM      2  C   UNL     1      49.637   7.706  14.717  0.00  0.00    +0.000 C 
ATOM      3  C   UNL     1      50.703   8.635  14.107  0.00  0.00    +0.000 C 
ATOM      4  C   UNL     1      51.144   7.507  14.969  0.00  0.00    +0.000 C 
ENDROOT
BRANCH   1  12
ATOM      5  C   UNL     1      47.204   8.298  12.236  0.00  0.00    +0.000 C 
ATOM      6  C   UNL     1      46.977   6.952  12.861  0.00  0.00    +0.000 A 
ATOM      7  C   UNL     1      45.752   6.307  12.620  0.00  0.00    +0.000 A 
ATOM      8  C   UNL     1      45.507   5.055  13.166  0.00  0.00    +0.000 A 
ATOM      9  C   UNL     1      44.221   4.338  12.909  0.00  0.00    +0.000 C 
ATOM     10  C   UNL     1      46.509   4.514  13.958  0.00  0.00    +0.000 A 
ATOM     11  N   UNL     1      47.693   5.120  14.233  0.00  0.00    +0.000 NA
ATOM     12  C   UNL     1      47.954   6.302  13.638  0.00  0.00    +0.000 A 
ENDBRANCH   1  12
BRANCH   2  13
ATOM     13  C   UNL     1      48.917   8.117  16.031  0.00  0.00    +0.000 A 
ATOM     14  C   UNL     1      48.281   9.371  16.182  0.00  0.00    +0.000 A 
ATOM     15  C   UNL     1      47.820   9.837  17.417  0.00  0.00    +0.000 A 
ATOM     16  C   UNL     1      47.869   9.008  18.531  0.00  0.00    +0.000 A 
ATOM     17  C   UNL     1      48.377   7.707  18.425  0.00  0.00    +0.000 A 
ATOM     18  C   UNL     1      48.987   7.344  17.204  0.00  0.00    +0.000 A 
BRANCH  17  19
ATOM     19  C   UNL     1      48.182   6.688  19.481  0.00  0.00    +0.000 A 
ATOM     20  C   UNL     1      48.758   5.421  19.409  0.00  0.00    +0.000 A 
ATOM     21  C   UNL     1      48.726   4.588  20.520  0.00  0.00    +0.000 A 
ATOM     22  C   UNL     1      48.127   5.036  21.686  0.00  0.00    +0.000 A 
ATOM     23  C   UNL     1      47.553   6.292  21.681  0.00  0.00    +0.000 A 
ATOM     24  N   UNL     1      47.555   7.115  20.615  0.00  0.00    +0.000 NA
ENDBRANCH  17  19
ENDBRANCH   2  13
TORSDOF 3
ENDMDL
MODEL 8
REMARK VINA RESULT:    -5.478      3.480      7.827
REMARK INTER + INTRA:          -7.379
REMARK INTER:                  -6.547
REMARK INTRA:                  -0.832
REMARK UNBOUND:                -0.940
REMARK  Name = 
REMARK  5 active torsions:
REMARK  status: ('A' for Active; 'I' for Inactive)
REMARK    1  A    between atoms: C_1  and  C_2
REMARK    2  A    between atoms: C_4  and  C_5
REMARK    3  A    between atoms: C_8  and  N_9
REMARK    4  A    between atoms: C_10  and  C_11
REMARK    5  A    between atoms: C_15  and  C_16
REMARK                            x       y       z     vdW  Elec       q    Type
REMARK                         _______ _______ _______ _____ _____    ______ ____
ROOT
ATOM      1  N   UNL     1      49.240   7.899  16.627  0.00  0.00    +0.000 NA
ATOM      2  C   UNL     1      49.307   8.502  15.515  0.00  0.00    +0.000 C 
ATOM      3  C   UNL     1      50.440   9.543  15.581  0.00  0.00    +0.000 C 
ATOM      4  C   UNL     1      49.032  10.013  15.649  0.00  0.00    +0.000 C 
ENDROOT
BRANCH   1  12
ATOM      5  C   UNL     1      47.512   7.646  18.913  0.00  0.00    +0.000 C 
ATOM      6  C   UNL     1      47.953   6.474  18.085  0.00  0.00    +0.000 A 
ATOM      7  C   UNL     1      47.454   5.202  18.415  0.00  0.00    +0.000 A 
ATOM      8  C   UNL     1      47.823   4.094  17.666  0.00  0.00    +0.000 A 
ATOM      9  C   UNL     1      47.291   2.735  17.983  0.00  0.00    +0.000 C 
ATOM     10  C   UNL     1      48.708   4.316  16.621  0.00  0.00    +0.000 A 
ATOM     11  N   UNL     1      49.231   5.526  16.290  0.00  0.00    +0.000 NA
ATOM     12  C   UNL     1      48.808   6.608  16.975  0.00  0.00    +0.000 A 
ENDBRANCH   1  12
BRANCH   2  13
ATOM     13  C   UNL     1      48.817   7.982  14.135  0.00  0.00    +0.000 A 
ATOM     14  C   UNL     1      49.664   7.932  13.004  0.00  0.00    +0.000 A 
ATOM     15  C   UNL     1      49.186   7.672  11.717  0.00  0.00    +0.000 A 
ATOM     16  C   UNL     1      47.852   7.330  11.530  0.00  0.00    +0.000 A 
ATOM     17  C   UNL     1      46.983   7.242  12.625  0.00  0.00    +0.000 A 
ATOM     18  C   UNL     1      47.468   7.681  13.877  0.00  0.00    +0.000 A 
BRANCH  17  19
ATOM     19  C   UNL     1      45.652   6.600  12.536  0.00  0.00    +0.000 A 
ATOM     20  C   UNL     1      44.696   6.993  11.602  0.00  0.00    +0.000 A 
ATOM     21  C   UNL     1      43.558   6.218  11.416  0.00  0.00    +0.000 A 
ATOM     22  C   UNL     1      43.399   5.059  12.159  0.00  0.00    +0.000 A 
ATOM     23  C   UNL     1      44.372   4.742  13.087  0.00  0.00    +0.000 A 
ATOM     24  N   UNL     1      45.477   5.482  13.299  0.00  0.00    +0.000 NA
ENDBRANCH  17  19
ENDBRANCH   2  13
TORSDOF 3
ENDMDL
MODEL 9
REMARK VINA RESULT:    -5.423      4.782      7.301
REMARK INTER + INTRA:          -7.313
REMARK INTER:                  -6.917
REMARK INTRA:                  -0.397
REMARK UNBOUND:                -0.940
REMARK  Name = 
REMARK  5 active torsions:
REMARK  status: ('A' for Active; 'I' for Inactive)
REMARK    1  A    between atoms: C_1  and  C_2
REMARK    2  A    between atoms: C_4  and  C_5
REMARK    3  A    between atoms: C_8  and  N_9
REMARK    4  A    between atoms: C_10  and  C_11
REMARK    5  A    between atoms: C_15  and  C_16
REMARK                            x       y       z     vdW  Elec       q    Type
REMARK                         _______ _______ _______ _____ _____    ______ ____
ROOT
ATOM      1  N   UNL     1      47.572   4.105  15.406  0.00  0.00    +0.000 NA
ATOM      2  C   UNL     1      48.092   3.906  16.545  0.00  0.00    +0.000 C 
ATOM      3  C   UNL     1      48.480   2.421  16.663  0.00  0.00    +0.000 C 
ATOM      4  C   UNL     1      47.282   2.908  17.395  0.00  0.00    +0.000 C 
ENDROOT
BRANCH   1  12
ATOM      5  C   UNL     1      45.622   4.111  13.291  0.00  0.00    +0.000 C 
ATOM      6  C   UNL     1      46.552   5.260  13.553  0.00  0.00    +0.000 A 
ATOM      7  C   UNL     1      46.425   6.411  12.756  0.00  0.00    +0.000 A 
ATOM      8  C   UNL     1      47.254   7.502  12.974  0.00  0.00    +0.000 A 
ATOM      9  C   UNL     1      47.126   8.745  12.156  0.00  0.00    +0.000 C 
ATOM     10  C   UNL     1      48.200   7.374  13.980  0.00  0.00    +0.000 A 
ATOM     11  N   UNL     1      48.369   6.268  14.751  0.00  0.00    +0.000 NA
ATOM     12  C   UNL     1      47.510   5.242  14.584  0.00  0.00    +0.000 A 
ENDBRANCH   1  12
BRANCH   2  13
ATOM     13  C   UNL     1      48.783   4.959  17.456  0.00  0.00    +0.000 A 
ATOM     14  C   UNL     1      50.190   5.062  17.555  0.00  0.00    +0.000 A 
ATOM     15  C   UNL     1      50.820   5.851  18.522  0.00  0.00    +0.000 A 
ATOM     16  C   UNL     1      50.060   6.665  19.353  0.00  0.00    +0.000 A 
ATOM     17  C   UNL     1      48.665   6.703  19.227  0.00  0.00    +0.000 A 
ATOM     18  C   UNL     1      48.065   5.764  18.359  0.00  0.00    +0.000 A 
BRANCH  17  19
ATOM     19  C   UNL     1      47.836   7.752  19.860  0.00  0.00    +0.000 A 
ATOM     20  C   UNL     1      47.551   7.755  21.225  0.00  0.00    +0.000 A 
ATOM     21  C   UNL     1      46.959   8.872  21.800  0.00  0.00    +0.000 A 
ATOM     22  C   UNL     1      46.670   9.971  21.006  0.00  0.00    +0.000 A 
ATOM     23  C   UNL     1      46.954   9.891  19.657  0.00  0.00    +0.000 A 
ATOM     24  N   UNL     1      47.513   8.816  19.069  0.00  0.00    +0.000 NA
ENDBRANCH  17  19
ENDBRANCH   2  13
TORSDOF 3
ENDMDL
