MODEL 1
REMARK VINA RESULT:    -8.277      0.000      0.000
REMARK INTER + INTRA:         -12.356
REMARK INTER:                 -11.181
REMARK INTRA:                  -1.175
REMARK UNBOUND:                -1.175
REMARK  Name = 
REMARK  6 active torsions:
REMARK  status: ('A' for Active; 'I' for Inactive)
REMARK    1  A    between atoms: C_2  and  C_4
REMARK    2  A    between atoms: C_7  and  O_8
REMARK    3  A    between atoms: O_8  and  C_9
REMARK    4  A    between atoms: C_9  and  C_10
REMARK    5  A    between atoms: C_10  and  C_11
REMARK    6  A    between atoms: C_15  and  C_16
REMARK                            x       y       z     vdW  Elec       q    Type
REMARK                         _______ _______ _______ _____ _____    ______ ____
ROOT
ATOM      1  C   UNL     1      43.220   3.889  11.325  0.00  0.00    +0.000 C 
ENDROOT
BRANCH   1   2
ATOM      2  O   UNL     1      43.682   4.478  10.108  0.00  0.00    +0.000 OA
BRANCH   2   6
ATOM      3  C   UNL     1      46.424   2.427   7.724  0.00  0.00    +0.000 A 
ATOM      4  C   UNL     1      45.617   1.689   8.596  0.00  0.00    +0.000 A 
ATOM      5  C   UNL     1      44.688   2.340   9.415  0.00  0.00    +0.000 A 
ATOM      6  C   UNL     1      44.559   3.731   9.368  0.00  0.00    +0.000 A 
ATOM      7  C   UNL     1      45.382   4.466   8.510  0.00  0.00    +0.000 A 
ATOM      8  C   UNL     1      46.316   3.820   7.695  0.00  0.00    +0.000 A 
BRANCH   3  10
ATOM      9  N   UNL     1      48.496   2.513   6.453  0.00  0.00    +0.000 N 
ATOM     10  C   UNL     1      47.415   1.766   6.835  0.00  0.00    +0.000 C 
ATOM     11  O   UNL     1      47.297   0.601   6.492  0.00  0.00    +0.000 OA
ATOM     12  H   UNL     1      49.218   2.024   5.938  0.00  0.00    +0.000 HD
ATOM     13  H   UNL     1      48.755   3.370   6.922  0.00  0.00    +0.000 HD
ENDBRANCH   3  10
ENDBRANCH   2   6
ENDBRANCH   1   2
BRANCH   1  14
ATOM     14  C   UNL     1      43.275   4.935  12.439  0.00  0.00    +0.000 C 
BRANCH  14  15
ATOM     15  C   UNL     1      44.703   5.227  12.820  0.00  0.00    +0.000 A 
ATOM     16  C   UNL     1      45.526   4.232  13.352  0.00  0.00    +0.000 A 
ATOM     17  C   UNL     1      46.867   4.502  13.616  0.00  0.00    +0.000 A 
ATOM     18  C   UNL     1      47.399   5.759  13.318  0.00  0.00    +0.000 A 
ATOM     19  C   UNL     1      46.615   6.768  12.732  0.00  0.00    +0.000 A 
ATOM     20  C   UNL     1      45.253   6.485  12.530  0.00  0.00    +0.000 A 
BRANCH  19  21
ATOM     21  C   UNL     1      47.209   8.023  12.216  0.00  0.00    +0.000 A 
ATOM     22  C   UNL     1      46.478   9.226  12.242  0.00  0.00    +0.000 A 
ATOM     23  C   UNL     1      47.068  10.446  11.911  0.00  0.00    +0.000 A 
ATOM     24  C   UNL     1      48.408  10.493  11.545  0.00  0.00    +0.000 A 
ATOM     25  C   UNL     1      49.148   9.317  11.475  0.00  0.00    +0.000 A 
ATOM     26  C   UNL     1      48.551   8.093  11.795  0.00  0.00    +0.000 A 
ENDBRANCH  19  21
ENDBRANCH  14  15
ENDBRANCH   1  14
TORSDOF 6
ENDMDL
MODEL 2
REMARK VINA RESULT:    -8.074      1.767      3.637
REMARK INTER + INTRA:         -12.081
REMARK INTER:                 -10.973
REMARK INTRA:                  -1.108
REMARK UNBOUND:                -1.175
REMARK  Name = 
REMARK  6 active torsions:
REMARK  status: ('A' for Active; 'I' for Inactive)
REMARK    1  A    between atoms: C_2  and  C_4
REMARK    2  A    between atoms: C_7  and  O_8
REMARK    3  A    between atoms: O_8  and  C_9
REMARK    4  A    between atoms: C_9  and  C_10
REMARK    5  A    between atoms: C_10  and  C_11
REMARK    6  A    between atoms: C_15  and  C_16
REMARK                            x       y       z     vdW  Elec       q    Type
REMARK                         _______ _______ _______ _____ _____    ______ ____
ROOT
ATOM      1  C   UNL     1      43.505   3.986  11.329  0.00  0.00    +0.000 C 
ENDROOT
BRANCH   1   2
ATOM      2  O   UNL     1      43.639   4.335   9.949  0.00  0.00    +0.000 OA
BRANCH   2   6
ATOM      3  C   UNL     1      46.584   2.461   7.662  0.00  0.00    +0.000 A 
ATOM      4  C   UNL     1      45.781   1.670   8.491  0.00  0.00    +0.000 A 
ATOM      5  C   UNL     1      44.786   2.261   9.277  0.00  0.00    +0.000 A 
ATOM      6  C   UNL     1      44.585   3.644   9.240  0.00  0.00    +0.000 A 
ATOM      7  C   UNL     1      45.403   4.432   8.425  0.00  0.00    +0.000 A 
ATOM      8  C   UNL     1      46.403   3.847   7.643  0.00  0.00    +0.000 A 
BRANCH   3  10
ATOM      9  N   UNL     1      48.611   2.714   6.342  0.00  0.00    +0.000 N 
ATOM     10  C   UNL     1      47.645   1.865   6.809  0.00  0.00    +0.000 C 
ATOM     11  O   UNL     1      47.681   0.669   6.567  0.00  0.00    +0.000 OA
ATOM     12  H   UNL     1      49.386   2.284   5.853  0.00  0.00    +0.000 HD
ATOM     13  H   UNL     1      48.757   3.634   6.732  0.00  0.00    +0.000 HD
ENDBRANCH   3  10
ENDBRANCH   2   6
ENDBRANCH   1   2
BRANCH   1  14
ATOM     14  C   UNL     1      43.668   5.246  12.181  0.00  0.00    +0.000 C 
BRANCH  14  15
ATOM     15  C   UNL     1      45.126   5.523  12.440  0.00  0.00    +0.000 A 
ATOM     16  C   UNL     1      45.852   6.392  11.623  0.00  0.00    +0.000 A 
ATOM     17  C   UNL     1      47.175   6.700  11.932  0.00  0.00    +0.000 A 
ATOM     18  C   UNL     1      47.768   6.167  13.079  0.00  0.00    +0.000 A 
ATOM     19  C   UNL     1      47.052   5.332  13.954  0.00  0.00    +0.000 A 
ATOM     20  C   UNL     1      45.737   4.993  13.586  0.00  0.00    +0.000 A 
BRANCH  19  21
ATOM     21  C   UNL     1      47.591   4.933  15.275  0.00  0.00    +0.000 A 
ATOM     22  C   UNL     1      47.316   3.660  15.807  0.00  0.00    +0.000 A 
ATOM     23  C   UNL     1      47.939   3.204  16.970  0.00  0.00    +0.000 A 
ATOM     24  C   UNL     1      48.856   4.014  17.630  0.00  0.00    +0.000 A 
ATOM     25  C   UNL     1      49.121   5.292  17.149  0.00  0.00    +0.000 A 
ATOM     26  C   UNL     1      48.486   5.752  15.991  0.00  0.00    +0.000 A 
ENDBRANCH  19  21
ENDBRANCH  14  15
ENDBRANCH   1  14
TORSDOF 6
ENDMDL
MODEL 3
REMARK VINA RESULT:    -7.609      3.588      7.047
REMARK INTER + INTRA:         -11.453
REMARK INTER:                 -10.228
REMARK INTRA:                  -1.226
REMARK UNBOUND:                -1.175
REMARK  Name = 
REMARK  6 active torsions:
REMARK  status: ('A' for Active; 'I' for Inactive)
REMARK    1  A    between atoms: C_2  and  C_4
REMARK    2  A    between atoms: C_7  and  O_8
REMARK    3  A    between atoms: O_8  and  C_9
REMARK    4  A    between atoms: C_9  and  C_10
REMARK    5  A    between atoms: C_10  and  C_11
REMARK    6  A    between atoms: C_15  and  C_16
REMARK                            x       y       z     vdW  Elec       q    Type
REMARK                         _______ _______ _______ _____ _____    ______ ____
ROOT
ATOM      1  C   UNL     1      45.616   7.554  12.776  0.00  0.00    +0.000 C 
ENDROOT
BRANCH   1   2
ATOM      2  O   UNL     1      46.948   7.035  12.764  0.00  0.00    +0.000 OA
BRANCH   2   6
ATOM      3  C   UNL     1      47.730   4.161  15.687  0.00  0.00    +0.000 A 
ATOM      4  C   UNL     1      48.300   5.431  15.832  0.00  0.00    +0.000 A 
ATOM      5  C   UNL     1      48.065   6.420  14.871  0.00  0.00    +0.000 A 
ATOM      6  C   UNL     1      47.261   6.149  13.761  0.00  0.00    +0.000 A 
ATOM      7  C   UNL     1      46.711   4.874  13.610  0.00  0.00    +0.000 A 
ATOM      8  C   UNL     1      46.948   3.880  14.564  0.00  0.00    +0.000 A 
BRANCH   3  10
ATOM      9  N   UNL     1      46.959   2.888  17.611  0.00  0.00    +0.000 N 
ATOM     10  C   UNL     1      47.954   3.090  16.692  0.00  0.00    +0.000 C 
ATOM     11  O   UNL     1      48.956   2.393  16.681  0.00  0.00    +0.000 OA
ATOM     12  H   UNL     1      47.071   2.090  18.222  0.00  0.00    +0.000 HD
ATOM     13  H   UNL     1      46.026   3.257  17.488  0.00  0.00    +0.000 HD
ENDBRANCH   3  10
ENDBRANCH   2   6
ENDBRANCH   1   2
BRANCH   1  14
ATOM     14  C   UNL     1      44.992   7.363  11.394  0.00  0.00    +0.000 C 
BRANCH  14  15
ATOM     15  C   UNL     1      44.628   5.918  11.173  0.00  0.00    +0.000 A 
ATOM     16  C   UNL     1      43.528   5.344  11.815  0.00  0.00    +0.000 A 
ATOM     17  C   UNL     1      43.159   4.031  11.530  0.00  0.00    +0.000 A 
ATOM     18  C   UNL     1      43.869   3.297  10.578  0.00  0.00    +0.000 A 
ATOM     19  C   UNL     1      44.947   3.858   9.872  0.00  0.00    +0.000 A 
ATOM     20  C   UNL     1      45.331   5.165  10.221  0.00  0.00    +0.000 A 
BRANCH  19  21
ATOM     21  C   UNL     1      45.570   3.173   8.715  0.00  0.00    +0.000 A 
ATOM     22  C   UNL     1      46.090   3.914   7.638  0.00  0.00    +0.000 A 
ATOM     23  C   UNL     1      46.820   3.304   6.617  0.00  0.00    +0.000 A 
ATOM     24  C   UNL     1      47.047   1.933   6.649  0.00  0.00    +0.000 A 
ATOM     25  C   UNL     1      46.515   1.168   7.681  0.00  0.00    +0.000 A 
ATOM     26  C   UNL     1      45.773   1.779   8.697  0.00  0.00    +0.000 A 
ENDBRANCH  19  21
ENDBRANCH  14  15
ENDBRANCH   1  14
TORSDOF 6
ENDMDL
MODEL 4
REMARK VINA RESULT:    -7.038      1.395      2.545
REMARK INTER + INTRA:         -10.681
REMARK INTER:                  -9.888
REMARK INTRA:                  -0.793
REMARK UNBOUND:                -1.175
REMARK  Name = 
REMARK  6 active torsions:
REMARK  status: ('A' for Active; 'I' for Inactive)
REMARK    1  A    between atoms: C_2  and  C_4
REMARK    2  A    between atoms: C_7  and  O_8
REMARK    3  A    between atoms: O_8  and  C_9
REMARK    4  A    between atoms: C_9  and  C_10
REMARK    5  A    between atoms: C_10  and  C_11
REMARK    6  A    between atoms: C_15  and  C_16
REMARK                            x       y       z     vdW  Elec       q    Type
REMARK                         _______ _______ _______ _____ _____    ______ ____
ROOT
ATOM      1  C   UNL     1      44.384   5.324  10.896  0.00  0.00    +0.000 C 
ENDROOT
BRANCH   1   2
ATOM      2  O   UNL     1      44.093   3.996  10.452  0.00  0.00    +0.000 OA
BRANCH   2   6
ATOM      3  C   UNL     1      46.642   2.687   7.419  0.00  0.00    +0.000 A 
ATOM      4  C   UNL     1      46.078   1.733   8.273  0.00  0.00    +0.000 A 
ATOM      5  C   UNL     1      45.221   2.132   9.304  0.00  0.00    +0.000 A 
ATOM      6  C   UNL     1      44.923   3.484   9.490  0.00  0.00    +0.000 A 
ATOM      7  C   UNL     1      45.505   4.435   8.648  0.00  0.00    +0.000 A 
ATOM      8  C   UNL     1      46.366   4.042   7.619  0.00  0.00    +0.000 A 
BRANCH   3  10
ATOM      9  N   UNL     1      47.507   3.066   5.177  0.00  0.00    +0.000 N 
ATOM     10  C   UNL     1      47.549   2.296   6.309  0.00  0.00    +0.000 C 
ATOM     11  O   UNL     1      48.325   1.359   6.409  0.00  0.00    +0.000 OA
ATOM     12  H   UNL     1      48.201   2.859   4.471  0.00  0.00    +0.000 HD
ATOM     13  H   UNL     1      47.082   3.982   5.162  0.00  0.00    +0.000 HD
ENDBRANCH   3  10
ENDBRANCH   2   6
ENDBRANCH   1   2
BRANCH   1  14
ATOM     14  C   UNL     1      45.614   5.288  11.804  0.00  0.00    +0.000 C 
BRANCH  14  15
ATOM     15  C   UNL     1      46.132   6.682  12.046  0.00  0.00    +0.000 A 
ATOM     16  C   UNL     1      45.414   7.594  12.823  0.00  0.00    +0.000 A 
ATOM     17  C   UNL     1      45.953   8.848  13.105  0.00  0.00    +0.000 A 
ATOM     18  C   UNL     1      47.227   9.182  12.640  0.00  0.00    +0.000 A 
ATOM     19  C   UNL     1      48.001   8.271  11.901  0.00  0.00    +0.000 A 
ATOM     20  C   UNL     1      47.409   7.035  11.584  0.00  0.00    +0.000 A 
BRANCH  19  21
ATOM     21  C   UNL     1      49.426   8.527  11.586  0.00  0.00    +0.000 A 
ATOM     22  C   UNL     1      50.275   7.473  11.200  0.00  0.00    +0.000 A 
ATOM     23  C   UNL     1      51.573   7.710  10.747  0.00  0.00    +0.000 A 
ATOM     24  C   UNL     1      52.055   9.012  10.668  0.00  0.00    +0.000 A 
ATOM     25  C   UNL     1      51.253  10.071  11.076  0.00  0.00    +0.000 A 
ATOM     26  C   UNL     1      49.956   9.831  11.543  0.00  0.00    +0.000 A 
ENDBRANCH  19  21
ENDBRANCH  14  15
ENDBRANCH   1  14
TORSDOF 6
ENDMDL
MODEL 5
REMARK VINA RESULT:    -6.908      3.982      7.574
REMARK INTER + INTRA:         -10.506
REMARK INTER:                  -9.268
REMARK INTRA:                  -1.238
REMARK UNBOUND:                -1.175
REMARK  Name = 
REMARK  6 active torsions:
REMARK  status: ('A' for Active; 'I' for Inactive)
REMARK    1  A    between atoms: C_2  and  C_4
REMARK    2  A    between atoms: C_7  and  O_8
REMARK    3  A    between atoms: O_8  and  C_9
REMARK    4  A    between atoms: C_9  and  C_10
REMARK    5  A    between atoms: C_10  and  C_11
REMARK    6  A    between atoms: C_15  and  C_16
REMARK                            x       y       z     vdW  Elec       q    Type
REMARK                         _______ _______ _______ _____ _____    ______ ____
ROOT
ATOM      1  C   UNL     1      49.360   7.103  12.957  0.00  0.00    +0.000 C 
ENDROOT
BRANCH   1   2
ATOM      2  O   UNL     1      49.062   7.532  14.288  0.00  0.00    +0.000 OA
BRANCH   2   6
ATOM      3  C   UNL     1      47.971   4.448  16.877  0.00  0.00    +0.000 A 
ATOM      4  C   UNL     1      48.981   5.329  17.280  0.00  0.00    +0.000 A 
ATOM      5  C   UNL     1      49.378   6.374  16.438  0.00  0.00    +0.000 A 
ATOM      6  C   UNL     1      48.771   6.545  15.191  0.00  0.00    +0.000 A 
ATOM      7  C   UNL     1      47.777   5.650  14.785  0.00  0.00    +0.000 A 
ATOM      8  C   UNL     1      47.381   4.601  15.620  0.00  0.00    +0.000 A 
BRANCH   3  10
ATOM      9  N   UNL     1      48.298   3.050  18.841  0.00  0.00    +0.000 N 
ATOM     10  C   UNL     1      47.520   3.333  17.750  0.00  0.00    +0.000 C 
ATOM     11  O   UNL     1      46.487   2.721  17.533  0.00  0.00    +0.000 OA
ATOM     12  H   UNL     1      47.929   2.363  19.486  0.00  0.00    +0.000 HD
ATOM     13  H   UNL     1      48.996   3.692  19.189  0.00  0.00    +0.000 HD
ENDBRANCH   3  10
ENDBRANCH   2   6
ENDBRANCH   1   2
BRANCH   1  14
ATOM     14  C   UNL     1      48.646   8.022  11.964  0.00  0.00    +0.000 C 
BRANCH  14  15
ATOM     15  C   UNL     1      47.182   7.676  11.882  0.00  0.00    +0.000 A 
ATOM     16  C   UNL     1      46.201   8.603  12.239  0.00  0.00    +0.000 A 
ATOM     17  C   UNL     1      44.853   8.292  12.073  0.00  0.00    +0.000 A 
ATOM     18  C   UNL     1      44.481   7.065  11.518  0.00  0.00    +0.000 A 
ATOM     19  C   UNL     1      45.442   6.130  11.096  0.00  0.00    +0.000 A 
ATOM     20  C   UNL     1      46.792   6.448  11.328  0.00  0.00    +0.000 A 
BRANCH  19  21
ATOM     21  C   UNL     1      45.075   4.926  10.314  0.00  0.00    +0.000 A 
ATOM     22  C   UNL     1      45.552   4.751   9.002  0.00  0.00    +0.000 A 
ATOM     23  C   UNL     1      45.351   3.558   8.306  0.00  0.00    +0.000 A 
ATOM     24  C   UNL     1      44.667   2.508   8.908  0.00  0.00    +0.000 A 
ATOM     25  C   UNL     1      44.152   2.664  10.191  0.00  0.00    +0.000 A 
ATOM     26  C   UNL     1      44.343   3.865  10.882  0.00  0.00    +0.000 A 
ENDBRANCH  19  21
ENDBRANCH  14  15
ENDBRANCH   1  14
TORSDOF 6
ENDMDL
MODEL 6
REMARK VINA RESULT:    -6.858      3.069      6.791
REMARK INTER + INTRA:         -10.439
REMARK INTER:                  -9.389
REMARK INTRA:                  -1.050
REMARK UNBOUND:                -1.175
REMARK  Name = 
REMARK  6 active torsions:
REMARK  status: ('A' for Active; 'I' for Inactive)
REMARK    1  A    between atoms: C_2  and  C_4
REMARK    2  A    between atoms: C_7  and  O_8
REMARK    3  A    between atoms: O_8  and  C_9
REMARK    4  A    between atoms: C_9  and  C_10
REMARK    5  A    between atoms: C_10  and  C_11
REMARK    6  A    between atoms: C_15  and  C_16
REMARK                            x       y       z     vdW  Elec       q    Type
REMARK                         _______ _______ _______ _____ _____    ______ ____
ROOT
ATOM      1  C   UNL     1      44.316   7.458  11.376  0.00  0.00    +0.000 C 
ENDROOT
BRANCH   1   2
ATOM      2  O   UNL     1      45.055   7.004  12.513  0.00  0.00    +0.000 OA
BRANCH   2   6
ATOM      3  C   UNL     1      49.121   7.907  12.769  0.00  0.00    +0.000 A 
ATOM      4  C   UNL     1      48.226   8.942  12.477  0.00  0.00    +0.000 A 
ATOM      5  C   UNL     1      46.856   8.679  12.378  0.00  0.00    +0.000 A 
ATOM      6  C   UNL     1      46.370   7.383  12.570  0.00  0.00    +0.000 A 
ATOM      7  C   UNL     1      47.270   6.349  12.842  0.00  0.00    +0.000 A 
ATOM      8  C   UNL     1      48.641   6.605  12.935  0.00  0.00    +0.000 A 
BRANCH   3  10
ATOM      9  N   UNL     1      51.178   7.772  14.060  0.00  0.00    +0.000 N 
ATOM     10  C   UNL     1      50.582   8.153  12.889  0.00  0.00    +0.000 C 
ATOM     11  O   UNL     1      51.231   8.635  11.975  0.00  0.00    +0.000 OA
ATOM     12  H   UNL     1      52.187   7.845  14.092  0.00  0.00    +0.000 HD
ATOM     13  H   UNL     1      50.733   7.145  14.715  0.00  0.00    +0.000 HD
ENDBRANCH   3  10
ENDBRANCH   2   6
ENDBRANCH   1   2
BRANCH   1  14
ATOM     14  C   UNL     1      43.116   6.536  11.159  0.00  0.00    +0.000 C 
BRANCH  14  15
ATOM     15  C   UNL     1      43.561   5.099  11.083  0.00  0.00    +0.000 A 
ATOM     16  C   UNL     1      43.030   4.132  11.940  0.00  0.00    +0.000 A 
ATOM     17  C   UNL     1      43.392   2.794  11.794  0.00  0.00    +0.000 A 
ATOM     18  C   UNL     1      44.260   2.413  10.769  0.00  0.00    +0.000 A 
ATOM     19  C   UNL     1      44.772   3.350   9.853  0.00  0.00    +0.000 A 
ATOM     20  C   UNL     1      44.434   4.699  10.060  0.00  0.00    +0.000 A 
BRANCH  19  21
ATOM     21  C   UNL     1      45.516   2.936   8.641  0.00  0.00    +0.000 A 
ATOM     22  C   UNL     1      45.890   3.885   7.671  0.00  0.00    +0.000 A 
ATOM     23  C   UNL     1      46.725   3.549   6.605  0.00  0.00    +0.000 A 
ATOM     24  C   UNL     1      47.208   2.251   6.483  0.00  0.00    +0.000 A 
ATOM     25  C   UNL     1      46.827   1.282   7.404  0.00  0.00    +0.000 A 
ATOM     26  C   UNL     1      45.979   1.618   8.466  0.00  0.00    +0.000 A 
ENDBRANCH  19  21
ENDBRANCH  14  15
ENDBRANCH   1  14
TORSDOF 6
ENDMDL
MODEL 7
REMARK VINA RESULT:    -6.842      1.768      2.976
REMARK INTER + INTRA:         -10.417
REMARK INTER:                  -9.594
REMARK INTRA:                  -0.823
REMARK UNBOUND:                -1.175
REMARK  Name = 
REMARK  6 active torsions:
REMARK  status: ('A' for Active; 'I' for Inactive)
REMARK    1  A    between atoms: C_2  and  C_4
REMARK    2  A    between atoms: C_7  and  O_8
REMARK    3  A    between atoms: O_8  and  C_9
REMARK    4  A    between atoms: C_9  and  C_10
REMARK    5  A    between atoms: C_10  and  C_11
REMARK    6  A    between atoms: C_15  and  C_16
REMARK                            x       y       z     vdW  Elec       q    Type
REMARK                         _______ _______ _______ _____ _____    ______ ____
ROOT
ATOM      1  C   UNL     1      44.593   4.881  11.335  0.00  0.00    +0.000 C 
ENDROOT
BRANCH   1   2
ATOM      2  O   UNL     1      44.019   4.146  10.251  0.00  0.00    +0.000 OA
BRANCH   2   6
ATOM      3  C   UNL     1      46.649   2.445   7.494  0.00  0.00    +0.000 A 
ATOM      4  C   UNL     1      46.523   3.839   7.522  0.00  0.00    +0.000 A 
ATOM      5  C   UNL     1      45.649   4.447   8.429  0.00  0.00    +0.000 A 
ATOM      6  C   UNL     1      44.895   3.670   9.313  0.00  0.00    +0.000 A 
ATOM      7  C   UNL     1      45.009   2.278   9.267  0.00  0.00    +0.000 A 
ATOM      8  C   UNL     1      45.877   1.665   8.358  0.00  0.00    +0.000 A 
BRANCH   3  10
ATOM      9  N   UNL     1      48.683   2.470   6.161  0.00  0.00    +0.000 N 
ATOM     10  C   UNL     1      47.574   1.768   6.548  0.00  0.00    +0.000 C 
ATOM     11  O   UNL     1      47.380   0.626   6.163  0.00  0.00    +0.000 OA
ATOM     12  H   UNL     1      49.360   1.963   5.604  0.00  0.00    +0.000 HD
ATOM     13  H   UNL     1      49.004   3.291   6.654  0.00  0.00    +0.000 HD
ENDBRANCH   3  10
ENDBRANCH   2   6
ENDBRANCH   1   2
BRANCH   1  14
ATOM     14  C   UNL     1      43.820   6.188  11.518  0.00  0.00    +0.000 C 
BRANCH  14  15
ATOM     15  C   UNL     1      44.767   7.329  11.785  0.00  0.00    +0.000 A 
ATOM     16  C   UNL     1      44.506   8.612  11.298  0.00  0.00    +0.000 A 
ATOM     17  C   UNL     1      45.350   9.670  11.630  0.00  0.00    +0.000 A 
ATOM     18  C   UNL     1      46.440   9.456  12.476  0.00  0.00    +0.000 A 
ATOM     19  C   UNL     1      46.703   8.190  13.028  0.00  0.00    +0.000 A 
ATOM     20  C   UNL     1      45.868   7.131  12.631  0.00  0.00    +0.000 A 
BRANCH  19  21
ATOM     21  C   UNL     1      47.719   7.992  14.088  0.00  0.00    +0.000 A 
ATOM     22  C   UNL     1      48.090   9.055  14.933  0.00  0.00    +0.000 A 
ATOM     23  C   UNL     1      48.922   8.855  16.035  0.00  0.00    +0.000 A 
ATOM     24  C   UNL     1      49.405   7.584  16.320  0.00  0.00    +0.000 A 
ATOM     25  C   UNL     1      49.086   6.520  15.483  0.00  0.00    +0.000 A 
ATOM     26  C   UNL     1      48.262   6.724  14.371  0.00  0.00    +0.000 A 
ENDBRANCH  19  21
ENDBRANCH  14  15
ENDBRANCH   1  14
TORSDOF 6
ENDMDL
MODEL 8
REMARK VINA RESULT:    -6.799      4.725      8.291
REMARK INTER + INTRA:         -10.359
REMARK INTER:                  -9.536
REMARK INTRA:                  -0.823
REMARK UNBOUND:                -1.175
REMARK  Name = 
REMARK  6 active torsions:
REMARK  status: ('A' for Active; 'I' for Inactive)
REMARK    1  A    between atoms: C_2  and  C_4
REMARK    2  A    between atoms: C_7  and  O_8
REMARK    3  A    between atoms: O_8  and  C_9
REMARK    4  A    between atoms: C_9  and  C_10
REMARK    5  A    between atoms: C_10  and  C_11
REMARK    6  A    between atoms: C_15  and  C_16
REMARK                            x       y       z     vdW  Elec       q    Type
REMARK                         _______ _______ _______ _____ _____    ______ ____
ROOT
ATOM      1  C   UNL     1      46.831   4.750  13.859  0.00  0.00    +0.000 C 
ENDROOT
BRANCH   1   2
ATOM      2  O   UNL     1      47.587   3.729  14.516  0.00  0.00    +0.000 OA
BRANCH   2   6
ATOM      3  C   UNL     1      48.445   4.588  18.508  0.00  0.00    +0.000 A 
ATOM      4  C   UNL     1      48.097   3.276  18.169  0.00  0.00    +0.000 A 
ATOM      5  C   UNL     1      47.799   2.949  16.842  0.00  0.00    +0.000 A 
ATOM      6  C   UNL     1      47.844   3.928  15.846  0.00  0.00    +0.000 A 
ATOM      7  C   UNL     1      48.172   5.241  16.193  0.00  0.00    +0.000 A 
ATOM      8  C   UNL     1      48.465   5.575  17.518  0.00  0.00    +0.000 A 
BRANCH   3  10
ATOM      9  N   UNL     1      48.563   4.019  20.869  0.00  0.00    +0.000 N 
ATOM     10  C   UNL     1      48.775   4.968  19.906  0.00  0.00    +0.000 C 
ATOM     11  O   UNL     1      49.250   6.057  20.184  0.00  0.00    +0.000 OA
ATOM     12  H   UNL     1      48.889   4.246  21.800  0.00  0.00    +0.000 HD
ATOM     13  H   UNL     1      48.426   3.043  20.647  0.00  0.00    +0.000 HD
ENDBRANCH   3  10
ENDBRANCH   2   6
ENDBRANCH   1   2
BRANCH   1  14
ATOM     14  C   UNL     1      45.341   4.426  13.981  0.00  0.00    +0.000 C 
BRANCH  14  15
ATOM     15  C   UNL     1      44.661   4.559  12.643  0.00  0.00    +0.000 A 
ATOM     16  C   UNL     1      43.645   5.494  12.439  0.00  0.00    +0.000 A 
ATOM     17  C   UNL     1      43.090   5.659  11.172  0.00  0.00    +0.000 A 
ATOM     18  C   UNL     1      43.572   4.911  10.095  0.00  0.00    +0.000 A 
ATOM     19  C   UNL     1      44.631   3.999  10.251  0.00  0.00    +0.000 A 
ATOM     20  C   UNL     1      45.132   3.814  11.551  0.00  0.00    +0.000 A 
BRANCH  19  21
ATOM     21  C   UNL     1      45.293   3.360   9.089  0.00  0.00    +0.000 A 
ATOM     22  C   UNL     1      45.834   4.144   8.053  0.00  0.00    +0.000 A 
ATOM     23  C   UNL     1      46.599   3.577   7.033  0.00  0.00    +0.000 A 
ATOM     24  C   UNL     1      46.842   2.209   7.025  0.00  0.00    +0.000 A 
ATOM     25  C   UNL     1      46.291   1.403   8.015  0.00  0.00    +0.000 A 
ATOM     26  C   UNL     1      45.514   1.971   9.030  0.00  0.00    +0.000 A 
ENDBRANCH  19  21
ENDBRANCH  14  15
ENDBRANCH   1  14
TORSDOF 6
ENDMDL
MODEL 9
REMARK VINA RESULT:    -6.783      4.953      7.909
REMARK INTER + INTRA:         -10.337
REMARK INTER:                  -9.552
REMARK INTRA:                  -0.785
REMARK UNBOUND:                -1.175
REMARK  Name = 
REMARK  6 active torsions:
REMARK  status: ('A' for Active; 'I' for Inactive)
REMARK    1  A    between atoms: C_2  and  C_4
REMARK    2  A    between atoms: C_7  and  O_8
REMARK    3  A    between atoms: O_8  and  C_9
REMARK    4  A    between atoms: C_9  and  C_10
REMARK    5  A    between atoms: C_10  and  C_11
REMARK    6  A    between atoms: C_15  and  C_16
REMARK                            x       y       z     vdW  Elec       q    Type
REMARK                         _______ _______ _______ _____ _____    ______ ____
ROOT
ATOM      1  C   UNL     1      47.241   4.794  15.282  0.00  0.00    +0.000 C 
ENDROOT
BRANCH   1   2
ATOM      2  O   UNL     1      47.757   4.879  16.612  0.00  0.00    +0.000 OA
BRANCH   2   6
ATOM      3  C   UNL     1      50.968   2.326  17.376  0.00  0.00    +0.000 A 
ATOM      4  C   UNL     1      51.118   3.688  17.660  0.00  0.00    +0.000 A 
ATOM      5  C   UNL     1      50.066   4.577  17.415  0.00  0.00    +0.000 A 
ATOM      6  C   UNL     1      48.859   4.113  16.883  0.00  0.00    +0.000 A 
ATOM      7  C   UNL     1      48.722   2.756  16.582  0.00  0.00    +0.000 A 
ATOM      8  C   UNL     1      49.772   1.865  16.819  0.00  0.00    +0.000 A 
BRANCH   3  10
ATOM      9  N   UNL     1      51.703   0.148  18.168  0.00  0.00    +0.000 N 
ATOM     10  C   UNL     1      52.063   1.354  17.632  0.00  0.00    +0.000 C 
ATOM     11  O   UNL     1      53.223   1.599  17.343  0.00  0.00    +0.000 OA
ATOM     12  H   UNL     1      52.437  -0.546  18.240  0.00  0.00    +0.000 HD
ATOM     13  H   UNL     1      50.748  -0.180  18.171  0.00  0.00    +0.000 HD
ENDBRANCH   3  10
ENDBRANCH   2   6
ENDBRANCH   1   2
BRANCH   1  14
ATOM     14  C   UNL     1      47.809   5.945  14.450  0.00  0.00    +0.000 C 
BRANCH  14  15
ATOM     15  C   UNL     1      46.839   6.344  13.369  0.00  0.00    +0.000 A 
ATOM     16  C   UNL     1      46.524   7.685  13.141  0.00  0.00    +0.000 A 
ATOM     17  C   UNL     1      45.692   8.037  12.080  0.00  0.00    +0.000 A 
ATOM     18  C   UNL     1      45.198   7.052  11.222  0.00  0.00    +0.000 A 
ATOM     19  C   UNL     1      45.537   5.698  11.388  0.00  0.00    +0.000 A 
ATOM     20  C   UNL     1      46.331   5.367  12.499  0.00  0.00    +0.000 A 
BRANCH  19  21
ATOM     21  C   UNL     1      45.200   4.675  10.370  0.00  0.00    +0.000 A 
ATOM     22  C   UNL     1      45.527   4.876   9.016  0.00  0.00    +0.000 A 
ATOM     23  C   UNL     1      45.364   3.864   8.069  0.00  0.00    +0.000 A 
ATOM     24  C   UNL     1      44.869   2.624   8.454  0.00  0.00    +0.000 A 
ATOM     25  C   UNL     1      44.503   2.407   9.777  0.00  0.00    +0.000 A 
ATOM     26  C   UNL     1      44.654   3.426  10.724  0.00  0.00    +0.000 A 
ENDBRANCH  19  21
ENDBRANCH  14  15
ENDBRANCH   1  14
TORSDOF 6
ENDMDL
