MODEL 1
REMARK VINA RESULT:    -8.168      0.000      0.000
REMARK INTER + INTRA:         -13.007
REMARK INTER:                 -11.749
REMARK INTRA:                  -1.258
REMARK UNBOUND:                -1.258
REMARK  Name = 
REMARK  8 active torsions:
REMARK  status: ('A' for Active; 'I' for Inactive)
REMARK    1  A    between atoms: N_1  and  C_2
REMARK    2  A    between atoms: C_2  and  C_3
REMARK    3  A    between atoms: C_2  and  C_10
REMARK    4  A    between atoms: C_3  and  C_4
REMARK    5  A    between atoms: C_10  and  C_11
REMARK    6  A    between atoms: C_14  and  C_15
REMARK    7  A    between atoms: C_15  and  N_16
REMARK    8  A    between atoms: C_17  and  C_19
REMARK                            x       y       z     vdW  Elec       q    Type
REMARK                         _______ _______ _______ _____ _____    ______ ____
ROOT
ATOM      1  C   UNL     1      44.634   5.259  10.695  0.00  0.00    +0.000 A 
ATOM      2  C   UNL     1      44.218   5.553  11.999  0.00  0.00    +0.000 A 
ATOM      3  C   UNL     1      44.983   6.385  12.822  0.00  0.00    +0.000 A 
ATOM      4  C   UNL     1      46.185   6.937  12.363  0.00  0.00    +0.000 A 
ATOM      5  C   UNL     1      46.632   6.595  11.080  0.00  0.00    +0.000 A 
ATOM      6  C   UNL     1      45.862   5.770  10.254  0.00  0.00    +0.000 A 
ENDROOT
BRANCH   1   7
ATOM      7  C   UNL     1      43.783   4.400   9.782  0.00  0.00    +0.000 C 
BRANCH   7   8
ATOM      8  C   UNL     1      44.140   2.888   9.785  0.00  0.00    +0.000 C 
BRANCH   8   9
ATOM      9  N   UNL     1      43.614   2.248  11.006  0.00  0.00    +0.000 NA
ATOM     10  H   UNL     1      42.704   1.831  10.821  0.00  0.00    +0.000 HD
ATOM     11  H   UNL     1      43.488   2.928  11.751  0.00  0.00    +0.000 HD
ENDBRANCH   8   9
BRANCH   8  12
ATOM     12  C   UNL     1      45.669   2.676   9.672  0.00  0.00    +0.000 C 
BRANCH  12  13
ATOM     13  C   UNL     1      46.191   2.441   8.269  0.00  0.00    +0.000 A 
ATOM     14  C   UNL     1      46.656   1.182   7.864  0.00  0.00    +0.000 A 
ATOM     15  C   UNL     1      47.117   0.985   6.559  0.00  0.00    +0.000 A 
ATOM     16  C   UNL     1      47.113   2.039   5.647  0.00  0.00    +0.000 A 
ATOM     17  C   UNL     1      46.650   3.293   6.039  0.00  0.00    +0.000 A 
ATOM     18  C   UNL     1      46.191   3.493   7.342  0.00  0.00    +0.000 A 
ENDBRANCH  12  13
ENDBRANCH   8  12
ENDBRANCH   7   8
ENDBRANCH   1   7
BRANCH   4  19
ATOM     19  C   UNL     1      47.001   7.848  13.244  0.00  0.00    +0.000 C 
BRANCH  19  20
ATOM     20  N   UNL     1      47.429   7.170  14.441  0.00  0.00    +0.000 N 
ATOM     21  C   UNL     1      48.738   6.803  14.625  0.00  0.00    +0.000 C 
ATOM     22  O   UNL     1      49.611   7.074  13.805  0.00  0.00    +0.000 OA
ATOM     23  H   UNL     1      46.703   6.750  15.015  0.00  0.00    +0.000 HD
BRANCH  21  24
ATOM     24  C   UNL     1      49.056   6.123  15.889  0.00  0.00    +0.000 A 
ATOM     25  C   UNL     1      50.127   6.566  16.656  0.00  0.00    +0.000 A 
ATOM     26  S   UNL     1      50.331   5.701  18.110  0.00  0.00    +0.000 S 
ATOM     27  C   UNL     1      49.029   4.667  17.744  0.00  0.00    +0.000 A 
ATOM     28  N   UNL     1      48.678   3.662  18.587  0.00  0.00    +0.000 NA
ATOM     29  C   UNL     1      47.691   2.938  18.173  0.00  0.00    +0.000 A 
ATOM     30  N   UNL     1      47.020   3.136  16.995  0.00  0.00    +0.000 N 
ATOM     31  C   UNL     1      47.322   4.156  16.125  0.00  0.00    +0.000 A 
ATOM     32  O   UNL     1      46.676   4.328  15.097  0.00  0.00    +0.000 OA
ATOM     33  C   UNL     1      48.433   4.993  16.536  0.00  0.00    +0.000 A 
ATOM     34  H   UNL     1      46.248   2.540  16.732  0.00  0.00    +0.000 HD
ENDBRANCH  21  24
ENDBRANCH  19  20
ENDBRANCH   4  19
TORSDOF 8
ENDMDL
MODEL 2
REMARK VINA RESULT:    -8.052      2.136      2.541
REMARK INTER + INTRA:         -12.841
REMARK INTER:                 -12.035
REMARK INTRA:                  -0.806
REMARK UNBOUND:                -1.258
REMARK  Name = 
REMARK  8 active torsions:
REMARK  status: ('A' for Active; 'I' for Inactive)
REMARK    1  A    between atoms: N_1  and  C_2
REMARK    2  A    between atoms: C_2  and  C_3
REMARK    3  A    between atoms: C_2  and  C_10
REMARK    4  A    between atoms: C_3  and  C_4
REMARK    5  A    between atoms: C_10  and  C_11
REMARK    6  A    between atoms: C_14  and  C_15
REMARK    7  A    between atoms: C_15  and  N_16
REMARK    8  A    between atoms: C_17  and  C_19
REMARK                            x       y       z     vdW  Elec       q    Type
REMARK                         _______ _______ _______ _____ _____    ______ ____
ROOT
ATOM      1  C   UNL     1      45.634   4.724  12.126  0.00  0.00    +0.000 A 
ATOM      2  C   UNL     1      46.131   5.914  11.581  0.00  0.00    +0.000 A 
ATOM      3  C   UNL     1      47.123   6.644  12.244  0.00  0.00    +0.000 A 
ATOM      4  C   UNL     1      47.634   6.206  13.471  0.00  0.00    +0.000 A 
ATOM      5  C   UNL     1      47.095   5.049  14.047  0.00  0.00    +0.000 A 
ATOM      6  C   UNL     1      46.110   4.313  13.380  0.00  0.00    +0.000 A 
ENDROOT
BRANCH   1   7
ATOM      7  C   UNL     1      44.598   3.902  11.387  0.00  0.00    +0.000 C 
BRANCH   7   8
ATOM      8  C   UNL     1      44.719   3.935   9.839  0.00  0.00    +0.000 C 
BRANCH   8   9
ATOM      9  N   UNL     1      43.572   4.658   9.258  0.00  0.00    +0.000 NA
ATOM     10  H   UNL     1      42.945   4.975   9.995  0.00  0.00    +0.000 HD
ATOM     11  H   UNL     1      43.032   4.055   8.643  0.00  0.00    +0.000 HD
ENDBRANCH   8   9
BRANCH   8  12
ATOM     12  C   UNL     1      44.814   2.505   9.256  0.00  0.00    +0.000 C 
BRANCH  12  13
ATOM     13  C   UNL     1      45.799   2.332   8.117  0.00  0.00    +0.000 A 
ATOM     14  C   UNL     1      46.504   1.134   7.936  0.00  0.00    +0.000 A 
ATOM     15  C   UNL     1      47.394   0.992   6.868  0.00  0.00    +0.000 A 
ATOM     16  C   UNL     1      47.584   2.040   5.969  0.00  0.00    +0.000 A 
ATOM     17  C   UNL     1      46.886   3.234   6.138  0.00  0.00    +0.000 A 
ATOM     18  C   UNL     1      45.999   3.379   7.205  0.00  0.00    +0.000 A 
ENDBRANCH  12  13
ENDBRANCH   8  12
ENDBRANCH   7   8
ENDBRANCH   1   7
BRANCH   4  19
ATOM     19  C   UNL     1      48.715   6.984  14.177  0.00  0.00    +0.000 C 
BRANCH  19  20
ATOM     20  N   UNL     1      48.403   7.162  15.573  0.00  0.00    +0.000 N 
ATOM     21  C   UNL     1      49.190   6.616  16.555  0.00  0.00    +0.000 C 
ATOM     22  O   UNL     1      50.216   5.995  16.297  0.00  0.00    +0.000 OA
ATOM     23  H   UNL     1      47.461   7.474  15.797  0.00  0.00    +0.000 HD
BRANCH  21  24
ATOM     24  C   UNL     1      48.774   6.870  17.943  0.00  0.00    +0.000 A 
ATOM     25  C   UNL     1      48.449   8.163  18.336  0.00  0.00    +0.000 A 
ATOM     26  S   UNL     1      47.944   8.277  19.960  0.00  0.00    +0.000 S 
ATOM     27  C   UNL     1      48.193   6.613  20.214  0.00  0.00    +0.000 A 
ATOM     28  N   UNL     1      47.966   6.051  21.429  0.00  0.00    +0.000 NA
ATOM     29  C   UNL     1      48.221   4.785  21.488  0.00  0.00    +0.000 A 
ATOM     30  N   UNL     1      48.678   4.032  20.439  0.00  0.00    +0.000 N 
ATOM     31  C   UNL     1      48.897   4.553  19.185  0.00  0.00    +0.000 A 
ATOM     32  O   UNL     1      49.268   3.842  18.258  0.00  0.00    +0.000 OA
ATOM     33  C   UNL     1      48.636   5.974  19.066  0.00  0.00    +0.000 A 
ATOM     34  H   UNL     1      48.850   3.044  20.547  0.00  0.00    +0.000 HD
ENDBRANCH  21  24
ENDBRANCH  19  20
ENDBRANCH   4  19
TORSDOF 8
ENDMDL
MODEL 3
REMARK VINA RESULT:    -7.931      2.579      4.581
REMARK INTER + INTRA:         -12.667
REMARK INTER:                 -11.795
REMARK INTRA:                  -0.872
REMARK UNBOUND:                -1.258
REMARK  Name = 
REMARK  8 active torsions:
REMARK  status: ('A' for Active; 'I' for Inactive)
REMARK    1  A    between atoms: N_1  and  C_2
REMARK    2  A    between atoms: C_2  and  C_3
REMARK    3  A    between atoms: C_2  and  C_10
REMARK    4  A    between atoms: C_3  and  C_4
REMARK    5  A    between atoms: C_10  and  C_11
REMARK    6  A    between atoms: C_14  and  C_15
REMARK    7  A    between atoms: C_15  and  N_16
REMARK    8  A    between atoms: C_17  and  C_19
REMARK                            x       y       z     vdW  Elec       q    Type
REMARK                         _______ _______ _______ _____ _____    ______ ____
ROOT
ATOM      1  C   UNL     1      45.850   3.498   7.774  0.00  0.00    +0.000 A 
ATOM      2  C   UNL     1      45.344   2.417   8.505  0.00  0.00    +0.000 A 
ATOM      3  C   UNL     1      44.820   2.605   9.788  0.00  0.00    +0.000 A 
ATOM      4  C   UNL     1      44.796   3.878  10.372  0.00  0.00    +0.000 A 
ATOM      5  C   UNL     1      45.357   4.949   9.666  0.00  0.00    +0.000 A 
ATOM      6  C   UNL     1      45.874   4.762   8.379  0.00  0.00    +0.000 A 
ENDROOT
BRANCH   1   7
ATOM      7  C   UNL     1      46.372   3.308   6.364  0.00  0.00    +0.000 C 
BRANCH   7   8
ATOM      8  C   UNL     1      47.008   1.919   6.084  0.00  0.00    +0.000 C 
BRANCH   8   9
ATOM      9  N   UNL     1      48.132   1.683   7.010  0.00  0.00    +0.000 NA
ATOM     10  H   UNL     1      47.909   2.043   7.935  0.00  0.00    +0.000 HD
ATOM     11  H   UNL     1      48.972   2.162   6.695  0.00  0.00    +0.000 HD
ENDBRANCH   8   9
BRANCH   8  12
ATOM     12  C   UNL     1      47.479   1.806   4.614  0.00  0.00    +0.000 C 
BRANCH  12  13
ATOM     13  C   UNL     1      46.762   0.764   3.780  0.00  0.00    +0.000 A 
ATOM     14  C   UNL     1      47.063  -0.600   3.897  0.00  0.00    +0.000 A 
ATOM     15  C   UNL     1      46.377  -1.545   3.130  0.00  0.00    +0.000 A 
ATOM     16  C   UNL     1      45.381  -1.138   2.244  0.00  0.00    +0.000 A 
ATOM     17  C   UNL     1      45.071   0.214   2.121  0.00  0.00    +0.000 A 
ATOM     18  C   UNL     1      45.757   1.160   2.885  0.00  0.00    +0.000 A 
ENDBRANCH  12  13
ENDBRANCH   8  12
ENDBRANCH   7   8
ENDBRANCH   1   7
BRANCH   4  19
ATOM     19  C   UNL     1      44.215   4.084  11.747  0.00  0.00    +0.000 C 
BRANCH  19  20
ATOM     20  N   UNL     1      45.142   4.775  12.607  0.00  0.00    +0.000 N 
ATOM     21  C   UNL     1      46.090   4.095  13.329  0.00  0.00    +0.000 C 
ATOM     22  O   UNL     1      46.224   2.879  13.242  0.00  0.00    +0.000 OA
ATOM     23  H   UNL     1      44.908   5.733  12.858  0.00  0.00    +0.000 HD
BRANCH  21  24
ATOM     24  C   UNL     1      46.983   4.909  14.167  0.00  0.00    +0.000 A 
ATOM     25  C   UNL     1      47.216   4.536  15.485  0.00  0.00    +0.000 A 
ATOM     26  S   UNL     1      48.308   5.557  16.303  0.00  0.00    +0.000 S 
ATOM     27  C   UNL     1      48.470   6.567  14.942  0.00  0.00    +0.000 A 
ATOM     28  N   UNL     1      49.263   7.669  14.981  0.00  0.00    +0.000 NA
ATOM     29  C   UNL     1      49.273   8.359  13.889  0.00  0.00    +0.000 A 
ATOM     30  N   UNL     1      48.564   8.042  12.760  0.00  0.00    +0.000 N 
ATOM     31  C   UNL     1      47.770   6.923  12.666  0.00  0.00    +0.000 A 
ATOM     32  O   UNL     1      47.180   6.647  11.627  0.00  0.00    +0.000 OA
ATOM     33  C   UNL     1      47.715   6.117  13.871  0.00  0.00    +0.000 A 
ATOM     34  H   UNL     1      48.621   8.618  11.934  0.00  0.00    +0.000 HD
ENDBRANCH  21  24
ENDBRANCH  19  20
ENDBRANCH   4  19
TORSDOF 8
ENDMDL
MODEL 4
REMARK VINA RESULT:    -7.908      2.650      4.094
REMARK INTER + INTRA:         -12.633
REMARK INTER:                 -12.002
REMARK INTRA:                  -0.632
REMARK UNBOUND:                -1.258
REMARK  Name = 
REMARK  8 active torsions:
REMARK  status: ('A' for Active; 'I' for Inactive)
REMARK    1  A    between atoms: N_1  and  C_2
REMARK    2  A    between atoms: C_2  and  C_3
REMARK    3  A    between atoms: C_2  and  C_10
REMARK    4  A    between atoms: C_3  and  C_4
REMARK    5  A    between atoms: C_10  and  C_11
REMARK    6  A    between atoms: C_14  and  C_15
REMARK    7  A    between atoms: C_15  and  N_16
REMARK    8  A    between atoms: C_17  and  C_19
REMARK                            x       y       z     vdW  Elec       q    Type
REMARK                         _______ _______ _______ _____ _____    ______ ____
ROOT
ATOM      1  C   UNL     1      45.849   3.362   7.677  0.00  0.00    +0.000 A 
ATOM      2  C   UNL     1      45.277   2.350   8.459  0.00  0.00    +0.000 A 
ATOM      3  C   UNL     1      44.839   2.614   9.760  0.00  0.00    +0.000 A 
ATOM      4  C   UNL     1      44.969   3.893  10.314  0.00  0.00    +0.000 A 
ATOM      5  C   UNL     1      45.595   4.891   9.555  0.00  0.00    +0.000 A 
ATOM      6  C   UNL     1      46.025   4.629   8.250  0.00  0.00    +0.000 A 
ENDROOT
BRANCH   1   7
ATOM      7  C   UNL     1      46.277   3.093   6.250  0.00  0.00    +0.000 C 
BRANCH   7   8
ATOM      8  C   UNL     1      47.016   1.745   6.030  0.00  0.00    +0.000 C 
BRANCH   8   9
ATOM      9  N   UNL     1      48.146   1.629   6.971  0.00  0.00    +0.000 NA
ATOM     10  H   UNL     1      48.336   0.651   7.176  0.00  0.00    +0.000 HD
ATOM     11  H   UNL     1      47.935   2.086   7.855  0.00  0.00    +0.000 HD
ENDBRANCH   8   9
BRANCH   8  12
ATOM     12  C   UNL     1      47.506   1.607   4.568  0.00  0.00    +0.000 C 
BRANCH  12  13
ATOM     13  C   UNL     1      46.770   0.582   3.730  0.00  0.00    +0.000 A 
ATOM     14  C   UNL     1      47.056  -0.787   3.831  0.00  0.00    +0.000 A 
ATOM     15  C   UNL     1      46.352  -1.716   3.060  0.00  0.00    +0.000 A 
ATOM     16  C   UNL     1      45.354  -1.289   2.186  0.00  0.00    +0.000 A 
ATOM     17  C   UNL     1      45.059   0.069   2.080  0.00  0.00    +0.000 A 
ATOM     18  C   UNL     1      45.762   0.998   2.847  0.00  0.00    +0.000 A 
ENDBRANCH  12  13
ENDBRANCH   8  12
ENDBRANCH   7   8
ENDBRANCH   1   7
BRANCH   4  19
ATOM     19  C   UNL     1      44.481   4.182  11.710  0.00  0.00    +0.000 C 
BRANCH  19  20
ATOM     20  N   UNL     1      45.437   4.972  12.444  0.00  0.00    +0.000 N 
ATOM     21  C   UNL     1      46.347   4.389  13.288  0.00  0.00    +0.000 C 
ATOM     22  O   UNL     1      46.422   3.171  13.423  0.00  0.00    +0.000 OA
ATOM     23  H   UNL     1      45.249   5.969  12.516  0.00  0.00    +0.000 HD
BRANCH  21  24
ATOM     24  C   UNL     1      47.275   5.297  13.978  0.00  0.00    +0.000 A 
ATOM     25  C   UNL     1      47.850   6.351  13.279  0.00  0.00    +0.000 A 
ATOM     26  S   UNL     1      48.863   7.334  14.234  0.00  0.00    +0.000 S 
ATOM     27  C   UNL     1      48.614   6.356  15.605  0.00  0.00    +0.000 A 
ATOM     28  N   UNL     1      49.228   6.637  16.783  0.00  0.00    +0.000 NA
ATOM     29  C   UNL     1      48.972   5.798  17.732  0.00  0.00    +0.000 A 
ATOM     30  N   UNL     1      48.151   4.707  17.608  0.00  0.00    +0.000 N 
ATOM     31  C   UNL     1      47.489   4.400  16.444  0.00  0.00    +0.000 A 
ATOM     32  O   UNL     1      46.731   3.438  16.378  0.00  0.00    +0.000 OA
ATOM     33  C   UNL     1      47.751   5.305  15.341  0.00  0.00    +0.000 A 
ATOM     34  H   UNL     1      47.984   4.094  18.392  0.00  0.00    +0.000 HD
ENDBRANCH  21  24
ENDBRANCH  19  20
ENDBRANCH   4  19
TORSDOF 8
ENDMDL
MODEL 5
REMARK VINA RESULT:    -7.626      2.359      2.922
REMARK INTER + INTRA:         -12.229
REMARK INTER:                 -11.430
REMARK INTRA:                  -0.799
REMARK UNBOUND:                -1.258
REMARK  Name = 
REMARK  8 active torsions:
REMARK  status: ('A' for Active; 'I' for Inactive)
REMARK    1  A    between atoms: N_1  and  C_2
REMARK    2  A    between atoms: C_2  and  C_3
REMARK    3  A    between atoms: C_2  and  C_10
REMARK    4  A    between atoms: C_3  and  C_4
REMARK    5  A    between atoms: C_10  and  C_11
REMARK    6  A    between atoms: C_14  and  C_15
REMARK    7  A    between atoms: C_15  and  N_16
REMARK    8  A    between atoms: C_17  and  C_19
REMARK                            x       y       z     vdW  Elec       q    Type
REMARK                         _______ _______ _______ _____ _____    ______ ____
ROOT
ATOM      1  C   UNL     1      46.113   4.339  12.599  0.00  0.00    +0.000 A 
ATOM      2  C   UNL     1      46.581   3.847  13.823  0.00  0.00    +0.000 A 
ATOM      3  C   UNL     1      47.323   4.663  14.684  0.00  0.00    +0.000 A 
ATOM      4  C   UNL     1      47.620   5.986  14.337  0.00  0.00    +0.000 A 
ATOM      5  C   UNL     1      47.204   6.461  13.086  0.00  0.00    +0.000 A 
ATOM      6  C   UNL     1      46.454   5.648  12.229  0.00  0.00    +0.000 A 
ENDROOT
BRANCH   1   7
ATOM      7  C   UNL     1      45.266   3.476  11.687  0.00  0.00    +0.000 C 
BRANCH   7   8
ATOM      8  C   UNL     1      43.940   4.131  11.211  0.00  0.00    +0.000 C 
BRANCH   8   9
ATOM      9  N   UNL     1      42.794   3.280  11.586  0.00  0.00    +0.000 NA
ATOM     10  H   UNL     1      43.122   2.407  11.993  0.00  0.00    +0.000 HD
ATOM     11  H   UNL     1      42.234   3.041  10.772  0.00  0.00    +0.000 HD
ENDBRANCH   8   9
BRANCH   8  12
ATOM     12  C   UNL     1      43.957   4.381   9.684  0.00  0.00    +0.000 C 
BRANCH  12  13
ATOM     13  C   UNL     1      44.974   3.573   8.904  0.00  0.00    +0.000 A 
ATOM     14  C   UNL     1      45.025   2.175   8.999  0.00  0.00    +0.000 A 
ATOM     15  C   UNL     1      45.961   1.450   8.257  0.00  0.00    +0.000 A 
ATOM     16  C   UNL     1      46.850   2.110   7.411  0.00  0.00    +0.000 A 
ATOM     17  C   UNL     1      46.806   3.499   7.306  0.00  0.00    +0.000 A 
ATOM     18  C   UNL     1      45.874   4.226   8.048  0.00  0.00    +0.000 A 
ENDBRANCH  12  13
ENDBRANCH   8  12
ENDBRANCH   7   8
ENDBRANCH   1   7
BRANCH   4  19
ATOM     19  C   UNL     1      48.404   6.871  15.272  0.00  0.00    +0.000 C 
BRANCH  19  20
ATOM     20  N   UNL     1      49.530   6.168  15.833  0.00  0.00    +0.000 N 
ATOM     21  C   UNL     1      49.500   5.676  17.112  0.00  0.00    +0.000 C 
ATOM     22  O   UNL     1      48.502   5.766  17.821  0.00  0.00    +0.000 OA
ATOM     23  H   UNL     1      50.422   6.276  15.355  0.00  0.00    +0.000 HD
BRANCH  21  24
ATOM     24  C   UNL     1      50.707   4.972  17.572  0.00  0.00    +0.000 A 
ATOM     25  C   UNL     1      51.754   5.697  18.128  0.00  0.00    +0.000 A 
ATOM     26  S   UNL     1      53.055   4.729  18.651  0.00  0.00    +0.000 S 
ATOM     27  C   UNL     1      52.291   3.309  18.105  0.00  0.00    +0.000 A 
ATOM     28  N   UNL     1      52.895   2.099  18.231  0.00  0.00    +0.000 NA
ATOM     29  C   UNL     1      52.216   1.111  17.751  0.00  0.00    +0.000 A 
ATOM     30  N   UNL     1      50.985   1.224  17.161  0.00  0.00    +0.000 N 
ATOM     31  C   UNL     1      50.324   2.424  17.036  0.00  0.00    +0.000 A 
ATOM     32  O   UNL     1      49.206   2.485  16.538  0.00  0.00    +0.000 OA
ATOM     33  C   UNL     1      51.049   3.570  17.550  0.00  0.00    +0.000 A 
ATOM     34  H   UNL     1      50.500   0.411  16.813  0.00  0.00    +0.000 HD
ENDBRANCH  21  24
ENDBRANCH  19  20
ENDBRANCH   4  19
TORSDOF 8
ENDMDL
MODEL 6
REMARK VINA RESULT:    -7.471      2.824      3.248
REMARK INTER + INTRA:         -12.005
REMARK INTER:                 -10.940
REMARK INTRA:                  -1.065
REMARK UNBOUND:                -1.258
REMARK  Name = 
REMARK  8 active torsions:
REMARK  status: ('A' for Active; 'I' for Inactive)
REMARK    1  A    between atoms: N_1  and  C_2
REMARK    2  A    between atoms: C_2  and  C_3
REMARK    3  A    between atoms: C_2  and  C_10
REMARK    4  A    between atoms: C_3  and  C_4
REMARK    5  A    between atoms: C_10  and  C_11
REMARK    6  A    between atoms: C_14  and  C_15
REMARK    7  A    between atoms: C_15  and  N_16
REMARK    8  A    between atoms: C_17  and  C_19
REMARK                            x       y       z     vdW  Elec       q    Type
REMARK                         _______ _______ _______ _____ _____    ______ ____
ROOT
ATOM      1  C   UNL     1      45.939   4.918  12.579  0.00  0.00    +0.000 A 
ATOM      2  C   UNL     1      45.244   6.089  12.255  0.00  0.00    +0.000 A 
ATOM      3  C   UNL     1      45.740   7.341  12.633  0.00  0.00    +0.000 A 
ATOM      4  C   UNL     1      46.938   7.450  13.349  0.00  0.00    +0.000 A 
ATOM      5  C   UNL     1      47.602   6.276  13.726  0.00  0.00    +0.000 A 
ATOM      6  C   UNL     1      47.111   5.024  13.340  0.00  0.00    +0.000 A 
ENDROOT
BRANCH   1   7
ATOM      7  C   UNL     1      45.432   3.563  12.127  0.00  0.00    +0.000 C 
BRANCH   7   8
ATOM      8  C   UNL     1      43.915   3.508  11.799  0.00  0.00    +0.000 C 
BRANCH   8   9
ATOM      9  N   UNL     1      43.375   2.175  12.127  0.00  0.00    +0.000 NA
ATOM     10  H   UNL     1      43.870   1.456  11.604  0.00  0.00    +0.000 HD
ATOM     11  H   UNL     1      42.392   2.106  11.876  0.00  0.00    +0.000 HD
ENDBRANCH   8   9
BRANCH   8  12
ATOM     12  C   UNL     1      43.652   3.853  10.312  0.00  0.00    +0.000 C 
BRANCH  12  13
ATOM     13  C   UNL     1      44.717   3.389   9.340  0.00  0.00    +0.000 A 
ATOM     14  C   UNL     1      45.004   2.028   9.165  0.00  0.00    +0.000 A 
ATOM     15  C   UNL     1      45.980   1.622   8.250  0.00  0.00    +0.000 A 
ATOM     16  C   UNL     1      46.672   2.569   7.498  0.00  0.00    +0.000 A 
ATOM     17  C   UNL     1      46.393   3.924   7.661  0.00  0.00    +0.000 A 
ATOM     18  C   UNL     1      45.421   4.331   8.576  0.00  0.00    +0.000 A 
ENDBRANCH  12  13
ENDBRANCH   8  12
ENDBRANCH   7   8
ENDBRANCH   1   7
BRANCH   4  19
ATOM     19  C   UNL     1      47.482   8.800  13.741  0.00  0.00    +0.000 C 
BRANCH  19  20
ATOM     20  N   UNL     1      47.287   9.054  15.145  0.00  0.00    +0.000 N 
ATOM     21  C   UNL     1      48.340   9.054  16.024  0.00  0.00    +0.000 C 
ATOM     22  O   UNL     1      49.497   8.886  15.653  0.00  0.00    +0.000 OA
ATOM     23  H   UNL     1      46.336   8.975  15.498  0.00  0.00    +0.000 HD
BRANCH  21  24
ATOM     24  C   UNL     1      48.018   9.331  17.432  0.00  0.00    +0.000 A 
ATOM     25  C   UNL     1      47.805  10.642  17.842  0.00  0.00    +0.000 A 
ATOM     26  S   UNL     1      47.397  10.786  19.490  0.00  0.00    +0.000 S 
ATOM     27  C   UNL     1      47.542   9.107  19.731  0.00  0.00    +0.000 A 
ATOM     28  N   UNL     1      47.340   8.558  20.956  0.00  0.00    +0.000 NA
ATOM     29  C   UNL     1      47.508   7.278  21.002  0.00  0.00    +0.000 A 
ATOM     30  N   UNL     1      47.854   6.498  19.930  0.00  0.00    +0.000 N 
ATOM     31  C   UNL     1      48.042   7.006  18.666  0.00  0.00    +0.000 A 
ATOM     32  O   UNL     1      48.313   6.275  17.720  0.00  0.00    +0.000 OA
ATOM     33  C   UNL     1      47.876   8.444  18.561  0.00  0.00    +0.000 A 
ATOM     34  H   UNL     1      47.961   5.500  20.029  0.00  0.00    +0.000 HD
ENDBRANCH  21  24
ENDBRANCH  19  20
ENDBRANCH   4  19
TORSDOF 8
ENDMDL
MODEL 7
REMARK VINA RESULT:    -7.459      3.674      5.205
REMARK INTER + INTRA:         -11.988
REMARK INTER:                 -10.466
REMARK INTRA:                  -1.521
REMARK UNBOUND:                -1.258
REMARK  Name = 
REMARK  8 active torsions:
REMARK  status: ('A' for Active; 'I' for Inactive)
REMARK    1  A    between atoms: N_1  and  C_2
REMARK    2  A    between atoms: C_2  and  C_3
REMARK    3  A    between atoms: C_2  and  C_10
REMARK    4  A    between atoms: C_3  and  C_4
REMARK    5  A    between atoms: C_10  and  C_11
REMARK    6  A    between atoms: C_14  and  C_15
REMARK    7  A    between atoms: C_15  and  N_16
REMARK    8  A    between atoms: C_17  and  C_19
REMARK                            x       y       z     vdW  Elec       q    Type
REMARK                         _______ _______ _______ _____ _____    ______ ____
ROOT
ATOM      1  C   UNL     1      45.714   4.662  12.097  0.00  0.00    +0.000 A 
ATOM      2  C   UNL     1      46.450   4.864  13.271  0.00  0.00    +0.000 A 
ATOM      3  C   UNL     1      46.811   6.154  13.674  0.00  0.00    +0.000 A 
ATOM      4  C   UNL     1      46.452   7.270  12.909  0.00  0.00    +0.000 A 
ATOM      5  C   UNL     1      45.769   7.064  11.703  0.00  0.00    +0.000 A 
ATOM      6  C   UNL     1      45.400   5.775  11.305  0.00  0.00    +0.000 A 
ENDROOT
BRANCH   1   7
ATOM      7  C   UNL     1      45.277   3.272  11.683  0.00  0.00    +0.000 C 
BRANCH   7   8
ATOM      8  C   UNL     1      44.112   3.230  10.656  0.00  0.00    +0.000 C 
BRANCH   8   9
ATOM      9  N   UNL     1      42.826   3.054  11.357  0.00  0.00    +0.000 NA
ATOM     10  H   UNL     1      42.740   2.100  11.701  0.00  0.00    +0.000 HD
ATOM     11  H   UNL     1      42.042   3.221  10.732  0.00  0.00    +0.000 HD
ENDBRANCH   8   9
BRANCH   8  12
ATOM     12  C   UNL     1      44.325   2.105   9.615  0.00  0.00    +0.000 C 
BRANCH  12  13
ATOM     13  C   UNL     1      45.444   2.341   8.621  0.00  0.00    +0.000 A 
ATOM     14  C   UNL     1      46.246   1.289   8.160  0.00  0.00    +0.000 A 
ATOM     15  C   UNL     1      47.262   1.528   7.230  0.00  0.00    +0.000 A 
ATOM     16  C   UNL     1      47.483   2.817   6.750  0.00  0.00    +0.000 A 
ATOM     17  C   UNL     1      46.690   3.871   7.200  0.00  0.00    +0.000 A 
ATOM     18  C   UNL     1      45.677   3.634   8.130  0.00  0.00    +0.000 A 
ENDBRANCH  12  13
ENDBRANCH   8  12
ENDBRANCH   7   8
ENDBRANCH   1   7
BRANCH   4  19
ATOM     19  C   UNL     1      46.826   8.661  13.352  0.00  0.00    +0.000 C 
BRANCH  19  20
ATOM     20  N   UNL     1      48.115   9.044  12.836  0.00  0.00    +0.000 N 
ATOM     21  C   UNL     1      48.236   9.968  11.829  0.00  0.00    +0.000 C 
ATOM     22  O   UNL     1      47.262  10.544  11.355  0.00  0.00    +0.000 OA
ATOM     23  H   UNL     1      48.898   8.432  13.054  0.00  0.00    +0.000 HD
BRANCH  21  24
ATOM     24  C   UNL     1      49.603  10.283  11.390  0.00  0.00    +0.000 A 
ATOM     25  C   UNL     1      49.941  11.596  11.083  0.00  0.00    +0.000 A 
ATOM     26  S   UNL     1      51.573  11.797  10.636  0.00  0.00    +0.000 S 
ATOM     27  C   UNL     1      51.877  10.128  10.783  0.00  0.00    +0.000 A 
ATOM     28  N   UNL     1      53.106   9.617  10.513  0.00  0.00    +0.000 NA
ATOM     29  C   UNL     1      53.189   8.334  10.639  0.00  0.00    +0.000 A 
ATOM     30  N   UNL     1      52.155   7.518  11.017  0.00  0.00    +0.000 N 
ATOM     31  C   UNL     1      50.903   7.995  11.326  0.00  0.00    +0.000 A 
ATOM     32  O   UNL     1      50.010   7.241  11.698  0.00  0.00    +0.000 OA
ATOM     33  C   UNL     1      50.751   9.430  11.189  0.00  0.00    +0.000 A 
ATOM     34  H   UNL     1      52.287   6.522  11.106  0.00  0.00    +0.000 HD
ENDBRANCH  21  24
ENDBRANCH  19  20
ENDBRANCH   4  19
TORSDOF 8
ENDMDL
MODEL 8
REMARK VINA RESULT:    -7.258      3.933      9.847
REMARK INTER + INTRA:         -11.699
REMARK INTER:                  -9.687
REMARK INTRA:                  -2.012
REMARK UNBOUND:                -1.258
REMARK  Name = 
REMARK  8 active torsions:
REMARK  status: ('A' for Active; 'I' for Inactive)
REMARK    1  A    between atoms: N_1  and  C_2
REMARK    2  A    between atoms: C_2  and  C_3
REMARK    3  A    between atoms: C_2  and  C_10
REMARK    4  A    between atoms: C_3  and  C_4
REMARK    5  A    between atoms: C_10  and  C_11
REMARK    6  A    between atoms: C_14  and  C_15
REMARK    7  A    between atoms: C_15  and  N_16
REMARK    8  A    between atoms: C_17  and  C_19
REMARK                            x       y       z     vdW  Elec       q    Type
REMARK                         _______ _______ _______ _____ _____    ______ ____
ROOT
ATOM      1  C   UNL     1      51.380   4.532  17.798  0.00  0.00    +0.000 A 
ATOM      2  C   UNL     1      50.475   5.517  17.385  0.00  0.00    +0.000 A 
ATOM      3  C   UNL     1      49.170   5.177  17.011  0.00  0.00    +0.000 A 
ATOM      4  C   UNL     1      48.744   3.844  17.034  0.00  0.00    +0.000 A 
ATOM      5  C   UNL     1      49.666   2.851  17.389  0.00  0.00    +0.000 A 
ATOM      6  C   UNL     1      50.968   3.192  17.771  0.00  0.00    +0.000 A 
ENDROOT
BRANCH   1   7
ATOM      7  C   UNL     1      52.777   4.901  18.252  0.00  0.00    +0.000 C 
BRANCH   7   8
ATOM      8  C   UNL     1      52.837   5.859  19.474  0.00  0.00    +0.000 C 
BRANCH   8   9
ATOM      9  N   UNL     1      54.241   6.134  19.831  0.00  0.00    +0.000 NA
ATOM     10  H   UNL     1      54.327   6.280  20.835  0.00  0.00    +0.000 HD
ATOM     11  H   UNL     1      54.577   6.978  19.375  0.00  0.00    +0.000 HD
ENDBRANCH   8   9
BRANCH   8  12
ATOM     12  C   UNL     1      52.071   5.270  20.683  0.00  0.00    +0.000 C 
BRANCH  12  13
ATOM     13  C   UNL     1      50.617   5.683  20.795  0.00  0.00    +0.000 A 
ATOM     14  C   UNL     1      49.604   4.740  21.012  0.00  0.00    +0.000 A 
ATOM     15  C   UNL     1      48.271   5.146  21.129  0.00  0.00    +0.000 A 
ATOM     16  C   UNL     1      47.940   6.496  21.036  0.00  0.00    +0.000 A 
ATOM     17  C   UNL     1      48.939   7.443  20.824  0.00  0.00    +0.000 A 
ATOM     18  C   UNL     1      50.270   7.039  20.704  0.00  0.00    +0.000 A 
ENDBRANCH  12  13
ENDBRANCH   8  12
ENDBRANCH   7   8
ENDBRANCH   1   7
BRANCH   4  19
ATOM     19  C   UNL     1      47.333   3.479  16.649  0.00  0.00    +0.000 C 
BRANCH  19  20
ATOM     20  N   UNL     1      46.782   4.436  15.723  0.00  0.00    +0.000 N 
ATOM     21  C   UNL     1      46.769   4.197  14.372  0.00  0.00    +0.000 C 
ATOM     22  O   UNL     1      47.180   3.144  13.894  0.00  0.00    +0.000 OA
ATOM     23  H   UNL     1      46.644   5.382  16.068  0.00  0.00    +0.000 HD
BRANCH  21  24
ATOM     24  C   UNL     1      46.175   5.244  13.528  0.00  0.00    +0.000 A 
ATOM     25  C   UNL     1      46.872   6.426  13.309  0.00  0.00    +0.000 A 
ATOM     26  S   UNL     1      46.066   7.513  12.272  0.00  0.00    +0.000 S 
ATOM     27  C   UNL     1      44.732   6.467  12.120  0.00  0.00    +0.000 A 
ATOM     28  N   UNL     1      43.655   6.815  11.369  0.00  0.00    +0.000 NA
ATOM     29  C   UNL     1      42.704   5.941  11.362  0.00  0.00    +0.000 A 
ATOM     30  N   UNL     1      42.737   4.747  12.035  0.00  0.00    +0.000 N 
ATOM     31  C   UNL     1      43.816   4.342  12.784  0.00  0.00    +0.000 A 
ATOM     32  O   UNL     1      43.829   3.250  13.341  0.00  0.00    +0.000 OA
ATOM     33  C   UNL     1      44.909   5.294  12.835  0.00  0.00    +0.000 A 
ATOM     34  H   UNL     1      41.964   4.101  11.982  0.00  0.00    +0.000 HD
ENDBRANCH  21  24
ENDBRANCH  19  20
ENDBRANCH   4  19
TORSDOF 8
ENDMDL
MODEL 9
REMARK VINA RESULT:    -7.212      3.065      8.460
REMARK INTER + INTRA:         -11.632
REMARK INTER:                  -9.605
REMARK INTRA:                  -2.027
REMARK UNBOUND:                -1.258
REMARK  Name = 
REMARK  8 active torsions:
REMARK  status: ('A' for Active; 'I' for Inactive)
REMARK    1  A    between atoms: N_1  and  C_2
REMARK    2  A    between atoms: C_2  and  C_3
REMARK    3  A    between atoms: C_2  and  C_10
REMARK    4  A    between atoms: C_3  and  C_4
REMARK    5  A    between atoms: C_10  and  C_11
REMARK    6  A    between atoms: C_14  and  C_15
REMARK    7  A    between atoms: C_15  and  N_16
REMARK    8  A    between atoms: C_17  and  C_19
REMARK                            x       y       z     vdW  Elec       q    Type
REMARK                         _______ _______ _______ _____ _____    ______ ____
ROOT
ATOM      1  C   UNL     1      48.879   7.953  16.310  0.00  0.00    +0.000 A 
ATOM      2  C   UNL     1      49.138   6.805  15.551  0.00  0.00    +0.000 A 
ATOM      3  C   UNL     1      48.748   6.733  14.210  0.00  0.00    +0.000 A 
ATOM      4  C   UNL     1      48.082   7.802  13.599  0.00  0.00    +0.000 A 
ATOM      5  C   UNL     1      47.768   8.926  14.374  0.00  0.00    +0.000 A 
ATOM      6  C   UNL     1      48.166   9.002  15.713  0.00  0.00    +0.000 A 
ENDROOT
BRANCH   1   7
ATOM      7  C   UNL     1      49.345   8.056  17.748  0.00  0.00    +0.000 C 
BRANCH   7   8
ATOM      8  C   UNL     1      48.311   7.586  18.807  0.00  0.00    +0.000 C 
BRANCH   8   9
ATOM      9  N   UNL     1      48.147   8.620  19.847  0.00  0.00    +0.000 NA
ATOM     10  H   UNL     1      47.439   9.294  19.564  0.00  0.00    +0.000 HD
ATOM     11  H   UNL     1      49.012   9.134  19.990  0.00  0.00    +0.000 HD
ENDBRANCH   8   9
BRANCH   8  12
ATOM     12  C   UNL     1      48.732   6.238  19.440  0.00  0.00    +0.000 C 
BRANCH  12  13
ATOM     13  C   UNL     1      48.560   5.021  18.552  0.00  0.00    +0.000 A 
ATOM     14  C   UNL     1      47.330   4.724  17.951  0.00  0.00    +0.000 A 
ATOM     15  C   UNL     1      47.199   3.606  17.123  0.00  0.00    +0.000 A 
ATOM     16  C   UNL     1      48.295   2.779  16.882  0.00  0.00    +0.000 A 
ATOM     17  C   UNL     1      49.524   3.068  17.472  0.00  0.00    +0.000 A 
ATOM     18  C   UNL     1      49.656   4.182  18.302  0.00  0.00    +0.000 A 
ENDBRANCH  12  13
ENDBRANCH   8  12
ENDBRANCH   7   8
ENDBRANCH   1   7
BRANCH   4  19
ATOM     19  C   UNL     1      47.677   7.731  12.149  0.00  0.00    +0.000 C 
BRANCH  19  20
ATOM     20  N   UNL     1      46.961   6.513  11.867  0.00  0.00    +0.000 N 
ATOM     21  C   UNL     1      45.605   6.423  12.051  0.00  0.00    +0.000 C 
ATOM     22  O   UNL     1      44.933   7.382  12.417  0.00  0.00    +0.000 OA
ATOM     23  H   UNL     1      47.516   5.665  11.779  0.00  0.00    +0.000 HD
BRANCH  21  24
ATOM     24  C   UNL     1      44.985   5.130  11.723  0.00  0.00    +0.000 A 
ATOM     25  C   UNL     1      44.293   4.432  12.706  0.00  0.00    +0.000 A 
ATOM     26  S   UNL     1      43.596   2.979  12.151  0.00  0.00    +0.000 S 
ATOM     27  C   UNL     1      44.238   3.201  10.590  0.00  0.00    +0.000 A 
ATOM     28  N   UNL     1      44.029   2.282   9.613  0.00  0.00    +0.000 NA
ATOM     29  C   UNL     1      44.595   2.563   8.486  0.00  0.00    +0.000 A 
ATOM     30  N   UNL     1      45.347   3.684   8.249  0.00  0.00    +0.000 N 
ATOM     31  C   UNL     1      45.563   4.653   9.200  0.00  0.00    +0.000 A 
ATOM     32  O   UNL     1      46.208   5.663   8.943  0.00  0.00    +0.000 OA
ATOM     33  C   UNL     1      44.958   4.381  10.489  0.00  0.00    +0.000 A 
ATOM     34  H   UNL     1      45.756   3.851   7.342  0.00  0.00    +0.000 HD
ENDBRANCH  21  24
ENDBRANCH  19  20
ENDBRANCH   4  19
TORSDOF 8
ENDMDL
