MODEL 1
REMARK VINA RESULT:    -8.364      0.000      0.000
REMARK INTER + INTRA:         -11.720
REMARK INTER:                 -10.809
REMARK INTRA:                  -0.911
REMARK UNBOUND:                -0.911
REMARK  Name = 
REMARK  5 active torsions:
REMARK  status: ('A' for Active; 'I' for Inactive)
REMARK    1  A    between atoms: C_2  and  C_19
REMARK    2  A    between atoms: N_3  and  C_4
REMARK    3  A    between atoms: C_4  and  C_5
REMARK    4  A    between atoms: C_8  and  C_9
REMARK    5  A    between atoms: C_9  and  N_10
REMARK                            x       y       z     vdW  Elec       q    Type
REMARK                         _______ _______ _______ _____ _____    ______ ____
ROOT
ATOM      1  C   UNL     1      44.319   3.880  10.030  0.00  0.00    +0.000 C 
ENDROOT
BRANCH   1   2
ATOM      2  C   UNL     1      45.172   3.265   8.951  0.00  0.00    +0.000 A 
ATOM      3  C   UNL     1      45.700   4.067   7.930  0.00  0.00    +0.000 A 
ATOM      4  C   UNL     1      46.516   3.514   6.940  0.00  0.00    +0.000 A 
ATOM      5  C   UNL     1      46.804   2.143   6.936  0.00  0.00    +0.000 A 
ATOM      6  C   UNL     1      46.266   1.338   7.950  0.00  0.00    +0.000 A 
ATOM      7  C   UNL     1      45.447   1.891   8.941  0.00  0.00    +0.000 A 
BRANCH   5   8
ATOM      8  C   UNL     1      47.660   1.538   5.844  0.00  0.00    +0.000 C 
BRANCH   8   9
ATOM      9  N   UNL     1      47.026   1.710   4.540  0.00  0.00    +0.000 N 
ATOM     10  C   UNL     1      46.702   0.488   3.920  0.00  0.00    +0.000 A 
ATOM     11  C   UNL     1      46.079   0.516   2.673  0.00  0.00    +0.000 A 
ATOM     12  C   UNL     1      45.754  -0.681   2.037  0.00  0.00    +0.000 A 
ATOM     13  C   UNL     1      46.059  -1.885   2.659  0.00  0.00    +0.000 A 
ATOM     14  C   UNL     1      46.662  -1.830   3.901  0.00  0.00    +0.000 A 
ATOM     15  N   UNL     1      46.980  -0.682   4.533  0.00  0.00    +0.000 NA
ATOM     16  H   UNL     1      47.605   2.255   3.911  0.00  0.00    +0.000 HD
ENDBRANCH   8   9
ENDBRANCH   5   8
ENDBRANCH   1   2
BRANCH   1  19
ATOM     17  O   UNL     1      42.964   5.903  11.440  0.00  0.00    +0.000 OA
ATOM     18  C   UNL     1      44.176   6.004  11.272  0.00  0.00    +0.000 C 
ATOM     19  N   UNL     1      44.902   5.084  10.560  0.00  0.00    +0.000 N 
ATOM     20  H   UNL     1      45.914   5.118  10.593  0.00  0.00    +0.000 HD
BRANCH  18  21
ATOM     21  C   UNL     1      44.920   7.162  11.783  0.00  0.00    +0.000 A 
ATOM     22  C   UNL     1      44.551   8.446  11.404  0.00  0.00    +0.000 A 
ATOM     23  S   UNL     1      45.511   9.668  12.107  0.00  0.00    +0.000 S 
ATOM     24  C   UNL     1      46.427   8.525  12.974  0.00  0.00    +0.000 A 
ATOM     25  N   UNL     1      47.413   8.918  13.827  0.00  0.00    +0.000 NA
ATOM     26  C   UNL     1      47.988   7.949  14.454  0.00  0.00    +0.000 A 
ATOM     27  N   UNL     1      47.687   6.623  14.294  0.00  0.00    +0.000 N 
ATOM     28  C   UNL     1      46.767   6.176  13.374  0.00  0.00    +0.000 A 
ATOM     29  O   UNL     1      46.639   4.981  13.135  0.00  0.00    +0.000 OA
ATOM     30  C   UNL     1      46.036   7.229  12.697  0.00  0.00    +0.000 A 
ATOM     31  H   UNL     1      48.205   5.908  14.782  0.00  0.00    +0.000 HD
ENDBRANCH  18  21
ENDBRANCH   1  19
TORSDOF 5
ENDMDL
MODEL 2
REMARK VINA RESULT:    -8.253      3.312      5.589
REMARK INTER + INTRA:         -11.577
REMARK INTER:                 -10.874
REMARK INTRA:                  -0.703
REMARK UNBOUND:                -0.911
REMARK  Name = 
REMARK  5 active torsions:
REMARK  status: ('A' for Active; 'I' for Inactive)
REMARK    1  A    between atoms: C_2  and  C_19
REMARK    2  A    between atoms: N_3  and  C_4
REMARK    3  A    between atoms: C_4  and  C_5
REMARK    4  A    between atoms: C_8  and  C_9
REMARK    5  A    between atoms: C_9  and  N_10
REMARK                            x       y       z     vdW  Elec       q    Type
REMARK                         _______ _______ _______ _____ _____    ______ ____
ROOT
ATOM      1  C   UNL     1      47.083   7.122  13.084  0.00  0.00    +0.000 C 
ENDROOT
BRANCH   1   2
ATOM      2  C   UNL     1      46.338   6.107  12.256  0.00  0.00    +0.000 A 
ATOM      3  C   UNL     1      46.082   6.356  10.901  0.00  0.00    +0.000 A 
ATOM      4  C   UNL     1      45.417   5.411  10.116  0.00  0.00    +0.000 A 
ATOM      5  C   UNL     1      44.974   4.205  10.674  0.00  0.00    +0.000 A 
ATOM      6  C   UNL     1      45.218   3.960  12.033  0.00  0.00    +0.000 A 
ATOM      7  C   UNL     1      45.883   4.908  12.820  0.00  0.00    +0.000 A 
BRANCH   5   8
ATOM      8  C   UNL     1      44.224   3.195   9.832  0.00  0.00    +0.000 C 
BRANCH   8   9
ATOM      9  N   UNL     1      45.057   2.025   9.570  0.00  0.00    +0.000 N 
ATOM     10  C   UNL     1      45.772   2.118   8.361  0.00  0.00    +0.000 A 
ATOM     11  C   UNL     1      46.616   1.068   8.002  0.00  0.00    +0.000 A 
ATOM     12  C   UNL     1      47.330   1.135   6.805  0.00  0.00    +0.000 A 
ATOM     13  C   UNL     1      47.187   2.251   5.991  0.00  0.00    +0.000 A 
ATOM     14  C   UNL     1      46.344   3.256   6.423  0.00  0.00    +0.000 A 
ATOM     15  N   UNL     1      45.649   3.211   7.579  0.00  0.00    +0.000 NA
ATOM     16  H   UNL     1      44.511   1.170   9.565  0.00  0.00    +0.000 HD
ENDBRANCH   8   9
ENDBRANCH   5   8
ENDBRANCH   1   2
BRANCH   1  19
ATOM     17  O   UNL     1      49.647   6.953  14.231  0.00  0.00    +0.000 OA
ATOM     18  C   UNL     1      48.674   6.611  14.897  0.00  0.00    +0.000 C 
ATOM     19  N   UNL     1      47.397   6.623  14.398  0.00  0.00    +0.000 N 
ATOM     20  H   UNL     1      46.616   6.498  15.030  0.00  0.00    +0.000 HD
BRANCH  18  21
ATOM     21  C   UNL     1      48.830   6.110  16.268  0.00  0.00    +0.000 A 
ATOM     22  C   UNL     1      49.444   6.901  17.229  0.00  0.00    +0.000 A 
ATOM     23  S   UNL     1      49.523   6.169  18.768  0.00  0.00    +0.000 S 
ATOM     24  C   UNL     1      48.701   4.785  18.211  0.00  0.00    +0.000 A 
ATOM     25  N   UNL     1      48.395   3.764  19.057  0.00  0.00    +0.000 NA
ATOM     26  C   UNL     1      47.728   2.805  18.510  0.00  0.00    +0.000 A 
ATOM     27  N   UNL     1      47.355   2.761  17.193  0.00  0.00    +0.000 N 
ATOM     28  C   UNL     1      47.725   3.724  16.284  0.00  0.00    +0.000 A 
ATOM     29  O   UNL     1      47.521   3.574  15.085  0.00  0.00    +0.000 OA
ATOM     30  C   UNL     1      48.412   4.862  16.862  0.00  0.00    +0.000 A 
ATOM     31  H   UNL     1      46.871   1.961  16.815  0.00  0.00    +0.000 HD
ENDBRANCH  18  21
ENDBRANCH   1  19
TORSDOF 5
ENDMDL
MODEL 3
REMARK VINA RESULT:    -7.670      3.882      6.343
REMARK INTER + INTRA:         -10.823
REMARK INTER:                 -10.191
REMARK INTRA:                  -0.632
REMARK UNBOUND:                -0.911
REMARK  Name = 
REMARK  5 active torsions:
REMARK  status: ('A' for Active; 'I' for Inactive)
REMARK    1  A    between atoms: C_2  and  C_19
REMARK    2  A    between atoms: N_3  and  C_4
REMARK    3  A    between atoms: C_4  and  C_5
REMARK    4  A    between atoms: C_8  and  C_9
REMARK    5  A    between atoms: C_9  and  N_10
REMARK                            x       y       z     vdW  Elec       q    Type
REMARK                         _______ _______ _______ _____ _____    ______ ____
ROOT
ATOM      1  C   UNL     1      47.720   6.642  13.763  0.00  0.00    +0.000 C 
ENDROOT
BRANCH   1   2
ATOM      2  C   UNL     1      46.790   5.875  12.859  0.00  0.00    +0.000 A 
ATOM      3  C   UNL     1      46.380   4.581  13.207  0.00  0.00    +0.000 A 
ATOM      4  C   UNL     1      45.495   3.870  12.392  0.00  0.00    +0.000 A 
ATOM      5  C   UNL     1      45.017   4.430  11.200  0.00  0.00    +0.000 A 
ATOM      6  C   UNL     1      45.437   5.720  10.845  0.00  0.00    +0.000 A 
ATOM      7  C   UNL     1      46.324   6.431  11.660  0.00  0.00    +0.000 A 
BRANCH   5   8
ATOM      8  C   UNL     1      44.085   3.647  10.300  0.00  0.00    +0.000 C 
BRANCH   8   9
ATOM      9  N   UNL     1      44.678   2.362   9.940  0.00  0.00    +0.000 N 
ATOM     10  C   UNL     1      45.451   2.422   8.766  0.00  0.00    +0.000 A 
ATOM     11  C   UNL     1      46.083   1.261   8.322  0.00  0.00    +0.000 A 
ATOM     12  C   UNL     1      46.849   1.294   7.157  0.00  0.00    +0.000 A 
ATOM     13  C   UNL     1      46.969   2.488   6.457  0.00  0.00    +0.000 A 
ATOM     14  C   UNL     1      46.326   3.599   6.969  0.00  0.00    +0.000 A 
ATOM     15  N   UNL     1      45.585   3.587   8.096  0.00  0.00    +0.000 NA
ATOM     16  H   UNL     1      43.973   1.641   9.834  0.00  0.00    +0.000 HD
ENDBRANCH   8   9
ENDBRANCH   5   8
ENDBRANCH   1   2
BRANCH   1  19
ATOM     17  O   UNL     1      49.909   6.508  15.526  0.00  0.00    +0.000 OA
ATOM     18  C   UNL     1      48.803   6.149  15.922  0.00  0.00    +0.000 C 
ATOM     19  N   UNL     1      47.696   6.143  15.113  0.00  0.00    +0.000 N 
ATOM     20  H   UNL     1      46.781   6.004  15.525  0.00  0.00    +0.000 HD
BRANCH  18  21
ATOM     21  C   UNL     1      48.611   5.646  17.287  0.00  0.00    +0.000 A 
ATOM     22  C   UNL     1      48.805   4.299  17.563  0.00  0.00    +0.000 A 
ATOM     23  S   UNL     1      48.558   3.895  19.202  0.00  0.00    +0.000 S 
ATOM     24  C   UNL     1      48.223   5.514  19.607  0.00  0.00    +0.000 A 
ATOM     25  N   UNL     1      47.965   5.877  20.893  0.00  0.00    +0.000 NA
ATOM     26  C   UNL     1      47.780   7.142  21.060  0.00  0.00    +0.000 A 
ATOM     27  N   UNL     1      47.806   8.077  20.060  0.00  0.00    +0.000 N 
ATOM     28  C   UNL     1      47.966   7.743  18.735  0.00  0.00    +0.000 A 
ATOM     29  O   UNL     1      47.818   8.577  17.850  0.00  0.00    +0.000 OA
ATOM     30  C   UNL     1      48.255   6.342  18.501  0.00  0.00    +0.000 A 
ATOM     31  H   UNL     1      47.608   9.048  20.249  0.00  0.00    +0.000 HD
ENDBRANCH  18  21
ENDBRANCH   1  19
TORSDOF 5
ENDMDL
MODEL 4
REMARK VINA RESULT:    -7.476      3.057      4.905
REMARK INTER + INTRA:         -10.573
REMARK INTER:                  -9.565
REMARK INTRA:                  -1.007
REMARK UNBOUND:                -0.911
REMARK  Name = 
REMARK  5 active torsions:
REMARK  status: ('A' for Active; 'I' for Inactive)
REMARK    1  A    between atoms: C_2  and  C_19
REMARK    2  A    between atoms: N_3  and  C_4
REMARK    3  A    between atoms: C_4  and  C_5
REMARK    4  A    between atoms: C_8  and  C_9
REMARK    5  A    between atoms: C_9  and  N_10
REMARK                            x       y       z     vdW  Elec       q    Type
REMARK                         _______ _______ _______ _____ _____    ______ ____
ROOT
ATOM      1  C   UNL     1      47.028   5.305  14.348  0.00  0.00    +0.000 C 
ENDROOT
BRANCH   1   2
ATOM      2  C   UNL     1      46.305   4.870  13.099  0.00  0.00    +0.000 A 
ATOM      3  C   UNL     1      46.075   5.787  12.065  0.00  0.00    +0.000 A 
ATOM      4  C   UNL     1      45.432   5.388  10.890  0.00  0.00    +0.000 A 
ATOM      5  C   UNL     1      44.984   4.071  10.734  0.00  0.00    +0.000 A 
ATOM      6  C   UNL     1      45.202   3.156  11.774  0.00  0.00    +0.000 A 
ATOM      7  C   UNL     1      45.845   3.555  12.951  0.00  0.00    +0.000 A 
BRANCH   5   8
ATOM      8  C   UNL     1      44.256   3.648   9.475  0.00  0.00    +0.000 C 
BRANCH   8   9
ATOM      9  N   UNL     1      44.967   4.118   8.289  0.00  0.00    +0.000 N 
ATOM     10  C   UNL     1      45.802   3.137   7.723  0.00  0.00    +0.000 A 
ATOM     11  C   UNL     1      46.527   3.457   6.576  0.00  0.00    +0.000 A 
ATOM     12  C   UNL     1      47.367   2.504   6.001  0.00  0.00    +0.000 A 
ATOM     13  C   UNL     1      47.465   1.247   6.583  0.00  0.00    +0.000 A 
ATOM     14  C   UNL     1      46.704   1.000   7.709  0.00  0.00    +0.000 A 
ATOM     15  N   UNL     1      45.883   1.909   8.277  0.00  0.00    +0.000 NA
ATOM     16  H   UNL     1      45.518   4.946   8.486  0.00  0.00    +0.000 HD
ENDBRANCH   8   9
ENDBRANCH   5   8
ENDBRANCH   1   2
BRANCH   1  19
ATOM     17  O   UNL     1      49.457   6.393  15.262  0.00  0.00    +0.000 OA
ATOM     18  C   UNL     1      48.637   7.134  14.728  0.00  0.00    +0.000 C 
ATOM     19  N   UNL     1      47.414   6.691  14.295  0.00  0.00    +0.000 N 
ATOM     20  H   UNL     1      46.845   7.294  13.712  0.00  0.00    +0.000 HD
BRANCH  18  21
ATOM     21  C   UNL     1      48.899   8.570  14.571  0.00  0.00    +0.000 A 
ATOM     22  C   UNL     1      48.974   9.387  15.690  0.00  0.00    +0.000 A 
ATOM     23  S   UNL     1      49.304  11.020  15.323  0.00  0.00    +0.000 S 
ATOM     24  C   UNL     1      49.398  10.683  13.657  0.00  0.00    +0.000 A 
ATOM     25  N   UNL     1      49.704  11.659  12.760  0.00  0.00    +0.000 NA
ATOM     26  C   UNL     1      49.792  11.250  11.540  0.00  0.00    +0.000 A 
ATOM     27  N   UNL     1      49.581   9.960  11.129  0.00  0.00    +0.000 N 
ATOM     28  C   UNL     1      49.177   8.964  11.986  0.00  0.00    +0.000 A 
ATOM     29  O   UNL     1      48.835   7.865  11.564  0.00  0.00    +0.000 OA
ATOM     30  C   UNL     1      49.138   9.354  13.382  0.00  0.00    +0.000 A 
ATOM     31  H   UNL     1      49.621   9.712  10.152  0.00  0.00    +0.000 HD
ENDBRANCH  18  21
ENDBRANCH   1  19
TORSDOF 5
ENDMDL
MODEL 5
REMARK VINA RESULT:    -7.184      5.745     10.053
REMARK INTER + INTRA:         -10.195
REMARK INTER:                  -9.181
REMARK INTRA:                  -1.014
REMARK UNBOUND:                -0.911
REMARK  Name = 
REMARK  5 active torsions:
REMARK  status: ('A' for Active; 'I' for Inactive)
REMARK    1  A    between atoms: C_2  and  C_19
REMARK    2  A    between atoms: N_3  and  C_4
REMARK    3  A    between atoms: C_4  and  C_5
REMARK    4  A    between atoms: C_8  and  C_9
REMARK    5  A    between atoms: C_9  and  N_10
REMARK                            x       y       z     vdW  Elec       q    Type
REMARK                         _______ _______ _______ _____ _____    ______ ____
ROOT
ATOM      1  C   UNL     1      48.414   7.611  14.279  0.00  0.00    +0.000 C 
ENDROOT
BRANCH   1   2
ATOM      2  C   UNL     1      48.989   6.743  15.368  0.00  0.00    +0.000 A 
ATOM      3  C   UNL     1      50.310   6.934  15.795  0.00  0.00    +0.000 A 
ATOM      4  C   UNL     1      50.846   6.155  16.825  0.00  0.00    +0.000 A 
ATOM      5  C   UNL     1      50.080   5.154  17.433  0.00  0.00    +0.000 A 
ATOM      6  C   UNL     1      48.762   4.953  16.998  0.00  0.00    +0.000 A 
ATOM      7  C   UNL     1      48.226   5.732  15.967  0.00  0.00    +0.000 A 
BRANCH   5   8
ATOM      8  C   UNL     1      50.671   4.287  18.525  0.00  0.00    +0.000 C 
BRANCH   8   9
ATOM      9  N   UNL     1      50.696   2.886  18.110  0.00  0.00    +0.000 N 
ATOM     10  C   UNL     1      51.997   2.405  17.874  0.00  0.00    +0.000 A 
ATOM     11  C   UNL     1      52.157   1.076  17.485  0.00  0.00    +0.000 A 
ATOM     12  C   UNL     1      53.437   0.577  17.240  0.00  0.00    +0.000 A 
ATOM     13  C   UNL     1      54.532   1.417  17.388  0.00  0.00    +0.000 A 
ATOM     14  C   UNL     1      54.294   2.717  17.792  0.00  0.00    +0.000 A 
ATOM     15  N   UNL     1      53.064   3.215  18.038  0.00  0.00    +0.000 NA
ATOM     16  H   UNL     1      50.132   2.731  17.282  0.00  0.00    +0.000 HD
ENDBRANCH   8   9
ENDBRANCH   5   8
ENDBRANCH   1   2
BRANCH   1  19
ATOM     17  O   UNL     1      47.695   7.247  11.583  0.00  0.00    +0.000 OA
ATOM     18  C   UNL     1      46.899   6.922  12.460  0.00  0.00    +0.000 C 
ATOM     19  N   UNL     1      47.155   7.107  13.794  0.00  0.00    +0.000 N 
ATOM     20  H   UNL     1      46.550   6.672  14.481  0.00  0.00    +0.000 HD
BRANCH  18  21
ATOM     21  C   UNL     1      45.584   6.361  12.124  0.00  0.00    +0.000 A 
ATOM     22  C   UNL     1      44.608   7.172  11.560  0.00  0.00    +0.000 A 
ATOM     23  S   UNL     1      43.153   6.352  11.218  0.00  0.00    +0.000 S 
ATOM     24  C   UNL     1      43.791   4.875  11.773  0.00  0.00    +0.000 A 
ATOM     25  N   UNL     1      43.060   3.728  11.715  0.00  0.00    +0.000 NA
ATOM     26  C   UNL     1      43.688   2.678  12.122  0.00  0.00    +0.000 A 
ATOM     27  N   UNL     1      44.971   2.668  12.602  0.00  0.00    +0.000 N 
ATOM     28  C   UNL     1      45.710   3.815  12.768  0.00  0.00    +0.000 A 
ATOM     29  O   UNL     1      46.787   3.796  13.354  0.00  0.00    +0.000 OA
ATOM     30  C   UNL     1      45.079   5.015  12.255  0.00  0.00    +0.000 A 
ATOM     31  H   UNL     1      45.391   1.819  12.948  0.00  0.00    +0.000 HD
ENDBRANCH  18  21
ENDBRANCH   1  19
TORSDOF 5
ENDMDL
MODEL 6
REMARK VINA RESULT:    -7.042      4.453      7.936
REMARK INTER + INTRA:         -10.011
REMARK INTER:                  -9.123
REMARK INTRA:                  -0.888
REMARK UNBOUND:                -0.911
REMARK  Name = 
REMARK  5 active torsions:
REMARK  status: ('A' for Active; 'I' for Inactive)
REMARK    1  A    between atoms: C_2  and  C_19
REMARK    2  A    between atoms: N_3  and  C_4
REMARK    3  A    between atoms: C_4  and  C_5
REMARK    4  A    between atoms: C_8  and  C_9
REMARK    5  A    between atoms: C_9  and  N_10
REMARK                            x       y       z     vdW  Elec       q    Type
REMARK                         _______ _______ _______ _____ _____    ______ ____
ROOT
ATOM      1  C   UNL     1      46.578   8.214  12.940  0.00  0.00    +0.000 C 
ENDROOT
BRANCH   1   2
ATOM      2  C   UNL     1      47.980   8.369  12.411  0.00  0.00    +0.000 A 
ATOM      3  C   UNL     1      48.840   7.264  12.363  0.00  0.00    +0.000 A 
ATOM      4  C   UNL     1      50.133   7.388  11.847  0.00  0.00    +0.000 A 
ATOM      5  C   UNL     1      50.602   8.626  11.390  0.00  0.00    +0.000 A 
ATOM      6  C   UNL     1      49.746   9.736  11.450  0.00  0.00    +0.000 A 
ATOM      7  C   UNL     1      48.452   9.612  11.968  0.00  0.00    +0.000 A 
BRANCH   5   8
ATOM      8  C   UNL     1      52.014   8.769  10.864  0.00  0.00    +0.000 C 
BRANCH   8   9
ATOM      9  N   UNL     1      52.724   7.496  10.947  0.00  0.00    +0.000 N 
ATOM     10  C   UNL     1      52.972   6.920   9.687  0.00  0.00    +0.000 A 
ATOM     11  C   UNL     1      53.656   5.707   9.629  0.00  0.00    +0.000 A 
ATOM     12  C   UNL     1      53.907   5.114   8.392  0.00  0.00    +0.000 A 
ATOM     13  C   UNL     1      53.471   5.746   7.235  0.00  0.00    +0.000 A 
ATOM     14  C   UNL     1      52.815   6.954   7.373  0.00  0.00    +0.000 A 
ATOM     15  N   UNL     1      52.566   7.544   8.561  0.00  0.00    +0.000 NA
ATOM     16  H   UNL     1      52.225   6.826  11.523  0.00  0.00    +0.000 HD
ENDBRANCH   8   9
ENDBRANCH   5   8
ENDBRANCH   1   2
BRANCH   1  19
ATOM     17  O   UNL     1      44.463   7.627  11.179  0.00  0.00    +0.000 OA
ATOM     18  C   UNL     1      45.028   6.704  11.760  0.00  0.00    +0.000 C 
ATOM     19  N   UNL     1      46.037   6.909  12.665  0.00  0.00    +0.000 N 
ATOM     20  H   UNL     1      46.583   6.118  12.987  0.00  0.00    +0.000 HD
BRANCH  18  21
ATOM     21  C   UNL     1      44.612   5.311  11.557  0.00  0.00    +0.000 A 
ATOM     22  C   UNL     1      43.900   4.648  12.548  0.00  0.00    +0.000 A 
ATOM     23  S   UNL     1      43.484   3.047  12.136  0.00  0.00    +0.000 S 
ATOM     24  C   UNL     1      44.205   3.197  10.601  0.00  0.00    +0.000 A 
ATOM     25  N   UNL     1      44.163   2.175   9.703  0.00  0.00    +0.000 NA
ATOM     26  C   UNL     1      44.704   2.446   8.565  0.00  0.00    +0.000 A 
ATOM     27  N   UNL     1      45.302   3.636   8.245  0.00  0.00    +0.000 N 
ATOM     28  C   UNL     1      45.452   4.659   9.152  0.00  0.00    +0.000 A 
ATOM     29  O   UNL     1      46.136   5.642   8.891  0.00  0.00    +0.000 OA
ATOM     30  C   UNL     1      44.793   4.434  10.424  0.00  0.00    +0.000 A 
ATOM     31  H   UNL     1      45.748   3.772   7.351  0.00  0.00    +0.000 HD
ENDBRANCH  18  21
ENDBRANCH   1  19
TORSDOF 5
ENDMDL
MODEL 7
REMARK VINA RESULT:    -7.015      7.185      9.294
REMARK INTER + INTRA:          -9.977
REMARK INTER:                  -9.301
REMARK INTRA:                  -0.676
REMARK UNBOUND:                -0.911
REMARK  Name = 
REMARK  5 active torsions:
REMARK  status: ('A' for Active; 'I' for Inactive)
REMARK    1  A    between atoms: C_2  and  C_19
REMARK    2  A    between atoms: N_3  and  C_4
REMARK    3  A    between atoms: C_4  and  C_5
REMARK    4  A    between atoms: C_8  and  C_9
REMARK    5  A    between atoms: C_9  and  N_10
REMARK                            x       y       z     vdW  Elec       q    Type
REMARK                         _______ _______ _______ _____ _____    ______ ____
ROOT
ATOM      1  C   UNL     1      46.398   4.117  14.216  0.00  0.00    +0.000 C 
ENDROOT
BRANCH   1   2
ATOM      2  C   UNL     1      45.931   5.309  13.421  0.00  0.00    +0.000 A 
ATOM      3  C   UNL     1      46.823   6.346  13.119  0.00  0.00    +0.000 A 
ATOM      4  C   UNL     1      46.410   7.443  12.358  0.00  0.00    +0.000 A 
ATOM      5  C   UNL     1      45.089   7.538  11.902  0.00  0.00    +0.000 A 
ATOM      6  C   UNL     1      44.192   6.506  12.215  0.00  0.00    +0.000 A 
ATOM      7  C   UNL     1      44.605   5.408  12.978  0.00  0.00    +0.000 A 
BRANCH   5   8
ATOM      8  C   UNL     1      44.632   8.742  11.107  0.00  0.00    +0.000 C 
BRANCH   8   9
ATOM      9  N   UNL     1      43.174   8.786  11.035  0.00  0.00    +0.000 N 
ATOM     10  C   UNL     1      42.679  10.048  10.656  0.00  0.00    +0.000 A 
ATOM     11  C   UNL     1      41.300  10.217  10.537  0.00  0.00    +0.000 A 
ATOM     12  C   UNL     1      40.786  11.459  10.169  0.00  0.00    +0.000 A 
ATOM     13  C   UNL     1      41.660  12.510   9.925  0.00  0.00    +0.000 A 
ATOM     14  C   UNL     1      43.014  12.260  10.047  0.00  0.00    +0.000 A 
ATOM     15  N   UNL     1      43.529  11.064  10.399  0.00  0.00    +0.000 NA
ATOM     16  H   UNL     1      42.747   8.516  11.915  0.00  0.00    +0.000 HD
ENDBRANCH   8   9
ENDBRANCH   5   8
ENDBRANCH   1   2
BRANCH   1  19
ATOM     17  O   UNL     1      46.603   3.404  16.930  0.00  0.00    +0.000 OA
ATOM     18  C   UNL     1      47.522   4.028  16.408  0.00  0.00    +0.000 C 
ATOM     19  N   UNL     1      47.481   4.450  15.104  0.00  0.00    +0.000 N 
ATOM     20  H   UNL     1      48.325   4.807  14.671  0.00  0.00    +0.000 HD
BRANCH  18  21
ATOM     21  C   UNL     1      48.712   4.413  17.177  0.00  0.00    +0.000 A 
ATOM     22  C   UNL     1      48.758   5.648  17.810  0.00  0.00    +0.000 A 
ATOM     23  S   UNL     1      50.205   5.920  18.671  0.00  0.00    +0.000 S 
ATOM     24  C   UNL     1      50.803   4.379  18.261  0.00  0.00    +0.000 A 
ATOM     25  N   UNL     1      52.007   3.947  18.726  0.00  0.00    +0.000 NA
ATOM     26  C   UNL     1      52.308   2.743  18.377  0.00  0.00    +0.000 A 
ATOM     27  N   UNL     1      51.530   1.936  17.590  0.00  0.00    +0.000 N 
ATOM     28  C   UNL     1      50.354   2.366  17.020  0.00  0.00    +0.000 A 
ATOM     29  O   UNL     1      49.767   1.683  16.189  0.00  0.00    +0.000 OA
ATOM     30  C   UNL     1      49.931   3.687  17.442  0.00  0.00    +0.000 A 
ATOM     31  H   UNL     1      51.843   1.018  17.315  0.00  0.00    +0.000 HD
ENDBRANCH  18  21
ENDBRANCH   1  19
TORSDOF 5
ENDMDL
MODEL 8
REMARK VINA RESULT:    -6.882      3.592      6.032
REMARK INTER + INTRA:          -9.805
REMARK INTER:                  -9.040
REMARK INTRA:                  -0.765
REMARK UNBOUND:                -0.911
REMARK  Name = 
REMARK  5 active torsions:
REMARK  status: ('A' for Active; 'I' for Inactive)
REMARK    1  A    between atoms: C_2  and  C_19
REMARK    2  A    between atoms: N_3  and  C_4
REMARK    3  A    between atoms: C_4  and  C_5
REMARK    4  A    between atoms: C_8  and  C_9
REMARK    5  A    between atoms: C_9  and  N_10
REMARK                            x       y       z     vdW  Elec       q    Type
REMARK                         _______ _______ _______ _____ _____    ______ ____
ROOT
ATOM      1  C   UNL     1      47.816   4.644  15.181  0.00  0.00    +0.000 C 
ENDROOT
BRANCH   1   2
ATOM      2  C   UNL     1      46.949   4.678  13.949  0.00  0.00    +0.000 A 
ATOM      3  C   UNL     1      46.821   5.863  13.212  0.00  0.00    +0.000 A 
ATOM      4  C   UNL     1      46.043   5.900  12.051  0.00  0.00    +0.000 A 
ATOM      5  C   UNL     1      45.357   4.759  11.616  0.00  0.00    +0.000 A 
ATOM      6  C   UNL     1      45.474   3.576  12.361  0.00  0.00    +0.000 A 
ATOM      7  C   UNL     1      46.252   3.539  13.523  0.00  0.00    +0.000 A 
BRANCH   5   8
ATOM      8  C   UNL     1      44.487   4.808  10.379  0.00  0.00    +0.000 C 
BRANCH   8   9
ATOM      9  N   UNL     1      45.293   5.095   9.195  0.00  0.00    +0.000 N 
ATOM     10  C   UNL     1      45.765   3.933   8.556  0.00  0.00    +0.000 A 
ATOM     11  C   UNL     1      46.538   4.071   7.404  0.00  0.00    +0.000 A 
ATOM     12  C   UNL     1      47.023   2.935   6.757  0.00  0.00    +0.000 A 
ATOM     13  C   UNL     1      46.725   1.681   7.273  0.00  0.00    +0.000 A 
ATOM     14  C   UNL     1      45.940   1.625   8.409  0.00  0.00    +0.000 A 
ATOM     15  N   UNL     1      45.459   2.713   9.046  0.00  0.00    +0.000 NA
ATOM     16  H   UNL     1      46.082   5.693   9.416  0.00  0.00    +0.000 HD
ENDBRANCH   8   9
ENDBRANCH   5   8
ENDBRANCH   1   2
BRANCH   1  19
ATOM     17  O   UNL     1      49.990   6.386  15.577  0.00  0.00    +0.000 OA
ATOM     18  C   UNL     1      48.886   6.704  16.012  0.00  0.00    +0.000 C 
ATOM     19  N   UNL     1      47.787   5.892  15.898  0.00  0.00    +0.000 N 
ATOM     20  H   UNL     1      46.870   6.264  16.117  0.00  0.00    +0.000 HD
BRANCH  18  21
ATOM     21  C   UNL     1      48.689   7.964  16.738  0.00  0.00    +0.000 A 
ATOM     22  C   UNL     1      48.885   9.176  16.089  0.00  0.00    +0.000 A 
ATOM     23  S   UNL     1      48.594  10.535  17.077  0.00  0.00    +0.000 S 
ATOM     24  C   UNL     1      48.158   9.550  18.396  0.00  0.00    +0.000 A 
ATOM     25  N   UNL     1      47.747  10.096  19.573  0.00  0.00    +0.000 NA
ATOM     26  C   UNL     1      47.399   9.232  20.465  0.00  0.00    +0.000 A 
ATOM     27  N   UNL     1      47.443   7.873  20.300  0.00  0.00    +0.000 N 
ATOM     28  C   UNL     1      47.942   7.279  19.164  0.00  0.00    +0.000 A 
ATOM     29  O   UNL     1      48.125   6.069  19.111  0.00  0.00    +0.000 OA
ATOM     30  C   UNL     1      48.276   8.206  18.100  0.00  0.00    +0.000 A 
ATOM     31  H   UNL     1      47.200   7.248  21.053  0.00  0.00    +0.000 HD
ENDBRANCH  18  21
ENDBRANCH   1  19
TORSDOF 5
ENDMDL
MODEL 9
REMARK VINA RESULT:    -6.609      7.023      9.389
REMARK INTER + INTRA:          -9.453
REMARK INTER:                  -8.518
REMARK INTRA:                  -0.935
REMARK UNBOUND:                -0.911
REMARK  Name = 
REMARK  5 active torsions:
REMARK  status: ('A' for Active; 'I' for Inactive)
REMARK    1  A    between atoms: C_2  and  C_19
REMARK    2  A    between atoms: N_3  and  C_4
REMARK    3  A    between atoms: C_4  and  C_5
REMARK    4  A    between atoms: C_8  and  C_9
REMARK    5  A    between atoms: C_9  and  N_10
REMARK                            x       y       z     vdW  Elec       q    Type
REMARK                         _______ _______ _______ _____ _____    ______ ____
ROOT
ATOM      1  C   UNL     1      46.234   5.343  13.081  0.00  0.00    +0.000 C 
ENDROOT
BRANCH   1   2
ATOM      2  C   UNL     1      45.791   6.719  12.656  0.00  0.00    +0.000 A 
ATOM      3  C   UNL     1      46.448   7.853  13.152  0.00  0.00    +0.000 A 
ATOM      4  C   UNL     1      46.066   9.134  12.744  0.00  0.00    +0.000 A 
ATOM      5  C   UNL     1      45.003   9.309  11.849  0.00  0.00    +0.000 A 
ATOM      6  C   UNL     1      44.337   8.176  11.362  0.00  0.00    +0.000 A 
ATOM      7  C   UNL     1      44.718   6.893  11.772  0.00  0.00    +0.000 A 
BRANCH   5   8
ATOM      8  C   UNL     1      44.567  10.698  11.433  0.00  0.00    +0.000 C 
BRANCH   8   9
ATOM      9  N   UNL     1      43.555  10.625  10.382  0.00  0.00    +0.000 N 
ATOM     10  C   UNL     1      42.272  10.993  10.827  0.00  0.00    +0.000 A 
ATOM     11  C   UNL     1      41.218  10.978   9.914  0.00  0.00    +0.000 A 
ATOM     12  C   UNL     1      39.936  11.333  10.332  0.00  0.00    +0.000 A 
ATOM     13  C   UNL     1      39.731  11.698  11.656  0.00  0.00    +0.000 A 
ATOM     14  C   UNL     1      40.828  11.704  12.497  0.00  0.00    +0.000 A 
ATOM     15  N   UNL     1      42.076  11.368  12.109  0.00  0.00    +0.000 NA
ATOM     16  H   UNL     1      43.508   9.698   9.972  0.00  0.00    +0.000 HD
ENDBRANCH   8   9
ENDBRANCH   5   8
ENDBRANCH   1   2
BRANCH   1  19
ATOM     17  O   UNL     1      47.370   3.135  14.404  0.00  0.00    +0.000 OA
ATOM     18  C   UNL     1      47.344   4.222  14.975  0.00  0.00    +0.000 C 
ATOM     19  N   UNL     1      46.770   5.335  14.417  0.00  0.00    +0.000 N 
ATOM     20  H   UNL     1      46.922   6.240  14.846  0.00  0.00    +0.000 HD
BRANCH  18  21
ATOM     21  C   UNL     1      47.883   4.381  16.331  0.00  0.00    +0.000 A 
ATOM     22  C   UNL     1      47.453   3.543  17.351  0.00  0.00    +0.000 A 
ATOM     23  S   UNL     1      48.197   3.858  18.853  0.00  0.00    +0.000 S 
ATOM     24  C   UNL     1      49.150   5.099  18.183  0.00  0.00    +0.000 A 
ATOM     25  N   UNL     1      50.062   5.769  18.938  0.00  0.00    +0.000 NA
ATOM     26  C   UNL     1      50.748   6.646  18.288  0.00  0.00    +0.000 A 
ATOM     27  N   UNL     1      50.593   6.932  16.957  0.00  0.00    +0.000 N 
ATOM     28  C   UNL     1      49.620   6.349  16.180  0.00  0.00    +0.000 A 
ATOM     29  O   UNL     1      49.397   6.745  15.042  0.00  0.00    +0.000 OA
ATOM     30  C   UNL     1      48.871   5.300  16.844  0.00  0.00    +0.000 A 
ATOM     31  H   UNL     1      51.131   7.662  16.516  0.00  0.00    +0.000 HD
ENDBRANCH  18  21
ENDBRANCH   1  19
TORSDOF 5
ENDMDL
