MODEL 1
REMARK VINA RESULT:    -8.657      0.000      0.000
REMARK INTER + INTRA:         -11.252
REMARK INTER:                 -11.188
REMARK INTRA:                  -0.065
REMARK UNBOUND:                -0.065
REMARK  Name = 
REMARK  6 active torsions:
REMARK  status: ('A' for Active; 'I' for Inactive)
REMARK    1  A    between atoms: C_1  and  C_2
REMARK    2  A    between atoms: C_2  and  N_3
REMARK    3  A    between atoms: C_2  and  C_16
REMARK    4  A    between atoms: C_4  and  C_6
REMARK    5  A    between atoms: C_19  and  O_20
REMARK    6  A    between atoms: O_20  and  C_21
REMARK                            x       y       z     vdW  Elec       q    Type
REMARK                         _______ _______ _______ _____ _____    ______ ____
ROOT
ATOM      1  C   UNL     1      43.007   5.029  12.852  0.00  0.00    +0.000 C 
ATOM      2  C   UNL     1      44.376   4.362  12.678  0.00  0.00    +0.000 C 
ENDROOT
BRANCH   2   3
ATOM      3  C   UNL     1      44.879   4.400  11.245  0.00  0.00    +0.000 A 
ATOM      4  C   UNL     1      44.653   3.288  10.416  0.00  0.00    +0.000 A 
ATOM      5  C   UNL     1      45.121   3.275   9.102  0.00  0.00    +0.000 A 
ATOM      6  C   UNL     1      45.788   4.384   8.582  0.00  0.00    +0.000 A 
ATOM      7  C   UNL     1      46.068   5.471   9.411  0.00  0.00    +0.000 A 
ATOM      8  C   UNL     1      45.625   5.474  10.735  0.00  0.00    +0.000 A 
BRANCH   6   9
ATOM      9  O   UNL     1      46.284   4.457   7.300  0.00  0.00    +0.000 OA
BRANCH   9  10
ATOM     10  C   UNL     1      46.578   3.273   6.636  0.00  0.00    +0.000 A 
ATOM     11  C   UNL     1      46.928   2.194   7.436  0.00  0.00    +0.000 A 
ATOM     12  C   UNL     1      47.200   0.974   6.820  0.00  0.00    +0.000 A 
ATOM     13  C   UNL     1      47.120   0.879   5.435  0.00  0.00    +0.000 A 
ATOM     14 CL   UNL     1      47.407  -0.613   4.640  0.00  0.00    +0.000 Cl
ATOM     15  C   UNL     1      46.795   2.017   4.715  0.00  0.00    +0.000 A 
ATOM     16  N   UNL     1      46.538   3.217   5.285  0.00  0.00    +0.000 NA
ENDBRANCH   9  10
ENDBRANCH   6   9
ENDBRANCH   2   3
BRANCH   2  17
ATOM     17  N   UNL     1      45.373   4.975  13.532  0.00  0.00    +0.000 N 
ATOM     18  C   UNL     1      46.475   4.319  14.006  0.00  0.00    +0.000 C 
ATOM     19  O   UNL     1      46.693   3.140  13.734  0.00  0.00    +0.000 OA
ATOM     20  H   UNL     1      45.230   5.954  13.753  0.00  0.00    +0.000 HD
BRANCH  18  21
ATOM     21  C   UNL     1      47.396   5.087  14.866  0.00  0.00    +0.000 A 
ATOM     22  C   UNL     1      48.089   6.164  14.327  0.00  0.00    +0.000 A 
ATOM     23  S   UNL     1      49.155   6.920  15.421  0.00  0.00    +0.000 S 
ATOM     24  C   UNL     1      48.733   5.838  16.663  0.00  0.00    +0.000 A 
ATOM     25  N   UNL     1      49.331   5.917  17.883  0.00  0.00    +0.000 NA
ATOM     26  C   UNL     1      48.926   5.036  18.735  0.00  0.00    +0.000 A 
ATOM     27  N   UNL     1      47.965   4.094  18.482  0.00  0.00    +0.000 N 
ATOM     28  C   UNL     1      47.320   3.991  17.273  0.00  0.00    +0.000 A 
ATOM     29  O   UNL     1      46.438   3.155  17.103  0.00  0.00    +0.000 OA
ATOM     30  C   UNL     1      47.766   4.931  16.260  0.00  0.00    +0.000 A 
ATOM     31  H   UNL     1      47.673   3.445  19.198  0.00  0.00    +0.000 HD
ENDBRANCH  18  21
ENDBRANCH   2  17
TORSDOF 5
ENDMDL
MODEL 2
REMARK VINA RESULT:    -8.440      1.950      2.742
REMARK INTER + INTRA:         -10.972
REMARK INTER:                 -10.865
REMARK INTRA:                  -0.107
REMARK UNBOUND:                -0.065
REMARK  Name = 
REMARK  6 active torsions:
REMARK  status: ('A' for Active; 'I' for Inactive)
REMARK    1  A    between atoms: C_1  and  C_2
REMARK    2  A    between atoms: C_2  and  N_3
REMARK    3  A    between atoms: C_2  and  C_16
REMARK    4  A    between atoms: C_4  and  C_6
REMARK    5  A    between atoms: C_19  and  O_20
REMARK    6  A    between atoms: O_20  and  C_21
REMARK                            x       y       z     vdW  Elec       q    Type
REMARK                         _______ _______ _______ _____ _____    ______ ____
ROOT
ATOM      1  C   UNL     1      47.301   8.673  12.060  0.00  0.00    +0.000 C 
ATOM      2  C   UNL     1      46.345   7.765  12.841  0.00  0.00    +0.000 C 
ENDROOT
BRANCH   2   3
ATOM      3  C   UNL     1      45.859   6.575  12.030  0.00  0.00    +0.000 A 
ATOM      4  C   UNL     1      46.266   6.454  10.691  0.00  0.00    +0.000 A 
ATOM      5  C   UNL     1      45.821   5.389   9.907  0.00  0.00    +0.000 A 
ATOM      6  C   UNL     1      44.994   4.409  10.457  0.00  0.00    +0.000 A 
ATOM      7  C   UNL     1      44.537   4.548  11.767  0.00  0.00    +0.000 A 
ATOM      8  C   UNL     1      44.959   5.629  12.545  0.00  0.00    +0.000 A 
BRANCH   6   9
ATOM      9  O   UNL     1      44.507   3.327   9.758  0.00  0.00    +0.000 OA
BRANCH   9  10
ATOM     10  C   UNL     1      45.276   2.808   8.724  0.00  0.00    +0.000 A 
ATOM     11  C   UNL     1      45.442   3.626   7.614  0.00  0.00    +0.000 A 
ATOM     12  C   UNL     1      46.233   3.164   6.564  0.00  0.00    +0.000 A 
ATOM     13  C   UNL     1      46.818   1.906   6.656  0.00  0.00    +0.000 A 
ATOM     14 CL   UNL     1      47.831   1.317   5.403  0.00  0.00    +0.000 Cl
ATOM     15  C   UNL     1      46.570   1.146   7.787  0.00  0.00    +0.000 A 
ATOM     16  N   UNL     1      45.798   1.563   8.817  0.00  0.00    +0.000 NA
ENDBRANCH   9  10
ENDBRANCH   6   9
ENDBRANCH   2   3
BRANCH   2  17
ATOM     17  N   UNL     1      46.960   7.273  14.056  0.00  0.00    +0.000 N 
ATOM     18  C   UNL     1      48.208   6.715  14.105  0.00  0.00    +0.000 C 
ATOM     19  O   UNL     1      48.900   6.591  13.097  0.00  0.00    +0.000 OA
ATOM     20  H   UNL     1      46.419   7.383  14.906  0.00  0.00    +0.000 HD
BRANCH  18  21
ATOM     21  C   UNL     1      48.690   6.261  15.424  0.00  0.00    +0.000 A 
ATOM     22  C   UNL     1      49.721   6.956  16.045  0.00  0.00    +0.000 A 
ATOM     23  S   UNL     1      50.208   6.286  17.534  0.00  0.00    +0.000 S 
ATOM     24  C   UNL     1      49.061   5.038  17.410  0.00  0.00    +0.000 A 
ATOM     25  N   UNL     1      48.979   4.074  18.368  0.00  0.00    +0.000 NA
ATOM     26  C   UNL     1      48.070   3.183  18.153  0.00  0.00    +0.000 A 
ATOM     27  N   UNL     1      47.225   3.178  17.076  0.00  0.00    +0.000 N 
ATOM     28  C   UNL     1      47.257   4.141  16.096  0.00  0.00    +0.000 A 
ATOM     29  O   UNL     1      46.456   4.118  15.168  0.00  0.00    +0.000 OA
ATOM     30  C   UNL     1      48.290   5.149  16.264  0.00  0.00    +0.000 A 
ATOM     31  H   UNL     1      46.518   2.465  16.974  0.00  0.00    +0.000 HD
ENDBRANCH  18  21
ENDBRANCH   2  17
TORSDOF 5
ENDMDL
MODEL 3
REMARK VINA RESULT:    -8.281      2.556      3.690
REMARK INTER + INTRA:         -10.767
REMARK INTER:                  -9.531
REMARK INTRA:                  -1.236
REMARK UNBOUND:                -0.065
REMARK  Name = 
REMARK  6 active torsions:
REMARK  status: ('A' for Active; 'I' for Inactive)
REMARK    1  A    between atoms: C_1  and  C_2
REMARK    2  A    between atoms: C_2  and  N_3
REMARK    3  A    between atoms: C_2  and  C_16
REMARK    4  A    between atoms: C_4  and  C_6
REMARK    5  A    between atoms: C_19  and  O_20
REMARK    6  A    between atoms: O_20  and  C_21
REMARK                            x       y       z     vdW  Elec       q    Type
REMARK                         _______ _______ _______ _____ _____    ______ ____
ROOT
ATOM      1  C   UNL     1      48.071   9.135  13.048  0.00  0.00    +0.000 C 
ATOM      2  C   UNL     1      47.307   8.064  13.835  0.00  0.00    +0.000 C 
ENDROOT
BRANCH   2   3
ATOM      3  C   UNL     1      46.472   7.156  12.948  0.00  0.00    +0.000 A 
ATOM      4  C   UNL     1      45.477   7.727  12.136  0.00  0.00    +0.000 A 
ATOM      5  C   UNL     1      44.674   6.925  11.327  0.00  0.00    +0.000 A 
ATOM      6  C   UNL     1      44.874   5.544  11.285  0.00  0.00    +0.000 A 
ATOM      7  C   UNL     1      45.819   4.959  12.127  0.00  0.00    +0.000 A 
ATOM      8  C   UNL     1      46.606   5.759  12.959  0.00  0.00    +0.000 A 
BRANCH   6   9
ATOM      9  O   UNL     1      44.128   4.678  10.517  0.00  0.00    +0.000 OA
BRANCH   9  10
ATOM     10  C   UNL     1      44.792   3.855   9.615  0.00  0.00    +0.000 A 
ATOM     11  C   UNL     1      45.513   4.497   8.618  0.00  0.00    +0.000 A 
ATOM     12  C   UNL     1      46.224   3.716   7.708  0.00  0.00    +0.000 A 
ATOM     13  C   UNL     1      46.181   2.331   7.823  0.00  0.00    +0.000 A 
ATOM     14 CL   UNL     1      47.074   1.335   6.749  0.00  0.00    +0.000 Cl
ATOM     15  C   UNL     1      45.409   1.778   8.831  0.00  0.00    +0.000 A 
ATOM     16  N   UNL     1      44.699   2.509   9.720  0.00  0.00    +0.000 NA
ENDBRANCH   9  10
ENDBRANCH   6   9
ENDBRANCH   2   3
BRANCH   2  17
ATOM     17  N   UNL     1      48.208   7.241  14.616  0.00  0.00    +0.000 N 
ATOM     18  C   UNL     1      48.703   7.605  15.838  0.00  0.00    +0.000 C 
ATOM     19  O   UNL     1      48.410   8.679  16.361  0.00  0.00    +0.000 OA
ATOM     20  H   UNL     1      48.448   6.340  14.218  0.00  0.00    +0.000 HD
BRANCH  18  21
ATOM     21  C   UNL     1      49.612   6.653  16.505  0.00  0.00    +0.000 A 
ATOM     22  C   UNL     1      50.876   7.080  16.895  0.00  0.00    +0.000 A 
ATOM     23  S   UNL     1      51.832   5.860  17.601  0.00  0.00    +0.000 S 
ATOM     24  C   UNL     1      50.596   4.708  17.415  0.00  0.00    +0.000 A 
ATOM     25  N   UNL     1      50.791   3.416  17.795  0.00  0.00    +0.000 NA
ATOM     26  C   UNL     1      49.777   2.642  17.597  0.00  0.00    +0.000 A 
ATOM     27  N   UNL     1      48.580   3.047  17.068  0.00  0.00    +0.000 N 
ATOM     28  C   UNL     1      48.332   4.345  16.691  0.00  0.00    +0.000 A 
ATOM     29  O   UNL     1      47.232   4.672  16.257  0.00  0.00    +0.000 OA
ATOM     30  C   UNL     1      49.453   5.254  16.853  0.00  0.00    +0.000 A 
ATOM     31  H   UNL     1      47.815   2.399  16.958  0.00  0.00    +0.000 HD
ENDBRANCH  18  21
ENDBRANCH   2  17
TORSDOF 5
ENDMDL
MODEL 4
REMARK VINA RESULT:    -7.697      2.856      4.057
REMARK INTER + INTRA:         -10.012
REMARK INTER:                  -9.116
REMARK INTRA:                  -0.896
REMARK UNBOUND:                -0.065
REMARK  Name = 
REMARK  6 active torsions:
REMARK  status: ('A' for Active; 'I' for Inactive)
REMARK    1  A    between atoms: C_1  and  C_2
REMARK    2  A    between atoms: C_2  and  N_3
REMARK    3  A    between atoms: C_2  and  C_16
REMARK    4  A    between atoms: C_4  and  C_6
REMARK    5  A    between atoms: C_19  and  O_20
REMARK    6  A    between atoms: O_20  and  C_21
REMARK                            x       y       z     vdW  Elec       q    Type
REMARK                         _______ _______ _______ _____ _____    ______ ____
ROOT
ATOM      1  C   UNL     1      49.135   8.753  13.118  0.00  0.00    +0.000 C 
ATOM      2  C   UNL     1      47.724   8.592  13.691  0.00  0.00    +0.000 C 
ENDROOT
BRANCH   2   3
ATOM      3  C   UNL     1      46.860   7.637  12.885  0.00  0.00    +0.000 A 
ATOM      4  C   UNL     1      45.791   8.156  12.134  0.00  0.00    +0.000 A 
ATOM      5  C   UNL     1      44.961   7.309  11.401  0.00  0.00    +0.000 A 
ATOM      6  C   UNL     1      45.204   5.935  11.374  0.00  0.00    +0.000 A 
ATOM      7  C   UNL     1      46.226   5.401  12.159  0.00  0.00    +0.000 A 
ATOM      8  C   UNL     1      47.041   6.246  12.916  0.00  0.00    +0.000 A 
BRANCH   6   9
ATOM      9  O   UNL     1      44.437   5.027  10.680  0.00  0.00    +0.000 OA
BRANCH   9  10
ATOM     10  C   UNL     1      45.045   4.268   9.689  0.00  0.00    +0.000 A 
ATOM     11  C   UNL     1      44.914   2.891   9.805  0.00  0.00    +0.000 A 
ATOM     12  C   UNL     1      45.478   2.086   8.816  0.00  0.00    +0.000 A 
ATOM     13  C   UNL     1      46.155   2.683   7.759  0.00  0.00    +0.000 A 
ATOM     14 CL   UNL     1      46.828   1.732   6.501  0.00  0.00    +0.000 Cl
ATOM     15  C   UNL     1      46.263   4.064   7.742  0.00  0.00    +0.000 A 
ATOM     16  N   UNL     1      45.737   4.869   8.693  0.00  0.00    +0.000 NA
ENDBRANCH   9  10
ENDBRANCH   6   9
ENDBRANCH   2   3
BRANCH   2  17
ATOM     17  N   UNL     1      47.761   8.131  15.063  0.00  0.00    +0.000 N 
ATOM     18  C   UNL     1      48.307   8.848  16.092  0.00  0.00    +0.000 C 
ATOM     19  O   UNL     1      48.814   9.954  15.911  0.00  0.00    +0.000 OA
ATOM     20  H   UNL     1      47.330   7.232  15.244  0.00  0.00    +0.000 HD
BRANCH  18  21
ATOM     21  C   UNL     1      48.267   8.236  17.434  0.00  0.00    +0.000 A 
ATOM     22  C   UNL     1      47.950   9.028  18.532  0.00  0.00    +0.000 A 
ATOM     23  S   UNL     1      47.996   8.199  20.019  0.00  0.00    +0.000 S 
ATOM     24  C   UNL     1      48.441   6.745  19.258  0.00  0.00    +0.000 A 
ATOM     25  N   UNL     1      48.681   5.624  19.991  0.00  0.00    +0.000 NA
ATOM     26  C   UNL     1      49.015   4.590  19.293  0.00  0.00    +0.000 A 
ATOM     27  N   UNL     1      49.115   4.573  17.928  0.00  0.00    +0.000 N 
ATOM     28  C   UNL     1      48.862   5.675  17.146  0.00  0.00    +0.000 A 
ATOM     29  O   UNL     1      48.927   5.603  15.924  0.00  0.00    +0.000 OA
ATOM     30  C   UNL     1      48.521   6.880  17.881  0.00  0.00    +0.000 A 
ATOM     31  H   UNL     1      49.359   3.726  17.436  0.00  0.00    +0.000 HD
ENDBRANCH  18  21
ENDBRANCH   2  17
TORSDOF 5
ENDMDL
MODEL 5
REMARK VINA RESULT:    -7.688      2.608      3.964
REMARK INTER + INTRA:         -10.000
REMARK INTER:                  -9.253
REMARK INTRA:                  -0.747
REMARK UNBOUND:                -0.065
REMARK  Name = 
REMARK  6 active torsions:
REMARK  status: ('A' for Active; 'I' for Inactive)
REMARK    1  A    between atoms: C_1  and  C_2
REMARK    2  A    between atoms: C_2  and  N_3
REMARK    3  A    between atoms: C_2  and  C_16
REMARK    4  A    between atoms: C_4  and  C_6
REMARK    5  A    between atoms: C_19  and  O_20
REMARK    6  A    between atoms: O_20  and  C_21
REMARK                            x       y       z     vdW  Elec       q    Type
REMARK                         _______ _______ _______ _____ _____    ______ ____
ROOT
ATOM      1  C   UNL     1      49.245   8.079  13.321  0.00  0.00    +0.000 C 
ATOM      2  C   UNL     1      47.996   7.555  14.037  0.00  0.00    +0.000 C 
ENDROOT
BRANCH   2   3
ATOM      3  C   UNL     1      47.079   6.756  13.126  0.00  0.00    +0.000 A 
ATOM      4  C   UNL     1      46.530   7.383  11.995  0.00  0.00    +0.000 A 
ATOM      5  C   UNL     1      45.665   6.690  11.148  0.00  0.00    +0.000 A 
ATOM      6  C   UNL     1      45.363   5.350  11.395  0.00  0.00    +0.000 A 
ATOM      7  C   UNL     1      45.856   4.733  12.544  0.00  0.00    +0.000 A 
ATOM      8  C   UNL     1      46.700   5.434  13.408  0.00  0.00    +0.000 A 
BRANCH   6   9
ATOM      9  O   UNL     1      44.521   4.591  10.614  0.00  0.00    +0.000 OA
BRANCH   9  10
ATOM     10  C   UNL     1      45.076   3.798   9.618  0.00  0.00    +0.000 A 
ATOM     11  C   UNL     1      45.681   4.472   8.565  0.00  0.00    +0.000 A 
ATOM     12  C   UNL     1      46.283   3.722   7.558  0.00  0.00    +0.000 A 
ATOM     13  C   UNL     1      46.253   2.334   7.634  0.00  0.00    +0.000 A 
ATOM     14 CL   UNL     1      47.017   1.374   6.435  0.00  0.00    +0.000 Cl
ATOM     15  C   UNL     1      45.599   1.747   8.705  0.00  0.00    +0.000 A 
ATOM     16  N   UNL     1      44.995   2.449   9.691  0.00  0.00    +0.000 NA
ENDBRANCH   9  10
ENDBRANCH   6   9
ENDBRANCH   2   3
BRANCH   2  17
ATOM     17  N   UNL     1      48.347   6.730  15.174  0.00  0.00    +0.000 N 
ATOM     18  C   UNL     1      48.756   7.231  16.380  0.00  0.00    +0.000 C 
ATOM     19  O   UNL     1      48.855   8.440  16.577  0.00  0.00    +0.000 OA
ATOM     20  H   UNL     1      48.252   5.729  15.045  0.00  0.00    +0.000 HD
BRANCH  18  21
ATOM     21  C   UNL     1      49.078   6.255  17.438  0.00  0.00    +0.000 A 
ATOM     22  C   UNL     1      49.988   5.239  17.170  0.00  0.00    +0.000 A 
ATOM     23  S   UNL     1      50.220   4.157  18.466  0.00  0.00    +0.000 S 
ATOM     24  C   UNL     1      49.112   5.001  19.440  0.00  0.00    +0.000 A 
ATOM     25  N   UNL     1      48.816   4.561  20.693  0.00  0.00    +0.000 NA
ATOM     26  C   UNL     1      47.957   5.288  21.327  0.00  0.00    +0.000 A 
ATOM     27  N   UNL     1      47.381   6.425  20.825  0.00  0.00    +0.000 N 
ATOM     28  C   UNL     1      47.666   6.918  19.575  0.00  0.00    +0.000 A 
ATOM     29  O   UNL     1      47.155   7.961  19.181  0.00  0.00    +0.000 OA
ATOM     30  C   UNL     1      48.596   6.116  18.799  0.00  0.00    +0.000 A 
ATOM     31  H   UNL     1      46.733   6.965  21.378  0.00  0.00    +0.000 HD
ENDBRANCH  18  21
ENDBRANCH   2  17
TORSDOF 5
ENDMDL
MODEL 6
REMARK VINA RESULT:    -7.544      5.222      6.882
REMARK INTER + INTRA:          -9.814
REMARK INTER:                  -8.730
REMARK INTRA:                  -1.083
REMARK UNBOUND:                -0.065
REMARK  Name = 
REMARK  6 active torsions:
REMARK  status: ('A' for Active; 'I' for Inactive)
REMARK    1  A    between atoms: C_1  and  C_2
REMARK    2  A    between atoms: C_2  and  N_3
REMARK    3  A    between atoms: C_2  and  C_16
REMARK    4  A    between atoms: C_4  and  C_6
REMARK    5  A    between atoms: C_19  and  O_20
REMARK    6  A    between atoms: O_20  and  C_21
REMARK                            x       y       z     vdW  Elec       q    Type
REMARK                         _______ _______ _______ _____ _____    ______ ____
ROOT
ATOM      1  C   UNL     1      44.417   4.261  12.927  0.00  0.00    +0.000 C 
ATOM      2  C   UNL     1      45.666   5.149  12.899  0.00  0.00    +0.000 C 
ENDROOT
BRANCH   2   3
ATOM      3  C   UNL     1      45.373   6.573  12.459  0.00  0.00    +0.000 A 
ATOM      4  C   UNL     1      44.378   6.795  11.492  0.00  0.00    +0.000 A 
ATOM      5  C   UNL     1      44.097   8.086  11.045  0.00  0.00    +0.000 A 
ATOM      6  C   UNL     1      44.779   9.180  11.580  0.00  0.00    +0.000 A 
ATOM      7  C   UNL     1      45.807   8.968  12.498  0.00  0.00    +0.000 A 
ATOM      8  C   UNL     1      46.109   7.673  12.927  0.00  0.00    +0.000 A 
BRANCH   6   9
ATOM      9  O   UNL     1      44.568  10.486  11.198  0.00  0.00    +0.000 OA
BRANCH   9  10
ATOM     10  C   UNL     1      43.260  10.928  11.048  0.00  0.00    +0.000 A 
ATOM     11  C   UNL     1      42.817  11.099   9.743  0.00  0.00    +0.000 A 
ATOM     12  C   UNL     1      41.501  11.509   9.539  0.00  0.00    +0.000 A 
ATOM     13  C   UNL     1      40.683  11.739  10.639  0.00  0.00    +0.000 A 
ATOM     14 CL   UNL     1      39.046  12.206  10.431  0.00  0.00    +0.000 Cl
ATOM     15  C   UNL     1      41.220  11.574  11.905  0.00  0.00    +0.000 A 
ATOM     16  N   UNL     1      42.496  11.189  12.134  0.00  0.00    +0.000 NA
ENDBRANCH   9  10
ENDBRANCH   6   9
ENDBRANCH   2   3
BRANCH   2  17
ATOM     17  N   UNL     1      46.312   5.191  14.194  0.00  0.00    +0.000 N 
ATOM     18  C   UNL     1      47.094   4.183  14.687  0.00  0.00    +0.000 C 
ATOM     19  O   UNL     1      47.300   3.153  14.048  0.00  0.00    +0.000 OA
ATOM     20  H   UNL     1      46.176   6.039  14.733  0.00  0.00    +0.000 HD
BRANCH  18  21
ATOM     21  C   UNL     1      47.680   4.382  16.026  0.00  0.00    +0.000 A 
ATOM     22  C   UNL     1      47.369   3.486  17.043  0.00  0.00    +0.000 A 
ATOM     23  S   UNL     1      48.073   3.872  18.546  0.00  0.00    +0.000 S 
ATOM     24  C   UNL     1      48.824   5.253  17.900  0.00  0.00    +0.000 A 
ATOM     25  N   UNL     1      49.567   6.072  18.693  0.00  0.00    +0.000 NA
ATOM     26  C   UNL     1      50.080   7.088  18.083  0.00  0.00    +0.000 A 
ATOM     27  N   UNL     1      49.928   7.349  16.747  0.00  0.00    +0.000 N 
ATOM     28  C   UNL     1      49.205   6.540  15.905  0.00  0.00    +0.000 A 
ATOM     29  O   UNL     1      49.128   6.792  14.707  0.00  0.00    +0.000 OA
ATOM     30  C   UNL     1      48.571   5.402  16.546  0.00  0.00    +0.000 A 
ATOM     31  H   UNL     1      50.373   8.149  16.322  0.00  0.00    +0.000 HD
ENDBRANCH  18  21
ENDBRANCH   2  17
TORSDOF 5
ENDMDL
MODEL 7
REMARK VINA RESULT:    -7.476      3.003      4.075
REMARK INTER + INTRA:          -9.726
REMARK INTER:                  -8.837
REMARK INTRA:                  -0.889
REMARK UNBOUND:                -0.065
REMARK  Name = 
REMARK  6 active torsions:
REMARK  status: ('A' for Active; 'I' for Inactive)
REMARK    1  A    between atoms: C_1  and  C_2
REMARK    2  A    between atoms: C_2  and  N_3
REMARK    3  A    between atoms: C_2  and  C_16
REMARK    4  A    between atoms: C_4  and  C_6
REMARK    5  A    between atoms: C_19  and  O_20
REMARK    6  A    between atoms: O_20  and  C_21
REMARK                            x       y       z     vdW  Elec       q    Type
REMARK                         _______ _______ _______ _____ _____    ______ ____
ROOT
ATOM      1  C   UNL     1      47.154   3.935  16.546  0.00  0.00    +0.000 C 
ATOM      2  C   UNL     1      47.713   4.804  15.414  0.00  0.00    +0.000 C 
ENDROOT
BRANCH   2   3
ATOM      3  C   UNL     1      46.900   4.708  14.134  0.00  0.00    +0.000 A 
ATOM      4  C   UNL     1      46.464   5.892  13.515  0.00  0.00    +0.000 A 
ATOM      5  C   UNL     1      45.695   5.844  12.353  0.00  0.00    +0.000 A 
ATOM      6  C   UNL     1      45.380   4.617  11.767  0.00  0.00    +0.000 A 
ATOM      7  C   UNL     1      45.759   3.434  12.401  0.00  0.00    +0.000 A 
ATOM      8  C   UNL     1      46.506   3.480  13.581  0.00  0.00    +0.000 A 
BRANCH   6   9
ATOM      9  O   UNL     1      44.627   4.476  10.623  0.00  0.00    +0.000 OA
BRANCH   9  10
ATOM     10  C   UNL     1      45.237   3.953   9.490  0.00  0.00    +0.000 A 
ATOM     11  C   UNL     1      45.201   2.571   9.359  0.00  0.00    +0.000 A 
ATOM     12  C   UNL     1      45.770   2.000   8.222  0.00  0.00    +0.000 A 
ATOM     13  C   UNL     1      46.357   2.824   7.268  0.00  0.00    +0.000 A 
ATOM     14 CL   UNL     1      47.031   2.164   5.836  0.00  0.00    +0.000 Cl
ATOM     15  C   UNL     1      46.374   4.189   7.499  0.00  0.00    +0.000 A 
ATOM     16  N   UNL     1      45.841   4.771   8.598  0.00  0.00    +0.000 NA
ENDBRANCH   9  10
ENDBRANCH   6   9
ENDBRANCH   2   3
BRANCH   2  17
ATOM     17  N   UNL     1      47.790   6.196  15.806  0.00  0.00    +0.000 N 
ATOM     18  C   UNL     1      48.928   6.949  15.718  0.00  0.00    +0.000 C 
ATOM     19  O   UNL     1      49.982   6.481  15.292  0.00  0.00    +0.000 OA
ATOM     20  H   UNL     1      46.928   6.613  16.140  0.00  0.00    +0.000 HD
BRANCH  18  21
ATOM     21  C   UNL     1      48.840   8.354  16.160  0.00  0.00    +0.000 A 
ATOM     22  C   UNL     1      49.223   9.366  15.288  0.00  0.00    +0.000 A 
ATOM     23  S   UNL     1      49.119  10.931  15.954  0.00  0.00    +0.000 S 
ATOM     24  C   UNL     1      48.558  10.320  17.438  0.00  0.00    +0.000 A 
ATOM     25  N   UNL     1      48.306  11.158  18.481  0.00  0.00    +0.000 NA
ATOM     26  C   UNL     1      47.889  10.569  19.552  0.00  0.00    +0.000 A 
ATOM     27  N   UNL     1      47.686   9.220  19.668  0.00  0.00    +0.000 N 
ATOM     28  C   UNL     1      47.906   8.340  18.636  0.00  0.00    +0.000 A 
ATOM     29  O   UNL     1      47.675   7.143  18.773  0.00  0.00    +0.000 OA
ATOM     30  C   UNL     1      48.417   8.942  17.417  0.00  0.00    +0.000 A 
ATOM     31  H   UNL     1      47.336   8.820  20.526  0.00  0.00    +0.000 HD
ENDBRANCH  18  21
ENDBRANCH   2  17
TORSDOF 5
ENDMDL
MODEL 8
REMARK VINA RESULT:    -7.443      2.951      3.850
REMARK INTER + INTRA:          -9.683
REMARK INTER:                  -8.653
REMARK INTRA:                  -1.029
REMARK UNBOUND:                -0.065
REMARK  Name = 
REMARK  6 active torsions:
REMARK  status: ('A' for Active; 'I' for Inactive)
REMARK    1  A    between atoms: C_1  and  C_2
REMARK    2  A    between atoms: C_2  and  N_3
REMARK    3  A    between atoms: C_2  and  C_16
REMARK    4  A    between atoms: C_4  and  C_6
REMARK    5  A    between atoms: C_19  and  O_20
REMARK    6  A    between atoms: O_20  and  C_21
REMARK                            x       y       z     vdW  Elec       q    Type
REMARK                         _______ _______ _______ _____ _____    ______ ____
ROOT
ATOM      1  C   UNL     1      47.324  10.171  12.370  0.00  0.00    +0.000 C 
ATOM      2  C   UNL     1      47.043   8.947  13.249  0.00  0.00    +0.000 C 
ENDROOT
BRANCH   2   3
ATOM      3  C   UNL     1      46.296   7.847  12.514  0.00  0.00    +0.000 A 
ATOM      4  C   UNL     1      46.845   6.553  12.487  0.00  0.00    +0.000 A 
ATOM      5  C   UNL     1      46.201   5.523  11.803  0.00  0.00    +0.000 A 
ATOM      6  C   UNL     1      44.982   5.756  11.165  0.00  0.00    +0.000 A 
ATOM      7  C   UNL     1      44.455   7.046  11.137  0.00  0.00    +0.000 A 
ATOM      8  C   UNL     1      45.112   8.086  11.798  0.00  0.00    +0.000 A 
BRANCH   6   9
ATOM      9  O   UNL     1      44.279   4.799  10.467  0.00  0.00    +0.000 OA
BRANCH   9  10
ATOM     10  C   UNL     1      44.958   4.036   9.526  0.00  0.00    +0.000 A 
ATOM     11  C   UNL     1      44.920   2.660   9.711  0.00  0.00    +0.000 A 
ATOM     12  C   UNL     1      45.558   1.849   8.775  0.00  0.00    +0.000 A 
ATOM     13  C   UNL     1      46.213   2.437   7.699  0.00  0.00    +0.000 A 
ATOM     14 CL   UNL     1      46.976   1.473   6.503  0.00  0.00    +0.000 Cl
ATOM     15  C   UNL     1      46.226   3.820   7.613  0.00  0.00    +0.000 A 
ATOM     16  N   UNL     1      45.627   4.633   8.512  0.00  0.00    +0.000 NA
ENDBRANCH   9  10
ENDBRANCH   6   9
ENDBRANCH   2   3
BRANCH   2  17
ATOM     17  N   UNL     1      48.267   8.392  13.786  0.00  0.00    +0.000 N 
ATOM     18  C   UNL     1      48.754   8.687  15.030  0.00  0.00    +0.000 C 
ATOM     19  O   UNL     1      48.171   9.463  15.785  0.00  0.00    +0.000 OA
ATOM     20  H   UNL     1      48.756   7.732  13.192  0.00  0.00    +0.000 HD
BRANCH  18  21
ATOM     21  C   UNL     1      50.018   8.037  15.428  0.00  0.00    +0.000 A 
ATOM     22  C   UNL     1      51.224   8.583  15.006  0.00  0.00    +0.000 A 
ATOM     23  S   UNL     1      52.594   7.697  15.496  0.00  0.00    +0.000 S 
ATOM     24  C   UNL     1      51.631   6.545  16.293  0.00  0.00    +0.000 A 
ATOM     25  N   UNL     1      52.200   5.470  16.905  0.00  0.00    +0.000 NA
ATOM     26  C   UNL     1      51.359   4.669  17.469  0.00  0.00    +0.000 A 
ATOM     27  N   UNL     1      50.003   4.855  17.490  0.00  0.00    +0.000 N 
ATOM     28  C   UNL     1      49.387   5.935  16.905  0.00  0.00    +0.000 A 
ATOM     29  O   UNL     1      48.172   6.080  16.981  0.00  0.00    +0.000 OA
ATOM     30  C   UNL     1      50.282   6.849  16.218  0.00  0.00    +0.000 A 
ATOM     31  H   UNL     1      49.398   4.204  17.968  0.00  0.00    +0.000 HD
ENDBRANCH  18  21
ENDBRANCH   2  17
TORSDOF 5
ENDMDL
MODEL 9
REMARK VINA RESULT:    -7.362      5.178      7.014
REMARK INTER + INTRA:          -9.579
REMARK INTER:                  -8.633
REMARK INTRA:                  -0.947
REMARK UNBOUND:                -0.065
REMARK  Name = 
REMARK  6 active torsions:
REMARK  status: ('A' for Active; 'I' for Inactive)
REMARK    1  A    between atoms: C_1  and  C_2
REMARK    2  A    between atoms: C_2  and  N_3
REMARK    3  A    between atoms: C_2  and  C_16
REMARK    4  A    between atoms: C_4  and  C_6
REMARK    5  A    between atoms: C_19  and  O_20
REMARK    6  A    between atoms: O_20  and  C_21
REMARK                            x       y       z     vdW  Elec       q    Type
REMARK                         _______ _______ _______ _____ _____    ______ ____
ROOT
ATOM      1  C   UNL     1      45.065   4.638  12.724  0.00  0.00    +0.000 C 
ATOM      2  C   UNL     1      46.096   5.772  12.736  0.00  0.00    +0.000 C 
ENDROOT
BRANCH   2   3
ATOM      3  C   UNL     1      45.509   7.113  12.330  0.00  0.00    +0.000 A 
ATOM      4  C   UNL     1      44.438   7.139  11.421  0.00  0.00    +0.000 A 
ATOM      5  C   UNL     1      43.889   8.352  11.005  0.00  0.00    +0.000 A 
ATOM      6  C   UNL     1      44.373   9.556  11.517  0.00  0.00    +0.000 A 
ATOM      7  C   UNL     1      45.472   9.547  12.376  0.00  0.00    +0.000 A 
ATOM      8  C   UNL     1      46.041   8.334  12.772  0.00  0.00    +0.000 A 
BRANCH   6   9
ATOM      9  O   UNL     1      43.893  10.796  11.162  0.00  0.00    +0.000 OA
BRANCH   9  10
ATOM     10  C   UNL     1      42.530  11.037  11.284  0.00  0.00    +0.000 A 
ATOM     11  C   UNL     1      41.765  10.815  10.147  0.00  0.00    +0.000 A 
ATOM     12  C   UNL     1      40.387  11.010  10.228  0.00  0.00    +0.000 A 
ATOM     13  C   UNL     1      39.829  11.425  11.432  0.00  0.00    +0.000 A 
ATOM     14 CL   UNL     1      38.134  11.638  11.584  0.00  0.00    +0.000 Cl
ATOM     15  C   UNL     1      40.674  11.654  12.505  0.00  0.00    +0.000 A 
ATOM     16  N   UNL     1      42.015  11.485  12.454  0.00  0.00    +0.000 NA
ENDBRANCH   9  10
ENDBRANCH   6   9
ENDBRANCH   2   3
BRANCH   2  17
ATOM     17  N   UNL     1      46.708   5.914  14.041  0.00  0.00    +0.000 N 
ATOM     18  C   UNL     1      48.053   6.071  14.237  0.00  0.00    +0.000 C 
ATOM     19  O   UNL     1      48.844   6.099  13.296  0.00  0.00    +0.000 OA
ATOM     20  H   UNL     1      46.075   5.917  14.833  0.00  0.00    +0.000 HD
BRANCH  18  21
ATOM     21  C   UNL     1      48.518   6.201  15.631  0.00  0.00    +0.000 A 
ATOM     22  C   UNL     1      49.279   7.307  15.992  0.00  0.00    +0.000 A 
ATOM     23  S   UNL     1      49.790   7.295  17.617  0.00  0.00    +0.000 S 
ATOM     24  C   UNL     1      49.015   5.810  17.907  0.00  0.00    +0.000 A 
ATOM     25  N   UNL     1      49.099   5.211  19.125  0.00  0.00    +0.000 NA
ATOM     26  C   UNL     1      48.471   4.086  19.213  0.00  0.00    +0.000 A 
ATOM     27  N   UNL     1      47.752   3.516  18.196  0.00  0.00    +0.000 N 
ATOM     28  C   UNL     1      47.623   4.095  16.957  0.00  0.00    +0.000 A 
ATOM     29  O   UNL     1      46.938   3.566  16.088  0.00  0.00    +0.000 OA
ATOM     30  C   UNL     1      48.344   5.343  16.788  0.00  0.00    +0.000 A 
ATOM     31  H   UNL     1      47.263   2.644  18.333  0.00  0.00    +0.000 HD
ENDBRANCH  18  21
ENDBRANCH   2  17
TORSDOF 5
ENDMDL
