MODEL 1
REMARK VINA RESULT:    -8.800      0.000      0.000
REMARK INTER + INTRA:         -13.445
REMARK INTER:                 -12.401
REMARK INTRA:                  -1.044
REMARK UNBOUND:                -1.044
REMARK  Name = 
REMARK  8 active torsions:
REMARK  status: ('A' for Active; 'I' for Inactive)
REMARK    1  A    between atoms: C_1  and  C_2
REMARK    2  A    between atoms: C_10  and  C_11
REMARK    3  A    between atoms: N_13  and  C_14
REMARK    4  A    between atoms: C_14  and  C_15
REMARK    5  A    between atoms: C_18  and  C_19
REMARK    6  A    between atoms: C_19  and  N_20
REMARK    7  A    between atoms: N_20  and  C_21
REMARK    8  A    between atoms: C_21  and  C_22
REMARK                            x       y       z     vdW  Elec       q    Type
REMARK                         _______ _______ _______ _____ _____    ______ ____
ROOT
ATOM      1  C   UNL     1      48.044   6.272  13.957  0.00  0.00    +0.000 C 
ENDROOT
BRANCH   1   2
ATOM      2  C   UNL     1      46.857   5.923  13.097  0.00  0.00    +0.000 A 
ATOM      3  C   UNL     1      46.705   6.495  11.828  0.00  0.00    +0.000 A 
ATOM      4  C   UNL     1      45.614   6.159  11.020  0.00  0.00    +0.000 A 
ATOM      5  C   UNL     1      44.645   5.248  11.465  0.00  0.00    +0.000 A 
ATOM      6  C   UNL     1      44.788   4.689  12.742  0.00  0.00    +0.000 A 
ATOM      7  C   UNL     1      45.879   5.026  13.552  0.00  0.00    +0.000 A 
BRANCH   5   8
ATOM      8  C   UNL     1      43.463   4.888  10.591  0.00  0.00    +0.000 C 
BRANCH   8   9
ATOM      9  N   UNL     1      43.897   4.357   9.301  0.00  0.00    +0.000 NA
ATOM     10  H   UNL     1      44.643   4.942   8.930  0.00  0.00    +0.000 HD
BRANCH   9  11
ATOM     11  C   UNL     1      44.387   2.985   9.423  0.00  0.00    +0.000 C 
BRANCH  11  12
ATOM     12  C   UNL     1      45.487   2.710   8.424  0.00  0.00    +0.000 A 
ATOM     13  C   UNL     1      45.992   3.730   7.604  0.00  0.00    +0.000 A 
ATOM     14  C   UNL     1      47.025   3.466   6.700  0.00  0.00    +0.000 A 
ATOM     15  C   UNL     1      47.562   2.183   6.605  0.00  0.00    +0.000 A 
ATOM     16  C   UNL     1      47.066   1.160   7.411  0.00  0.00    +0.000 A 
ATOM     17  C   UNL     1      46.037   1.423   8.316  0.00  0.00    +0.000 A 
ENDBRANCH  11  12
ENDBRANCH   9  11
ENDBRANCH   8   9
ENDBRANCH   5   8
ENDBRANCH   1   2
BRANCH   1  20
ATOM     18  C   UNL     1      48.842   5.981  16.250  0.00  0.00    +0.000 C 
ATOM     19  O   UNL     1      49.994   6.240  15.910  0.00  0.00    +0.000 OA
ATOM     20  N   UNL     1      47.796   6.003  15.353  0.00  0.00    +0.000 N 
ATOM     21  H   UNL     1      46.934   5.547  15.611  0.00  0.00    +0.000 HD
BRANCH  18  31
ATOM     22  C   UNL     1      48.569   2.939  17.529  0.00  0.00    +0.000 C 
ATOM     23  C   UNL     1      48.402   4.285  18.139  0.00  0.00    +0.000 A 
ATOM     24  N   UNL     1      48.021   4.396  19.456  0.00  0.00    +0.000 N 
ATOM     25  C   UNL     1      47.858   5.709  19.815  0.00  0.00    +0.000 A 
ATOM     26  C   UNL     1      47.474   6.264  21.043  0.00  0.00    +0.000 A 
ATOM     27  C   UNL     1      47.387   7.656  21.127  0.00  0.00    +0.000 A 
ATOM     28  C   UNL     1      47.667   8.456  20.023  0.00  0.00    +0.000 A 
ATOM     29  C   UNL     1      48.041   7.880  18.803  0.00  0.00    +0.000 A 
ATOM     30  C   UNL     1      48.142   6.475  18.688  0.00  0.00    +0.000 A 
ATOM     31  C   UNL     1      48.500   5.576  17.619  0.00  0.00    +0.000 A 
ATOM     32  H   UNL     1      47.853   3.618  20.079  0.00  0.00    +0.000 HD
ENDBRANCH  18  31
ENDBRANCH   1  20
TORSDOF 7
ENDMDL
MODEL 2
REMARK VINA RESULT:    -8.460      1.791      2.850
REMARK INTER + INTRA:         -12.967
REMARK INTER:                 -11.652
REMARK INTRA:                  -1.315
REMARK UNBOUND:                -1.044
REMARK  Name = 
REMARK  8 active torsions:
REMARK  status: ('A' for Active; 'I' for Inactive)
REMARK    1  A    between atoms: C_1  and  C_2
REMARK    2  A    between atoms: C_10  and  C_11
REMARK    3  A    between atoms: N_13  and  C_14
REMARK    4  A    between atoms: C_14  and  C_15
REMARK    5  A    between atoms: C_18  and  C_19
REMARK    6  A    between atoms: C_19  and  N_20
REMARK    7  A    between atoms: N_20  and  C_21
REMARK    8  A    between atoms: C_21  and  C_22
REMARK                            x       y       z     vdW  Elec       q    Type
REMARK                         _______ _______ _______ _____ _____    ______ ____
ROOT
ATOM      1  C   UNL     1      47.000   7.668  13.081  0.00  0.00    +0.000 C 
ENDROOT
BRANCH   1   2
ATOM      2  C   UNL     1      46.152   6.564  12.507  0.00  0.00    +0.000 A 
ATOM      3  C   UNL     1      45.565   5.608  13.346  0.00  0.00    +0.000 A 
ATOM      4  C   UNL     1      44.762   4.591  12.818  0.00  0.00    +0.000 A 
ATOM      5  C   UNL     1      44.532   4.503  11.438  0.00  0.00    +0.000 A 
ATOM      6  C   UNL     1      45.134   5.449  10.597  0.00  0.00    +0.000 A 
ATOM      7  C   UNL     1      45.939   6.466  11.125  0.00  0.00    +0.000 A 
BRANCH   5   8
ATOM      8  C   UNL     1      43.667   3.401  10.867  0.00  0.00    +0.000 C 
BRANCH   8   9
ATOM      9  N   UNL     1      43.995   3.135   9.469  0.00  0.00    +0.000 NA
ATOM     10  H   UNL     1      44.465   3.948   9.073  0.00  0.00    +0.000 HD
BRANCH   9  11
ATOM     11  C   UNL     1      44.870   1.971   9.335  0.00  0.00    +0.000 C 
BRANCH  11  12
ATOM     12  C   UNL     1      45.840   2.148   8.189  0.00  0.00    +0.000 A 
ATOM     13  C   UNL     1      46.693   1.106   7.797  0.00  0.00    +0.000 A 
ATOM     14  C   UNL     1      47.570   1.277   6.720  0.00  0.00    +0.000 A 
ATOM     15  C   UNL     1      47.602   2.486   6.029  0.00  0.00    +0.000 A 
ATOM     16  C   UNL     1      46.762   3.529   6.411  0.00  0.00    +0.000 A 
ATOM     17  C   UNL     1      45.884   3.360   7.484  0.00  0.00    +0.000 A 
ENDBRANCH  11  12
ENDBRANCH   9  11
ENDBRANCH   8   9
ENDBRANCH   5   8
ENDBRANCH   1   2
BRANCH   1  20
ATOM     18  C   UNL     1      48.748   6.948  14.632  0.00  0.00    +0.000 C 
ATOM     19  O   UNL     1      49.567   6.880  13.718  0.00  0.00    +0.000 OA
ATOM     20  N   UNL     1      47.452   7.362  14.417  0.00  0.00    +0.000 N 
ATOM     21  H   UNL     1      46.762   7.164  15.126  0.00  0.00    +0.000 HD
BRANCH  18  31
ATOM     22  C   UNL     1      50.755   8.403  16.829  0.00  0.00    +0.000 C 
ATOM     23  C   UNL     1      49.911   7.181  16.919  0.00  0.00    +0.000 A 
ATOM     24  N   UNL     1      49.933   6.420  18.065  0.00  0.00    +0.000 N 
ATOM     25  C   UNL     1      49.145   5.306  17.933  0.00  0.00    +0.000 A 
ATOM     26  C   UNL     1      48.890   4.272  18.844  0.00  0.00    +0.000 A 
ATOM     27  C   UNL     1      48.034   3.246  18.438  0.00  0.00    +0.000 A 
ATOM     28  C   UNL     1      47.462   3.254  17.169  0.00  0.00    +0.000 A 
ATOM     29  C   UNL     1      47.735   4.293  16.271  0.00  0.00    +0.000 A 
ATOM     30  C   UNL     1      48.594   5.347  16.655  0.00  0.00    +0.000 A 
ATOM     31  C   UNL     1      49.070   6.544  16.006  0.00  0.00    +0.000 A 
ATOM     32  H   UNL     1      50.477   6.630  18.890  0.00  0.00    +0.000 HD
ENDBRANCH  18  31
ENDBRANCH   1  20
TORSDOF 7
ENDMDL
MODEL 3
REMARK VINA RESULT:    -7.936      1.987      2.825
REMARK INTER + INTRA:         -12.228
REMARK INTER:                 -11.350
REMARK INTRA:                  -0.878
REMARK UNBOUND:                -1.044
REMARK  Name = 
REMARK  8 active torsions:
REMARK  status: ('A' for Active; 'I' for Inactive)
REMARK    1  A    between atoms: C_1  and  C_2
REMARK    2  A    between atoms: C_10  and  C_11
REMARK    3  A    between atoms: N_13  and  C_14
REMARK    4  A    between atoms: C_14  and  C_15
REMARK    5  A    between atoms: C_18  and  C_19
REMARK    6  A    between atoms: C_19  and  N_20
REMARK    7  A    between atoms: N_20  and  C_21
REMARK    8  A    between atoms: C_21  and  C_22
REMARK                            x       y       z     vdW  Elec       q    Type
REMARK                         _______ _______ _______ _____ _____    ______ ____
ROOT
ATOM      1  C   UNL     1      47.618   6.773  14.139  0.00  0.00    +0.000 C 
ENDROOT
BRANCH   1   2
ATOM      2  C   UNL     1      46.587   6.237  13.181  0.00  0.00    +0.000 A 
ATOM      3  C   UNL     1      45.938   5.023  13.439  0.00  0.00    +0.000 A 
ATOM      4  C   UNL     1      44.967   4.531  12.560  0.00  0.00    +0.000 A 
ATOM      5  C   UNL     1      44.626   5.240  11.399  0.00  0.00    +0.000 A 
ATOM      6  C   UNL     1      45.288   6.446  11.132  0.00  0.00    +0.000 A 
ATOM      7  C   UNL     1      46.261   6.937  12.010  0.00  0.00    +0.000 A 
BRANCH   5   8
ATOM      8  C   UNL     1      43.578   4.705  10.448  0.00  0.00    +0.000 C 
BRANCH   8   9
ATOM      9  N   UNL     1      44.177   4.254   9.194  0.00  0.00    +0.000 NA
ATOM     10  H   UNL     1      44.970   4.852   8.966  0.00  0.00    +0.000 HD
BRANCH   9  11
ATOM     11  C   UNL     1      44.638   2.870   9.287  0.00  0.00    +0.000 C 
BRANCH  11  12
ATOM     12  C   UNL     1      45.640   2.557   8.200  0.00  0.00    +0.000 A 
ATOM     13  C   UNL     1      45.949   3.498   7.207  0.00  0.00    +0.000 A 
ATOM     14  C   UNL     1      46.895   3.203   6.220  0.00  0.00    +0.000 A 
ATOM     15  C   UNL     1      47.539   1.967   6.216  0.00  0.00    +0.000 A 
ATOM     16  C   UNL     1      47.239   1.022   7.195  0.00  0.00    +0.000 A 
ATOM     17  C   UNL     1      46.297   1.316   8.182  0.00  0.00    +0.000 A 
ENDBRANCH  11  12
ENDBRANCH   9  11
ENDBRANCH   8   9
ENDBRANCH   5   8
ENDBRANCH   1   2
BRANCH   1  20
ATOM     18  C   UNL     1      48.677   6.029  16.214  0.00  0.00    +0.000 C 
ATOM     19  O   UNL     1      48.610   7.162  16.685  0.00  0.00    +0.000 OA
ATOM     20  N   UNL     1      48.180   5.730  14.964  0.00  0.00    +0.000 N 
ATOM     21  H   UNL     1      48.477   4.873  14.523  0.00  0.00    +0.000 HD
BRANCH  18  31
ATOM     22  C   UNL     1      47.355   3.285  17.514  0.00  0.00    +0.000 C 
ATOM     23  C   UNL     1      48.760   3.769  17.449  0.00  0.00    +0.000 A 
ATOM     24  N   UNL     1      49.762   3.041  18.047  0.00  0.00    +0.000 N 
ATOM     25  C   UNL     1      50.971   3.678  17.936  0.00  0.00    +0.000 A 
ATOM     26  C   UNL     1      52.234   3.296  18.405  0.00  0.00    +0.000 A 
ATOM     27  C   UNL     1      53.308   4.152  18.146  0.00  0.00    +0.000 A 
ATOM     28  C   UNL     1      53.120   5.343  17.452  0.00  0.00    +0.000 A 
ATOM     29  C   UNL     1      51.847   5.710  16.999  0.00  0.00    +0.000 A 
ATOM     30  C   UNL     1      50.742   4.863  17.242  0.00  0.00    +0.000 A 
ATOM     31  C   UNL     1      49.338   4.924  16.918  0.00  0.00    +0.000 A 
ATOM     32  H   UNL     1      49.631   2.164  18.532  0.00  0.00    +0.000 HD
ENDBRANCH  18  31
ENDBRANCH   1  20
TORSDOF 7
ENDMDL
MODEL 4
REMARK VINA RESULT:    -7.809      1.368      2.267
REMARK INTER + INTRA:         -12.050
REMARK INTER:                 -11.020
REMARK INTRA:                  -1.029
REMARK UNBOUND:                -1.044
REMARK  Name = 
REMARK  8 active torsions:
REMARK  status: ('A' for Active; 'I' for Inactive)
REMARK    1  A    between atoms: C_1  and  C_2
REMARK    2  A    between atoms: C_10  and  C_11
REMARK    3  A    between atoms: N_13  and  C_14
REMARK    4  A    between atoms: C_14  and  C_15
REMARK    5  A    between atoms: C_18  and  C_19
REMARK    6  A    between atoms: C_19  and  N_20
REMARK    7  A    between atoms: N_20  and  C_21
REMARK    8  A    between atoms: C_21  and  C_22
REMARK                            x       y       z     vdW  Elec       q    Type
REMARK                         _______ _______ _______ _____ _____    ______ ____
ROOT
ATOM      1  C   UNL     1      47.421   4.296  14.923  0.00  0.00    +0.000 C 
ENDROOT
BRANCH   1   2
ATOM      2  C   UNL     1      46.458   4.411  13.771  0.00  0.00    +0.000 A 
ATOM      3  C   UNL     1      45.972   3.264  13.132  0.00  0.00    +0.000 A 
ATOM      4  C   UNL     1      45.064   3.367  12.073  0.00  0.00    +0.000 A 
ATOM      5  C   UNL     1      44.625   4.620  11.624  0.00  0.00    +0.000 A 
ATOM      6  C   UNL     1      45.126   5.769  12.251  0.00  0.00    +0.000 A 
ATOM      7  C   UNL     1      46.036   5.666  13.310  0.00  0.00    +0.000 A 
BRANCH   5   8
ATOM      8  C   UNL     1      43.645   4.731  10.476  0.00  0.00    +0.000 C 
BRANCH   8   9
ATOM      9  N   UNL     1      43.999   3.826   9.385  0.00  0.00    +0.000 NA
ATOM     10  H   UNL     1      43.180   3.669   8.800  0.00  0.00    +0.000 HD
BRANCH   9  11
ATOM     11  C   UNL     1      45.073   4.375   8.559  0.00  0.00    +0.000 C 
BRANCH  11  12
ATOM     12  C   UNL     1      45.864   3.273   7.892  0.00  0.00    +0.000 A 
ATOM     13  C   UNL     1      46.631   3.526   6.745  0.00  0.00    +0.000 A 
ATOM     14  C   UNL     1      47.376   2.502   6.152  0.00  0.00    +0.000 A 
ATOM     15  C   UNL     1      47.361   1.219   6.697  0.00  0.00    +0.000 A 
ATOM     16  C   UNL     1      46.601   0.955   7.834  0.00  0.00    +0.000 A 
ATOM     17  C   UNL     1      45.859   1.976   8.429  0.00  0.00    +0.000 A 
ENDBRANCH  11  12
ENDBRANCH   9  11
ENDBRANCH   8   9
ENDBRANCH   5   8
ENDBRANCH   1   2
BRANCH   1  20
ATOM     18  C   UNL     1      48.512   5.836  16.479  0.00  0.00    +0.000 C 
ATOM     19  O   UNL     1      49.576   5.233  16.371  0.00  0.00    +0.000 OA
ATOM     20  N   UNL     1      47.389   5.463  15.772  0.00  0.00    +0.000 N 
ATOM     21  H   UNL     1      46.494   5.814  16.075  0.00  0.00    +0.000 HD
BRANCH  18  31
ATOM     22  C   UNL     1      48.920   9.078  15.940  0.00  0.00    +0.000 C 
ATOM     23  C   UNL     1      48.504   8.323  17.152  0.00  0.00    +0.000 A 
ATOM     24  N   UNL     1      48.267   8.996  18.328  0.00  0.00    +0.000 N 
ATOM     25  C   UNL     1      47.960   8.127  19.342  0.00  0.00    +0.000 A 
ATOM     26  C   UNL     1      47.660   8.384  20.686  0.00  0.00    +0.000 A 
ATOM     27  C   UNL     1      47.382   7.290  21.510  0.00  0.00    +0.000 A 
ATOM     28  C   UNL     1      47.410   5.993  21.007  0.00  0.00    +0.000 A 
ATOM     29  C   UNL     1      47.720   5.757  19.662  0.00  0.00    +0.000 A 
ATOM     30  C   UNL     1      48.001   6.844  18.803  0.00  0.00    +0.000 A 
ATOM     31  C   UNL     1      48.337   6.960  17.405  0.00  0.00    +0.000 A 
ATOM     32  H   UNL     1      48.335   9.997  18.447  0.00  0.00    +0.000 HD
ENDBRANCH  18  31
ENDBRANCH   1  20
TORSDOF 7
ENDMDL
MODEL 5
REMARK VINA RESULT:    -7.784      2.815      9.118
REMARK INTER + INTRA:         -12.014
REMARK INTER:                 -10.638
REMARK INTRA:                  -1.377
REMARK UNBOUND:                -1.044
REMARK  Name = 
REMARK  8 active torsions:
REMARK  status: ('A' for Active; 'I' for Inactive)
REMARK    1  A    between atoms: C_1  and  C_2
REMARK    2  A    between atoms: C_10  and  C_11
REMARK    3  A    between atoms: N_13  and  C_14
REMARK    4  A    between atoms: C_14  and  C_15
REMARK    5  A    between atoms: C_18  and  C_19
REMARK    6  A    between atoms: C_19  and  N_20
REMARK    7  A    between atoms: N_20  and  C_21
REMARK    8  A    between atoms: C_21  and  C_22
REMARK                            x       y       z     vdW  Elec       q    Type
REMARK                         _______ _______ _______ _____ _____    ______ ____
ROOT
ATOM      1  C   UNL     1      45.732   7.510  11.810  0.00  0.00    +0.000 C 
ENDROOT
BRANCH   1   2
ATOM      2  C   UNL     1      46.928   7.689  12.708  0.00  0.00    +0.000 A 
ATOM      3  C   UNL     1      48.059   6.878  12.556  0.00  0.00    +0.000 A 
ATOM      4  C   UNL     1      49.179   7.053  13.377  0.00  0.00    +0.000 A 
ATOM      5  C   UNL     1      49.191   8.041  14.372  0.00  0.00    +0.000 A 
ATOM      6  C   UNL     1      48.052   8.841  14.535  0.00  0.00    +0.000 A 
ATOM      7  C   UNL     1      46.931   8.664  13.715  0.00  0.00    +0.000 A 
BRANCH   5   8
ATOM      8  C   UNL     1      50.401   8.227  15.261  0.00  0.00    +0.000 C 
BRANCH   8   9
ATOM      9  N   UNL     1      50.765   6.983  15.933  0.00  0.00    +0.000 NA
ATOM     10  H   UNL     1      51.727   7.048  16.264  0.00  0.00    +0.000 HD
BRANCH   9  11
ATOM     11  C   UNL     1      49.890   6.712  17.073  0.00  0.00    +0.000 C 
BRANCH  11  12
ATOM     12  C   UNL     1      49.318   5.315  17.000  0.00  0.00    +0.000 A 
ATOM     13  C   UNL     1      48.085   5.071  16.377  0.00  0.00    +0.000 A 
ATOM     14  C   UNL     1      47.577   3.770  16.297  0.00  0.00    +0.000 A 
ATOM     15  C   UNL     1      48.295   2.705  16.838  0.00  0.00    +0.000 A 
ATOM     16  C   UNL     1      49.519   2.935  17.462  0.00  0.00    +0.000 A 
ATOM     17  C   UNL     1      50.028   4.232  17.540  0.00  0.00    +0.000 A 
ENDBRANCH  11  12
ENDBRANCH   9  11
ENDBRANCH   8   9
ENDBRANCH   5   8
ENDBRANCH   1   2
BRANCH   1  20
ATOM     18  C   UNL     1      44.534   5.590  10.884  0.00  0.00    +0.000 C 
ATOM     19  O   UNL     1      43.450   6.124  11.109  0.00  0.00    +0.000 OA
ATOM     20  N   UNL     1      45.727   6.216  11.170  0.00  0.00    +0.000 N 
ATOM     21  H   UNL     1      46.565   5.656  11.208  0.00  0.00    +0.000 HD
BRANCH  18  31
ATOM     22  C   UNL     1      43.342   2.755  12.112  0.00  0.00    +0.000 C 
ATOM     23  C   UNL     1      44.119   3.047  10.878  0.00  0.00    +0.000 A 
ATOM     24  N   UNL     1      44.503   2.016  10.053  0.00  0.00    +0.000 N 
ATOM     25  C   UNL     1      45.262   2.475   9.008  0.00  0.00    +0.000 A 
ATOM     26  C   UNL     1      45.857   1.772   7.952  0.00  0.00    +0.000 A 
ATOM     27  C   UNL     1      46.588   2.506   7.014  0.00  0.00    +0.000 A 
ATOM     28  C   UNL     1      46.720   3.886   7.134  0.00  0.00    +0.000 A 
ATOM     29  C   UNL     1      46.124   4.569   8.202  0.00  0.00    +0.000 A 
ATOM     30  C   UNL     1      45.375   3.854   9.164  0.00  0.00    +0.000 A 
ATOM     31  C   UNL     1      44.641   4.228  10.348  0.00  0.00    +0.000 A 
ATOM     32  H   UNL     1      44.284   1.041  10.203  0.00  0.00    +0.000 HD
ENDBRANCH  18  31
ENDBRANCH   1  20
TORSDOF 7
ENDMDL
MODEL 6
REMARK VINA RESULT:    -7.727      2.009      3.253
REMARK INTER + INTRA:         -11.933
REMARK INTER:                 -10.949
REMARK INTRA:                  -0.984
REMARK UNBOUND:                -1.044
REMARK  Name = 
REMARK  8 active torsions:
REMARK  status: ('A' for Active; 'I' for Inactive)
REMARK    1  A    between atoms: C_1  and  C_2
REMARK    2  A    between atoms: C_10  and  C_11
REMARK    3  A    between atoms: N_13  and  C_14
REMARK    4  A    between atoms: C_14  and  C_15
REMARK    5  A    between atoms: C_18  and  C_19
REMARK    6  A    between atoms: C_19  and  N_20
REMARK    7  A    between atoms: N_20  and  C_21
REMARK    8  A    between atoms: C_21  and  C_22
REMARK                            x       y       z     vdW  Elec       q    Type
REMARK                         _______ _______ _______ _____ _____    ______ ____
ROOT
ATOM      1  C   UNL     1      47.725   5.384  14.394  0.00  0.00    +0.000 C 
ENDROOT
BRANCH   1   2
ATOM      2  C   UNL     1      46.622   5.063  13.419  0.00  0.00    +0.000 A 
ATOM      3  C   UNL     1      45.984   6.085  12.705  0.00  0.00    +0.000 A 
ATOM      4  C   UNL     1      44.972   5.789  11.786  0.00  0.00    +0.000 A 
ATOM      5  C   UNL     1      44.570   4.464  11.564  0.00  0.00    +0.000 A 
ATOM      6  C   UNL     1      45.196   3.443  12.291  0.00  0.00    +0.000 A 
ATOM      7  C   UNL     1      46.208   3.740  13.213  0.00  0.00    +0.000 A 
BRANCH   5   8
ATOM      8  C   UNL     1      43.472   4.146  10.572  0.00  0.00    +0.000 C 
BRANCH   8   9
ATOM      9  N   UNL     1      43.948   3.251   9.520  0.00  0.00    +0.000 NA
ATOM     10  H   UNL     1      43.148   2.834   9.046  0.00  0.00    +0.000 HD
BRANCH   9  11
ATOM     11  C   UNL     1      44.762   3.963   8.537  0.00  0.00    +0.000 C 
BRANCH  11  12
ATOM     12  C   UNL     1      45.740   3.030   7.861  0.00  0.00    +0.000 A 
ATOM     13  C   UNL     1      45.955   1.732   8.347  0.00  0.00    +0.000 A 
ATOM     14  C   UNL     1      46.846   0.871   7.698  0.00  0.00    +0.000 A 
ATOM     15  C   UNL     1      47.529   1.299   6.561  0.00  0.00    +0.000 A 
ATOM     16  C   UNL     1      47.327   2.587   6.071  0.00  0.00    +0.000 A 
ATOM     17  C   UNL     1      46.436   3.446   6.715  0.00  0.00    +0.000 A 
ENDBRANCH  11  12
ENDBRANCH   9  11
ENDBRANCH   8   9
ENDBRANCH   5   8
ENDBRANCH   1   2
BRANCH   1  20
ATOM     18  C   UNL     1      48.849   7.415  15.162  0.00  0.00    +0.000 C 
ATOM     19  O   UNL     1      49.948   6.873  15.070  0.00  0.00    +0.000 OA
ATOM     20  N   UNL     1      47.685   6.763  14.818  0.00  0.00    +0.000 N 
ATOM     21  H   UNL     1      46.809   7.143  15.142  0.00  0.00    +0.000 HD
BRANCH  18  31
ATOM     22  C   UNL     1      49.475  10.327  13.714  0.00  0.00    +0.000 C 
ATOM     23  C   UNL     1      48.946   9.988  15.062  0.00  0.00    +0.000 A 
ATOM     24  N   UNL     1      48.680  10.992  15.964  0.00  0.00    +0.000 N 
ATOM     25  C   UNL     1      48.264  10.481  17.166  0.00  0.00    +0.000 A 
ATOM     26  C   UNL     1      47.901  11.142  18.346  0.00  0.00    +0.000 A 
ATOM     27  C   UNL     1      47.512  10.357  19.435  0.00  0.00    +0.000 A 
ATOM     28  C   UNL     1      47.495   8.969  19.345  0.00  0.00    +0.000 A 
ATOM     29  C   UNL     1      47.869   8.328  18.157  0.00  0.00    +0.000 A 
ATOM     30  C   UNL     1      48.262   9.094  17.037  0.00  0.00    +0.000 A 
ATOM     31  C   UNL     1      48.686   8.772  15.697  0.00  0.00    +0.000 A 
ATOM     32  H   UNL     1      48.799  11.979  15.784  0.00  0.00    +0.000 HD
ENDBRANCH  18  31
ENDBRANCH   1  20
TORSDOF 7
ENDMDL
MODEL 7
REMARK VINA RESULT:    -7.415      2.610      3.703
REMARK INTER + INTRA:         -11.493
REMARK INTER:                 -10.659
REMARK INTRA:                  -0.834
REMARK UNBOUND:                -1.044
REMARK  Name = 
REMARK  8 active torsions:
REMARK  status: ('A' for Active; 'I' for Inactive)
REMARK    1  A    between atoms: C_1  and  C_2
REMARK    2  A    between atoms: C_10  and  C_11
REMARK    3  A    between atoms: N_13  and  C_14
REMARK    4  A    between atoms: C_14  and  C_15
REMARK    5  A    between atoms: C_18  and  C_19
REMARK    6  A    between atoms: C_19  and  N_20
REMARK    7  A    between atoms: N_20  and  C_21
REMARK    8  A    between atoms: C_21  and  C_22
REMARK                            x       y       z     vdW  Elec       q    Type
REMARK                         _______ _______ _______ _____ _____    ______ ____
ROOT
ATOM      1  C   UNL     1      45.901   8.597  13.086  0.00  0.00    +0.000 C 
ENDROOT
BRANCH   1   2
ATOM      2  C   UNL     1      45.347   7.288  12.587  0.00  0.00    +0.000 A 
ATOM      3  C   UNL     1      45.616   6.096  13.271  0.00  0.00    +0.000 A 
ATOM      4  C   UNL     1      45.089   4.880  12.821  0.00  0.00    +0.000 A 
ATOM      5  C   UNL     1      44.286   4.828  11.672  0.00  0.00    +0.000 A 
ATOM      6  C   UNL     1      44.033   6.019  10.978  0.00  0.00    +0.000 A 
ATOM      7  C   UNL     1      44.561   7.235  11.427  0.00  0.00    +0.000 A 
BRANCH   5   8
ATOM      8  C   UNL     1      43.720   3.513  11.184  0.00  0.00    +0.000 C 
BRANCH   8   9
ATOM      9  N   UNL     1      44.778   2.614  10.728  0.00  0.00    +0.000 NA
ATOM     10  H   UNL     1      44.906   1.871  11.413  0.00  0.00    +0.000 HD
BRANCH   9  11
ATOM     11  C   UNL     1      44.452   2.014   9.435  0.00  0.00    +0.000 C 
BRANCH  11  12
ATOM     12  C   UNL     1      45.563   2.239   8.435  0.00  0.00    +0.000 A 
ATOM     13  C   UNL     1      45.812   3.514   7.906  0.00  0.00    +0.000 A 
ATOM     14  C   UNL     1      46.858   3.711   6.998  0.00  0.00    +0.000 A 
ATOM     15  C   UNL     1      47.661   2.640   6.612  0.00  0.00    +0.000 A 
ATOM     16  C   UNL     1      47.421   1.368   7.129  0.00  0.00    +0.000 A 
ATOM     17  C   UNL     1      46.380   1.170   8.037  0.00  0.00    +0.000 A 
ENDBRANCH  11  12
ENDBRANCH   9  11
ENDBRANCH   8   9
ENDBRANCH   5   8
ENDBRANCH   1   2
BRANCH   1  20
ATOM     18  C   UNL     1      48.295   8.112  13.185  0.00  0.00    +0.000 C 
ATOM     19  O   UNL     1      48.358   8.039  11.960  0.00  0.00    +0.000 OA
ATOM     20  N   UNL     1      47.120   8.417  13.837  0.00  0.00    +0.000 N 
ATOM     21  H   UNL     1      47.054   8.219  14.823  0.00  0.00    +0.000 HD
BRANCH  18  31
ATOM     22  C   UNL     1      51.405   9.229  12.966  0.00  0.00    +0.000 C 
ATOM     23  C   UNL     1      50.749   8.320  13.943  0.00  0.00    +0.000 A 
ATOM     24  N   UNL     1      51.493   7.749  14.950  0.00  0.00    +0.000 N 
ATOM     25  C   UNL     1      50.730   6.896  15.705  0.00  0.00    +0.000 A 
ATOM     26  C   UNL     1      51.085   6.112  16.810  0.00  0.00    +0.000 A 
ATOM     27  C   UNL     1      50.090   5.324  17.393  0.00  0.00    +0.000 A 
ATOM     28  C   UNL     1      48.795   5.318  16.885  0.00  0.00    +0.000 A 
ATOM     29  C   UNL     1      48.462   6.103  15.774  0.00  0.00    +0.000 A 
ATOM     30  C   UNL     1      49.446   6.915  15.165  0.00  0.00    +0.000 A 
ATOM     31  C   UNL     1      49.447   7.827  14.048  0.00  0.00    +0.000 A 
ATOM     32  H   UNL     1      52.478   7.909  15.105  0.00  0.00    +0.000 HD
ENDBRANCH  18  31
ENDBRANCH   1  20
TORSDOF 7
ENDMDL
MODEL 8
REMARK VINA RESULT:    -6.987      3.149      8.627
REMARK INTER + INTRA:         -10.890
REMARK INTER:                  -9.045
REMARK INTRA:                  -1.845
REMARK UNBOUND:                -1.044
REMARK  Name = 
REMARK  8 active torsions:
REMARK  status: ('A' for Active; 'I' for Inactive)
REMARK    1  A    between atoms: C_1  and  C_2
REMARK    2  A    between atoms: C_10  and  C_11
REMARK    3  A    between atoms: N_13  and  C_14
REMARK    4  A    between atoms: C_14  and  C_15
REMARK    5  A    between atoms: C_18  and  C_19
REMARK    6  A    between atoms: C_19  and  N_20
REMARK    7  A    between atoms: N_20  and  C_21
REMARK    8  A    between atoms: C_21  and  C_22
REMARK                            x       y       z     vdW  Elec       q    Type
REMARK                         _______ _______ _______ _____ _____    ______ ____
ROOT
ATOM      1  C   UNL     1      48.053   9.131  14.042  0.00  0.00    +0.000 C 
ENDROOT
BRANCH   1   2
ATOM      2  C   UNL     1      48.510   8.552  15.356  0.00  0.00    +0.000 A 
ATOM      3  C   UNL     1      49.315   7.406  15.387  0.00  0.00    +0.000 A 
ATOM      4  C   UNL     1      49.755   6.877  16.605  0.00  0.00    +0.000 A 
ATOM      5  C   UNL     1      49.396   7.478  17.820  0.00  0.00    +0.000 A 
ATOM      6  C   UNL     1      48.576   8.614  17.789  0.00  0.00    +0.000 A 
ATOM      7  C   UNL     1      48.134   9.143  16.571  0.00  0.00    +0.000 A 
BRANCH   5   8
ATOM      8  C   UNL     1      49.870   6.902  19.137  0.00  0.00    +0.000 C 
BRANCH   8   9
ATOM      9  N   UNL     1      48.759   6.353  19.910  0.00  0.00    +0.000 NA
ATOM     10  H   UNL     1      47.881   6.588  19.449  0.00  0.00    +0.000 HD
BRANCH   9  11
ATOM     11  C   UNL     1      48.855   4.900  20.031  0.00  0.00    +0.000 C 
BRANCH  11  12
ATOM     12  C   UNL     1      48.528   4.221  18.721  0.00  0.00    +0.000 A 
ATOM     13  C   UNL     1      47.353   4.530  18.021  0.00  0.00    +0.000 A 
ATOM     14  C   UNL     1      47.073   3.911  16.798  0.00  0.00    +0.000 A 
ATOM     15  C   UNL     1      47.962   2.978  16.267  0.00  0.00    +0.000 A 
ATOM     16  C   UNL     1      49.131   2.660  16.955  0.00  0.00    +0.000 A 
ATOM     17  C   UNL     1      49.413   3.280  18.174  0.00  0.00    +0.000 A 
ENDBRANCH  11  12
ENDBRANCH   9  11
ENDBRANCH   8   9
ENDBRANCH   5   8
ENDBRANCH   1   2
BRANCH   1  20
ATOM     18  C   UNL     1      46.837   7.742  12.439  0.00  0.00    +0.000 C 
ATOM     19  O   UNL     1      47.871   7.503  11.821  0.00  0.00    +0.000 OA
ATOM     20  N   UNL     1      46.832   8.517  13.578  0.00  0.00    +0.000 N 
ATOM     21  H   UNL     1      45.952   8.890  13.900  0.00  0.00    +0.000 HD
BRANCH  18  31
ATOM     22  C   UNL     1      44.309   9.467  11.172  0.00  0.00    +0.000 C 
ATOM     23  C   UNL     1      44.476   8.014  11.443  0.00  0.00    +0.000 A 
ATOM     24  N   UNL     1      43.433   7.150  11.201  0.00  0.00    +0.000 N 
ATOM     25  C   UNL     1      43.754   5.870  11.571  0.00  0.00    +0.000 A 
ATOM     26  C   UNL     1      42.992   4.697  11.506  0.00  0.00    +0.000 A 
ATOM     27  C   UNL     1      43.580   3.514  11.962  0.00  0.00    +0.000 A 
ATOM     28  C   UNL     1      44.876   3.511  12.467  0.00  0.00    +0.000 A 
ATOM     29  C   UNL     1      45.619   4.696  12.531  0.00  0.00    +0.000 A 
ATOM     30  C   UNL     1      45.053   5.907  12.074  0.00  0.00    +0.000 A 
ATOM     31  C   UNL     1      45.524   7.268  11.986  0.00  0.00    +0.000 A 
ATOM     32  H   UNL     1      42.534   7.418  10.825  0.00  0.00    +0.000 HD
ENDBRANCH  18  31
ENDBRANCH   1  20
TORSDOF 7
ENDMDL
MODEL 9
REMARK VINA RESULT:    -6.968      3.422      9.265
REMARK INTER + INTRA:         -10.863
REMARK INTER:                  -8.923
REMARK INTRA:                  -1.940
REMARK UNBOUND:                -1.044
REMARK  Name = 
REMARK  8 active torsions:
REMARK  status: ('A' for Active; 'I' for Inactive)
REMARK    1  A    between atoms: C_1  and  C_2
REMARK    2  A    between atoms: C_10  and  C_11
REMARK    3  A    between atoms: N_13  and  C_14
REMARK    4  A    between atoms: C_14  and  C_15
REMARK    5  A    between atoms: C_18  and  C_19
REMARK    6  A    between atoms: C_19  and  N_20
REMARK    7  A    between atoms: N_20  and  C_21
REMARK    8  A    between atoms: C_21  and  C_22
REMARK                            x       y       z     vdW  Elec       q    Type
REMARK                         _______ _______ _______ _____ _____    ______ ____
ROOT
ATOM      1  C   UNL     1      47.338   3.625  16.787  0.00  0.00    +0.000 C 
ENDROOT
BRANCH   1   2
ATOM      2  C   UNL     1      47.755   4.396  18.012  0.00  0.00    +0.000 A 
ATOM      3  C   UNL     1      48.984   4.136  18.632  0.00  0.00    +0.000 A 
ATOM      4  C   UNL     1      49.382   4.863  19.759  0.00  0.00    +0.000 A 
ATOM      5  C   UNL     1      48.558   5.862  20.296  0.00  0.00    +0.000 A 
ATOM      6  C   UNL     1      47.320   6.110  19.686  0.00  0.00    +0.000 A 
ATOM      7  C   UNL     1      46.921   5.381  18.559  0.00  0.00    +0.000 A 
BRANCH   5   8
ATOM      8  C   UNL     1      48.988   6.645  21.518  0.00  0.00    +0.000 C 
BRANCH   8   9
ATOM      9  N   UNL     1      48.907   8.085  21.283  0.00  0.00    +0.000 NA
ATOM     10  H   UNL     1      48.979   8.575  22.174  0.00  0.00    +0.000 HD
BRANCH   9  11
ATOM     11  C   UNL     1      49.978   8.546  20.402  0.00  0.00    +0.000 C 
BRANCH  11  12
ATOM     12  C   UNL     1      49.488   8.692  18.980  0.00  0.00    +0.000 A 
ATOM     13  C   UNL     1      50.109   8.005  17.927  0.00  0.00    +0.000 A 
ATOM     14  C   UNL     1      49.630   8.132  16.619  0.00  0.00    +0.000 A 
ATOM     15  C   UNL     1      48.530   8.945  16.352  0.00  0.00    +0.000 A 
ATOM     16  C   UNL     1      47.907   9.635  17.389  0.00  0.00    +0.000 A 
ATOM     17  C   UNL     1      48.382   9.508  18.695  0.00  0.00    +0.000 A 
ENDBRANCH  11  12
ENDBRANCH   9  11
ENDBRANCH   8   9
ENDBRANCH   5   8
ENDBRANCH   1   2
BRANCH   1  20
ATOM     18  C   UNL     1      46.913   4.128  14.432  0.00  0.00    +0.000 C 
ATOM     19  O   UNL     1      47.394   3.051  14.088  0.00  0.00    +0.000 OA
ATOM     20  N   UNL     1      46.813   4.489  15.758  0.00  0.00    +0.000 N 
ATOM     21  H   UNL     1      46.653   5.460  15.979  0.00  0.00    +0.000 HD
BRANCH  18  31
ATOM     22  C   UNL     1      48.558   6.708  13.165  0.00  0.00    +0.000 C 
ATOM     23  C   UNL     1      47.177   6.206  12.932  0.00  0.00    +0.000 A 
ATOM     24  N   UNL     1      46.334   6.893  12.090  0.00  0.00    +0.000 N 
ATOM     25  C   UNL     1      45.091   6.315  12.055  0.00  0.00    +0.000 A 
ATOM     26  C   UNL     1      43.945   6.691  11.343  0.00  0.00    +0.000 A 
ATOM     27  C   UNL     1      42.798   5.908  11.499  0.00  0.00    +0.000 A 
ATOM     28  C   UNL     1      42.801   4.798  12.338  0.00  0.00    +0.000 A 
ATOM     29  C   UNL     1      43.956   4.444  13.047  0.00  0.00    +0.000 A 
ATOM     30  C   UNL     1      45.132   5.214  12.907  0.00  0.00    +0.000 A 
ATOM     31  C   UNL     1      46.461   5.131  13.462  0.00  0.00    +0.000 A 
ATOM     32  H   UNL     1      46.578   7.731  11.581  0.00  0.00    +0.000 HD
ENDBRANCH  18  31
ENDBRANCH   1  20
TORSDOF 7
ENDMDL
