MODEL 1
REMARK VINA RESULT:    -7.388      0.000      0.000
REMARK INTER + INTRA:          -9.430
REMARK INTER:                  -8.684
REMARK INTRA:                  -0.746
REMARK UNBOUND:                -0.746
REMARK  Name = 
REMARK  4 active torsions:
REMARK  status: ('A' for Active; 'I' for Inactive)
REMARK    1  A    between atoms: C_1  and  C_2
REMARK    2  A    between atoms: N_6  and  C_7
REMARK    3  A    between atoms: C_7  and  C_8
REMARK    4  A    between atoms: C_13  and  N_14
REMARK                            x       y       z     vdW  Elec       q    Type
REMARK                         _______ _______ _______ _____ _____    ______ ____
ROOT
ATOM      1  C   UNL     1      45.865   4.971  12.909  0.00  0.00    +0.000 A 
ATOM      2  C   UNL     1      46.735   6.008  12.548  0.00  0.00    +0.000 A 
ATOM      3  C   UNL     1      47.737   6.419  13.418  0.00  0.00    +0.000 A 
ATOM      4  C   UNL     1      47.902   5.770  14.640  0.00  0.00    +0.000 A 
ATOM      5  F   UNL     1      48.802   6.272  15.498  0.00  0.00    +0.000 F 
ATOM      6  C   UNL     1      47.155   4.630  14.977  0.00  0.00    +0.000 A 
ATOM      7  C   UNL     1      46.170   4.228  14.061  0.00  0.00    +0.000 A 
ENDROOT
BRANCH   6   8
ATOM      8  N   UNL     1      47.236   3.943  16.178  0.00  0.00    +0.000 N 
ATOM      9  C   UNL     1      46.994   4.618  17.461  0.00  0.00    +0.000 C 
ATOM     10  C   UNL     1      48.292   4.846  18.243  0.00  0.00    +0.000 C 
ATOM     11  O   UNL     1      49.063   3.638  18.362  0.00  0.00    +0.000 OA
ATOM     12  C   UNL     1      49.407   3.148  17.057  0.00  0.00    +0.000 C 
ATOM     13  C   UNL     1      48.153   2.793  16.244  0.00  0.00    +0.000 C 
ENDBRANCH   6   8
BRANCH   1  14
ATOM     14  C   UNL     1      44.529   4.818  12.201  0.00  0.00    +0.000 C 
ATOM     15  C   UNL     1      43.231   4.883  13.011  0.00  0.00    +0.000 C 
ATOM     16  C   UNL     1      43.681   6.078  12.252  0.00  0.00    +0.000 C 
BRANCH  14  22
ATOM     17  C   UNL     1      46.614   2.739   6.106  0.00  0.00    +0.000 C 
ATOM     18  C   UNL     1      46.185   3.115   7.487  0.00  0.00    +0.000 A 
ATOM     19  C   UNL     1      46.103   4.436   7.926  0.00  0.00    +0.000 A 
ATOM     20  C   UNL     1      45.593   4.709   9.207  0.00  0.00    +0.000 A 
ATOM     21  C   UNL     1      45.179   3.659  10.000  0.00  0.00    +0.000 A 
ATOM     22  N   UNL     1      44.494   3.764  11.199  0.00  0.00    +0.000 N 
ATOM     23  N   UNL     1      45.309   2.370   9.605  0.00  0.00    +0.000 NA
ATOM     24  C   UNL     1      45.805   2.126   8.378  0.00  0.00    +0.000 A 
ATOM     25  H   UNL     1      44.383   2.816  11.539  0.00  0.00    +0.000 HD
ENDBRANCH  14  22
ENDBRANCH   1  14
TORSDOF 3
ENDMDL
MODEL 2
REMARK VINA RESULT:    -7.222      2.703      3.709
REMARK INTER + INTRA:          -9.235
REMARK INTER:                  -8.320
REMARK INTRA:                  -0.914
REMARK UNBOUND:                -0.746
REMARK  Name = 
REMARK  4 active torsions:
REMARK  status: ('A' for Active; 'I' for Inactive)
REMARK    1  A    between atoms: C_1  and  C_2
REMARK    2  A    between atoms: N_6  and  C_7
REMARK    3  A    between atoms: C_7  and  C_8
REMARK    4  A    between atoms: C_13  and  N_14
REMARK                            x       y       z     vdW  Elec       q    Type
REMARK                         _______ _______ _______ _____ _____    ______ ____
ROOT
ATOM      1  C   UNL     1      44.802   5.281  12.601  0.00  0.00    +0.000 A 
ATOM      2  C   UNL     1      45.169   4.134  13.317  0.00  0.00    +0.000 A 
ATOM      3  C   UNL     1      46.353   4.110  14.045  0.00  0.00    +0.000 A 
ATOM      4  C   UNL     1      47.159   5.246  14.093  0.00  0.00    +0.000 A 
ATOM      5  F   UNL     1      48.346   5.143  14.708  0.00  0.00    +0.000 F 
ATOM      6  C   UNL     1      46.756   6.461  13.518  0.00  0.00    +0.000 A 
ATOM      7  C   UNL     1      45.542   6.455  12.814  0.00  0.00    +0.000 A 
ENDROOT
BRANCH   6   8
ATOM      8  N   UNL     1      47.506   7.627  13.497  0.00  0.00    +0.000 N 
ATOM      9  C   UNL     1      46.863   8.946  13.414  0.00  0.00    +0.000 C 
ATOM     10  C   UNL     1      47.025   9.578  12.027  0.00  0.00    +0.000 C 
ATOM     11  O   UNL     1      48.398   9.577  11.598  0.00  0.00    +0.000 OA
ATOM     12  C   UNL     1      48.889   8.228  11.536  0.00  0.00    +0.000 C 
ATOM     13  C   UNL     1      48.858   7.557  12.917  0.00  0.00    +0.000 C 
ENDBRANCH   6   8
BRANCH   1  14
ATOM     14  C   UNL     1      43.787   5.180  11.473  0.00  0.00    +0.000 C 
ATOM     15  C   UNL     1      42.320   5.530  11.740  0.00  0.00    +0.000 C 
ATOM     16  C   UNL     1      43.202   6.526  11.077  0.00  0.00    +0.000 C 
BRANCH  14  22
ATOM     17  C   UNL     1      47.065   2.200   6.355  0.00  0.00    +0.000 C 
ATOM     18  C   UNL     1      46.359   2.780   7.537  0.00  0.00    +0.000 A 
ATOM     19  C   UNL     1      46.249   4.153   7.760  0.00  0.00    +0.000 A 
ATOM     20  C   UNL     1      45.482   4.618   8.842  0.00  0.00    +0.000 A 
ATOM     21  C   UNL     1      44.850   3.702   9.657  0.00  0.00    +0.000 A 
ATOM     22  N   UNL     1      43.922   3.993  10.644  0.00  0.00    +0.000 N 
ATOM     23  N   UNL     1      45.000   2.367   9.484  0.00  0.00    +0.000 NA
ATOM     24  C   UNL     1      45.742   1.938   8.446  0.00  0.00    +0.000 A 
ATOM     25  H   UNL     1      43.691   3.106  11.077  0.00  0.00    +0.000 HD
ENDBRANCH  14  22
ENDBRANCH   1  14
TORSDOF 3
ENDMDL
MODEL 3
REMARK VINA RESULT:    -6.685      1.490      2.106
REMARK INTER + INTRA:          -8.603
REMARK INTER:                  -8.457
REMARK INTRA:                  -0.146
REMARK UNBOUND:                -0.746
REMARK  Name = 
REMARK  4 active torsions:
REMARK  status: ('A' for Active; 'I' for Inactive)
REMARK    1  A    between atoms: C_1  and  C_2
REMARK    2  A    between atoms: N_6  and  C_7
REMARK    3  A    between atoms: C_7  and  C_8
REMARK    4  A    between atoms: C_13  and  N_14
REMARK                            x       y       z     vdW  Elec       q    Type
REMARK                         _______ _______ _______ _____ _____    ______ ____
ROOT
ATOM      1  C   UNL     1      45.002   5.850  11.781  0.00  0.00    +0.000 A 
ATOM      2  C   UNL     1      44.994   7.211  11.449  0.00  0.00    +0.000 A 
ATOM      3  C   UNL     1      45.910   8.081  12.026  0.00  0.00    +0.000 A 
ATOM      4  C   UNL     1      46.867   7.589  12.912  0.00  0.00    +0.000 A 
ATOM      5  F   UNL     1      47.656   8.478  13.534  0.00  0.00    +0.000 F 
ATOM      6  C   UNL     1      47.010   6.215  13.156  0.00  0.00    +0.000 A 
ATOM      7  C   UNL     1      46.083   5.363  12.534  0.00  0.00    +0.000 A 
ENDROOT
BRANCH   6   8
ATOM      8  N   UNL     1      47.914   5.646  14.039  0.00  0.00    +0.000 N 
ATOM      9  C   UNL     1      47.577   4.436  14.802  0.00  0.00    +0.000 C 
ATOM     10  C   UNL     1      47.310   4.744  16.280  0.00  0.00    +0.000 C 
ATOM     11  O   UNL     1      48.373   5.518  16.864  0.00  0.00    +0.000 OA
ATOM     12  C   UNL     1      48.511   6.765  16.164  0.00  0.00    +0.000 C 
ATOM     13  C   UNL     1      48.886   6.541  14.691  0.00  0.00    +0.000 C 
ENDBRANCH   6   8
BRANCH   1  14
ATOM     14  C   UNL     1      43.769   4.997  11.527  0.00  0.00    +0.000 C 
ATOM     15  C   UNL     1      42.787   4.726  12.671  0.00  0.00    +0.000 C 
ATOM     16  C   UNL     1      42.470   5.773  11.665  0.00  0.00    +0.000 C 
BRANCH  14  22
ATOM     17  C   UNL     1      47.084   2.300   6.279  0.00  0.00    +0.000 C 
ATOM     18  C   UNL     1      46.384   2.823   7.490  0.00  0.00    +0.000 A 
ATOM     19  C   UNL     1      46.100   4.175   7.681  0.00  0.00    +0.000 A 
ATOM     20  C   UNL     1      45.348   4.572   8.801  0.00  0.00    +0.000 A 
ATOM     21  C   UNL     1      44.905   3.610   9.684  0.00  0.00    +0.000 A 
ATOM     22  N   UNL     1      44.013   3.808  10.725  0.00  0.00    +0.000 N 
ATOM     23  N   UNL     1      45.226   2.302   9.539  0.00  0.00    +0.000 NA
ATOM     24  C   UNL     1      45.951   1.939   8.464  0.00  0.00    +0.000 A 
ATOM     25  H   UNL     1      43.936   2.915  11.198  0.00  0.00    +0.000 HD
ENDBRANCH  14  22
ENDBRANCH   1  14
TORSDOF 3
ENDMDL
MODEL 4
REMARK VINA RESULT:    -6.555      3.357      7.301
REMARK INTER + INTRA:          -8.451
REMARK INTER:                  -7.548
REMARK INTRA:                  -0.903
REMARK UNBOUND:                -0.746
REMARK  Name = 
REMARK  4 active torsions:
REMARK  status: ('A' for Active; 'I' for Inactive)
REMARK    1  A    between atoms: C_1  and  C_2
REMARK    2  A    between atoms: N_6  and  C_7
REMARK    3  A    between atoms: C_7  and  C_8
REMARK    4  A    between atoms: C_13  and  N_14
REMARK                            x       y       z     vdW  Elec       q    Type
REMARK                         _______ _______ _______ _____ _____    ______ ____
ROOT
ATOM      1  C   UNL     1      47.045   7.986  12.534  0.00  0.00    +0.000 A 
ATOM      2  C   UNL     1      46.479   9.249  12.317  0.00  0.00    +0.000 A 
ATOM      3  C   UNL     1      45.204   9.365  11.778  0.00  0.00    +0.000 A 
ATOM      4  C   UNL     1      44.469   8.218  11.487  0.00  0.00    +0.000 A 
ATOM      5  F   UNL     1      43.293   8.372  10.861  0.00  0.00    +0.000 F 
ATOM      6  C   UNL     1      44.932   6.938  11.828  0.00  0.00    +0.000 A 
ATOM      7  C   UNL     1      46.214   6.862  12.397  0.00  0.00    +0.000 A 
ENDROOT
BRANCH   6   8
ATOM      8  N   UNL     1      44.279   5.747  11.552  0.00  0.00    +0.000 N 
ATOM      9  C   UNL     1      43.026   5.390  12.231  0.00  0.00    +0.000 C 
ATOM     10  C   UNL     1      43.232   4.289  13.277  0.00  0.00    +0.000 C 
ATOM     11  O   UNL     1      43.935   3.159  12.730  0.00  0.00    +0.000 OA
ATOM     12  C   UNL     1      45.225   3.572  12.253  0.00  0.00    +0.000 C 
ATOM     13  C   UNL     1      45.100   4.603  11.121  0.00  0.00    +0.000 C 
ENDBRANCH   6   8
BRANCH   1  14
ATOM     14  C   UNL     1      48.550   7.841  12.685  0.00  0.00    +0.000 C 
ATOM     15  C   UNL     1      49.427   7.706  11.437  0.00  0.00    +0.000 C 
ATOM     16  C   UNL     1      49.321   9.022  12.118  0.00  0.00    +0.000 C 
BRANCH  14  22
ATOM     17  C   UNL     1      48.947   6.743  19.352  0.00  0.00    +0.000 C 
ATOM     18  C   UNL     1      48.818   6.900  17.872  0.00  0.00    +0.000 A 
ATOM     19  C   UNL     1      48.723   8.142  17.244  0.00  0.00    +0.000 A 
ATOM     20  C   UNL     1      48.707   8.206  15.840  0.00  0.00    +0.000 A 
ATOM     21  C   UNL     1      48.790   7.036  15.115  0.00  0.00    +0.000 A 
ATOM     22  N   UNL     1      48.966   6.936  13.745  0.00  0.00    +0.000 N 
ATOM     23  N   UNL     1      48.822   5.823  15.717  0.00  0.00    +0.000 NA
ATOM     24  C   UNL     1      48.832   5.778  17.062  0.00  0.00    +0.000 A 
ATOM     25  H   UNL     1      48.942   5.945  13.533  0.00  0.00    +0.000 HD
ENDBRANCH  14  22
ENDBRANCH   1  14
TORSDOF 3
ENDMDL
MODEL 5
REMARK VINA RESULT:    -6.208      3.398      7.685
REMARK INTER + INTRA:          -8.043
REMARK INTER:                  -7.544
REMARK INTRA:                  -0.499
REMARK UNBOUND:                -0.746
REMARK  Name = 
REMARK  4 active torsions:
REMARK  status: ('A' for Active; 'I' for Inactive)
REMARK    1  A    between atoms: C_1  and  C_2
REMARK    2  A    between atoms: N_6  and  C_7
REMARK    3  A    between atoms: C_7  and  C_8
REMARK    4  A    between atoms: C_13  and  N_14
REMARK                            x       y       z     vdW  Elec       q    Type
REMARK                         _______ _______ _______ _____ _____    ______ ____
ROOT
ATOM      1  C   UNL     1      48.375   5.789  15.911  0.00  0.00    +0.000 A 
ATOM      2  C   UNL     1      49.410   6.714  15.722  0.00  0.00    +0.000 A 
ATOM      3  C   UNL     1      49.650   7.253  14.464  0.00  0.00    +0.000 A 
ATOM      4  C   UNL     1      48.833   6.899  13.393  0.00  0.00    +0.000 A 
ATOM      5  F   UNL     1      49.170   7.350  12.175  0.00  0.00    +0.000 F 
ATOM      6  C   UNL     1      47.694   6.098  13.566  0.00  0.00    +0.000 A 
ATOM      7  C   UNL     1      47.467   5.594  14.857  0.00  0.00    +0.000 A 
ENDROOT
BRANCH   6   8
ATOM      8  N   UNL     1      46.845   5.679  12.554  0.00  0.00    +0.000 N 
ATOM      9  C   UNL     1      46.476   6.575  11.449  0.00  0.00    +0.000 C 
ATOM     10  C   UNL     1      45.033   7.077  11.574  0.00  0.00    +0.000 C 
ATOM     11  O   UNL     1      44.107   5.995  11.775  0.00  0.00    +0.000 OA
ATOM     12  C   UNL     1      44.440   5.284  12.978  0.00  0.00    +0.000 C 
ATOM     13  C   UNL     1      45.839   4.656  12.888  0.00  0.00    +0.000 C 
ENDBRANCH   6   8
BRANCH   1  14
ATOM     14  C   UNL     1      48.383   4.875  17.126  0.00  0.00    +0.000 C 
ATOM     15  C   UNL     1      47.275   5.003  18.176  0.00  0.00    +0.000 C 
ATOM     16  C   UNL     1      47.201   3.921  17.160  0.00  0.00    +0.000 C 
BRANCH  14  22
ATOM     17  C   UNL     1      53.713   0.783  17.934  0.00  0.00    +0.000 C 
ATOM     18  C   UNL     1      52.597   1.755  17.730  0.00  0.00    +0.000 A 
ATOM     19  C   UNL     1      51.301   1.366  17.393  0.00  0.00    +0.000 A 
ATOM     20  C   UNL     1      50.286   2.336  17.319  0.00  0.00    +0.000 A 
ATOM     21  C   UNL     1      50.597   3.652  17.587  0.00  0.00    +0.000 A 
ATOM     22  N   UNL     1      49.691   4.690  17.733  0.00  0.00    +0.000 N 
ATOM     23  N   UNL     1      51.864   4.047  17.857  0.00  0.00    +0.000 NA
ATOM     24  C   UNL     1      52.825   3.107  17.919  0.00  0.00    +0.000 A 
ATOM     25  H   UNL     1      50.248   5.525  17.880  0.00  0.00    +0.000 HD
ENDBRANCH  14  22
ENDBRANCH   1  14
TORSDOF 3
ENDMDL
MODEL 6
REMARK VINA RESULT:    -5.935      1.947      3.114
REMARK INTER + INTRA:          -7.723
REMARK INTER:                  -7.211
REMARK INTRA:                  -0.511
REMARK UNBOUND:                -0.746
REMARK  Name = 
REMARK  4 active torsions:
REMARK  status: ('A' for Active; 'I' for Inactive)
REMARK    1  A    between atoms: C_1  and  C_2
REMARK    2  A    between atoms: N_6  and  C_7
REMARK    3  A    between atoms: C_7  and  C_8
REMARK    4  A    between atoms: C_13  and  N_14
REMARK                            x       y       z     vdW  Elec       q    Type
REMARK                         _______ _______ _______ _____ _____    ______ ____
ROOT
ATOM      1  C   UNL     1      48.222   7.083  14.047  0.00  0.00    +0.000 A 
ATOM      2  C   UNL     1      49.346   7.904  13.891  0.00  0.00    +0.000 A 
ATOM      3  C   UNL     1      50.325   7.950  14.876  0.00  0.00    +0.000 A 
ATOM      4  C   UNL     1      50.205   7.146  16.008  0.00  0.00    +0.000 A 
ATOM      5  F   UNL     1      51.109   7.307  16.986  0.00  0.00    +0.000 F 
ATOM      6  C   UNL     1      49.177   6.199  16.135  0.00  0.00    +0.000 A 
ATOM      7  C   UNL     1      48.222   6.162  15.107  0.00  0.00    +0.000 A 
ENDROOT
BRANCH   6   8
ATOM      8  N   UNL     1      48.971   5.382  17.235  0.00  0.00    +0.000 N 
ATOM      9  C   UNL     1      49.998   4.429  17.681  0.00  0.00    +0.000 C 
ATOM     10  C   UNL     1      49.624   2.982  17.342  0.00  0.00    +0.000 C 
ATOM     11  O   UNL     1      48.298   2.654  17.792  0.00  0.00    +0.000 OA
ATOM     12  C   UNL     1      47.341   3.522  17.164  0.00  0.00    +0.000 C 
ATOM     13  C   UNL     1      47.585   4.991  17.543  0.00  0.00    +0.000 C 
ENDBRANCH   6   8
BRANCH   1  14
ATOM     14  C   UNL     1      46.966   7.350  13.233  0.00  0.00    +0.000 C 
ATOM     15  C   UNL     1      46.210   8.669  13.418  0.00  0.00    +0.000 C 
ATOM     16  C   UNL     1      47.123   8.505  12.258  0.00  0.00    +0.000 C 
BRANCH  14  22
ATOM     17  C   UNL     1      44.306   2.600   9.210  0.00  0.00    +0.000 C 
ATOM     18  C   UNL     1      44.917   3.579  10.159  0.00  0.00    +0.000 A 
ATOM     19  C   UNL     1      45.457   4.799   9.752  0.00  0.00    +0.000 A 
ATOM     20  C   UNL     1      45.920   5.707  10.719  0.00  0.00    +0.000 A 
ATOM     21  C   UNL     1      45.824   5.371  12.053  0.00  0.00    +0.000 A 
ATOM     22  N   UNL     1      46.064   6.214  13.126  0.00  0.00    +0.000 N 
ATOM     23  N   UNL     1      45.355   4.165  12.455  0.00  0.00    +0.000 NA
ATOM     24  C   UNL     1      44.921   3.305  11.516  0.00  0.00    +0.000 A 
ATOM     25  H   UNL     1      45.945   5.646  13.957  0.00  0.00    +0.000 HD
ENDBRANCH  14  22
ENDBRANCH   1  14
TORSDOF 3
ENDMDL
MODEL 7
REMARK VINA RESULT:    -5.679      3.076      4.465
REMARK INTER + INTRA:          -7.421
REMARK INTER:                  -6.416
REMARK INTRA:                  -1.004
REMARK UNBOUND:                -0.746
REMARK  Name = 
REMARK  4 active torsions:
REMARK  status: ('A' for Active; 'I' for Inactive)
REMARK    1  A    between atoms: C_1  and  C_2
REMARK    2  A    between atoms: N_6  and  C_7
REMARK    3  A    between atoms: C_7  and  C_8
REMARK    4  A    between atoms: C_13  and  N_14
REMARK                            x       y       z     vdW  Elec       q    Type
REMARK                         _______ _______ _______ _____ _____    ______ ____
ROOT
ATOM      1  C   UNL     1      48.673   8.113  14.181  0.00  0.00    +0.000 A 
ATOM      2  C   UNL     1      48.336   9.223  14.967  0.00  0.00    +0.000 A 
ATOM      3  C   UNL     1      48.282   9.113  16.351  0.00  0.00    +0.000 A 
ATOM      4  C   UNL     1      48.601   7.902  16.962  0.00  0.00    +0.000 A 
ATOM      5  F   UNL     1      48.423   7.806  18.288  0.00  0.00    +0.000 F 
ATOM      6  C   UNL     1      49.090   6.811  16.227  0.00  0.00    +0.000 A 
ATOM      7  C   UNL     1      49.158   6.968  14.833  0.00  0.00    +0.000 A 
ENDROOT
BRANCH   6   8
ATOM      8  N   UNL     1      49.406   5.567  16.750  0.00  0.00    +0.000 N 
ATOM      9  C   UNL     1      48.357   4.638  17.194  0.00  0.00    +0.000 C 
ATOM     10  C   UNL     1      48.278   4.547  18.722  0.00  0.00    +0.000 C 
ATOM     11  O   UNL     1      49.565   4.287  19.308  0.00  0.00    +0.000 OA
ATOM     12  C   UNL     1      50.479   5.342  18.968  0.00  0.00    +0.000 C 
ATOM     13  C   UNL     1      50.694   5.428  17.449  0.00  0.00    +0.000 C 
ENDBRANCH   6   8
BRANCH   1  14
ATOM     14  C   UNL     1      48.306   8.086  12.705  0.00  0.00    +0.000 C 
ATOM     15  C   UNL     1      48.847   9.172  11.771  0.00  0.00    +0.000 C 
ATOM     16  C   UNL     1      49.501   7.838  11.800  0.00  0.00    +0.000 C 
BRANCH  14  22
ATOM     17  C   UNL     1      43.462   3.359  12.640  0.00  0.00    +0.000 C 
ATOM     18  C   UNL     1      44.473   4.457  12.706  0.00  0.00    +0.000 A 
ATOM     19  C   UNL     1      45.847   4.232  12.627  0.00  0.00    +0.000 A 
ATOM     20  C   UNL     1      46.726   5.329  12.595  0.00  0.00    +0.000 A 
ATOM     21  C   UNL     1      46.205   6.606  12.638  0.00  0.00    +0.000 A 
ATOM     22  N   UNL     1      46.910   7.781  12.436  0.00  0.00    +0.000 N 
ATOM     23  N   UNL     1      44.877   6.832  12.775  0.00  0.00    +0.000 NA
ATOM     24  C   UNL     1      44.049   5.771  12.809  0.00  0.00    +0.000 A 
ATOM     25  H   UNL     1      46.244   8.531  12.579  0.00  0.00    +0.000 HD
ENDBRANCH  14  22
ENDBRANCH   1  14
TORSDOF 3
ENDMDL
MODEL 8
REMARK VINA RESULT:    -5.675      3.038      3.787
REMARK INTER + INTRA:          -7.417
REMARK INTER:                  -6.543
REMARK INTRA:                  -0.873
REMARK UNBOUND:                -0.746
REMARK  Name = 
REMARK  4 active torsions:
REMARK  status: ('A' for Active; 'I' for Inactive)
REMARK    1  A    between atoms: C_1  and  C_2
REMARK    2  A    between atoms: N_6  and  C_7
REMARK    3  A    between atoms: C_7  and  C_8
REMARK    4  A    between atoms: C_13  and  N_14
REMARK                            x       y       z     vdW  Elec       q    Type
REMARK                         _______ _______ _______ _____ _____    ______ ____
ROOT
ATOM      1  C   UNL     1      47.754   7.504  12.733  0.00  0.00    +0.000 A 
ATOM      2  C   UNL     1      48.686   7.693  11.704  0.00  0.00    +0.000 A 
ATOM      3  C   UNL     1      50.021   7.937  12.001  0.00  0.00    +0.000 A 
ATOM      4  C   UNL     1      50.442   7.956  13.330  0.00  0.00    +0.000 A 
ATOM      5  F   UNL     1      51.711   8.310  13.577  0.00  0.00    +0.000 F 
ATOM      6  C   UNL     1      49.576   7.621  14.383  0.00  0.00    +0.000 A 
ATOM      7  C   UNL     1      48.241   7.354  14.042  0.00  0.00    +0.000 A 
ENDROOT
BRANCH   6   8
ATOM      8  N   UNL     1      49.905   7.641  15.729  0.00  0.00    +0.000 N 
ATOM      9  C   UNL     1      50.164   8.905  16.433  0.00  0.00    +0.000 C 
ATOM     10  C   UNL     1      51.655   9.104  16.725  0.00  0.00    +0.000 C 
ATOM     11  O   UNL     1      52.231   7.955  17.371  0.00  0.00    +0.000 OA
ATOM     12  C   UNL     1      52.090   6.800  16.529  0.00  0.00    +0.000 C 
ATOM     13  C   UNL     1      50.612   6.469  16.275  0.00  0.00    +0.000 C 
ENDBRANCH   6   8
BRANCH   1  14
ATOM     14  C   UNL     1      46.270   7.686  12.459  0.00  0.00    +0.000 C 
ATOM     15  C   UNL     1      45.513   8.838  13.126  0.00  0.00    +0.000 C 
ATOM     16  C   UNL     1      45.956   8.973  11.714  0.00  0.00    +0.000 C 
BRANCH  14  22
ATOM     17  C   UNL     1      44.481   2.126   9.039  0.00  0.00    +0.000 C 
ATOM     18  C   UNL     1      44.900   3.296   9.867  0.00  0.00    +0.000 A 
ATOM     19  C   UNL     1      45.351   4.496   9.316  0.00  0.00    +0.000 A 
ATOM     20  C   UNL     1      45.630   5.584  10.161  0.00  0.00    +0.000 A 
ATOM     21  C   UNL     1      45.445   5.439  11.521  0.00  0.00    +0.000 A 
ATOM     22  N   UNL     1      45.499   6.452  12.463  0.00  0.00    +0.000 N 
ATOM     23  N   UNL     1      45.065   4.260  12.069  0.00  0.00    +0.000 NA
ATOM     24  C   UNL     1      44.807   3.227  11.246  0.00  0.00    +0.000 A 
ATOM     25  H   UNL     1      45.363   6.003  13.361  0.00  0.00    +0.000 HD
ENDBRANCH  14  22
ENDBRANCH   1  14
TORSDOF 3
ENDMDL
MODEL 9
REMARK VINA RESULT:    -5.552      3.394      5.497
REMARK INTER + INTRA:          -7.271
REMARK INTER:                  -6.250
REMARK INTRA:                  -1.021
REMARK UNBOUND:                -0.746
REMARK  Name = 
REMARK  4 active torsions:
REMARK  status: ('A' for Active; 'I' for Inactive)
REMARK    1  A    between atoms: C_1  and  C_2
REMARK    2  A    between atoms: N_6  and  C_7
REMARK    3  A    between atoms: C_7  and  C_8
REMARK    4  A    between atoms: C_13  and  N_14
REMARK                            x       y       z     vdW  Elec       q    Type
REMARK                         _______ _______ _______ _____ _____    ______ ____
ROOT
ATOM      1  C   UNL     1      49.247   7.705  16.652  0.00  0.00    +0.000 A 
ATOM      2  C   UNL     1      48.647   8.588  17.559  0.00  0.00    +0.000 A 
ATOM      3  C   UNL     1      47.869   8.101  18.603  0.00  0.00    +0.000 A 
ATOM      4  C   UNL     1      47.717   6.726  18.769  0.00  0.00    +0.000 A 
ATOM      5  F   UNL     1      46.866   6.303  19.715  0.00  0.00    +0.000 F 
ATOM      6  C   UNL     1      48.421   5.804  17.979  0.00  0.00    +0.000 A 
ATOM      7  C   UNL     1      49.219   6.333  16.952  0.00  0.00    +0.000 A 
ENDROOT
BRANCH   6   8
ATOM      8  N   UNL     1      48.308   4.426  18.061  0.00  0.00    +0.000 N 
ATOM      9  C   UNL     1      49.463   3.585  18.408  0.00  0.00    +0.000 C 
ATOM     10  C   UNL     1      50.006   2.825  17.193  0.00  0.00    +0.000 C 
ATOM     11  O   UNL     1      48.965   2.117  16.497  0.00  0.00    +0.000 OA
ATOM     12  C   UNL     1      47.969   3.044  16.037  0.00  0.00    +0.000 C 
ATOM     13  C   UNL     1      47.298   3.773  17.211  0.00  0.00    +0.000 C 
ENDBRANCH   6   8
BRANCH   1  14
ATOM     14  C   UNL     1      49.704   8.206  15.291  0.00  0.00    +0.000 C 
ATOM     15  C   UNL     1      50.904   9.152  15.196  0.00  0.00    +0.000 C 
ATOM     16  C   UNL     1      51.086   7.706  14.906  0.00  0.00    +0.000 C 
BRANCH  14  22
ATOM     17  C   UNL     1      44.592   6.183  11.343  0.00  0.00    +0.000 C 
ATOM     18  C   UNL     1      45.659   6.689  12.257  0.00  0.00    +0.000 A 
ATOM     19  C   UNL     1      46.769   5.929  12.626  0.00  0.00    +0.000 A 
ATOM     20  C   UNL     1      47.779   6.515  13.409  0.00  0.00    +0.000 A 
ATOM     21  C   UNL     1      47.649   7.834  13.791  0.00  0.00    +0.000 A 
ATOM     22  N   UNL     1      48.624   8.605  14.402  0.00  0.00    +0.000 N 
ATOM     23  N   UNL     1      46.548   8.561  13.487  0.00  0.00    +0.000 NA
ATOM     24  C   UNL     1      45.588   7.984  12.741  0.00  0.00    +0.000 A 
ATOM     25  H   UNL     1      48.193   9.504  14.583  0.00  0.00    +0.000 HD
ENDBRANCH  14  22
ENDBRANCH   1  14
TORSDOF 3
ENDMDL
