MODEL 1
REMARK VINA RESULT:    -8.181      0.000      0.000
REMARK INTER + INTRA:         -12.063
REMARK INTER:                 -11.050
REMARK INTRA:                  -1.013
REMARK UNBOUND:                -1.013
REMARK  Name = 
REMARK  6 active torsions:
REMARK  status: ('A' for Active; 'I' for Inactive)
REMARK    1  A    between atoms: C_2  and  C_25
REMARK    2  A    between atoms: N_3  and  C_4
REMARK    3  A    between atoms: C_4  and  C_5
REMARK    4  A    between atoms: C_8  and  C_9
REMARK    5  A    between atoms: C_9  and  N_10
REMARK    6  A    between atoms: C_11  and  C_13
REMARK                            x       y       z     vdW  Elec       q    Type
REMARK                         _______ _______ _______ _____ _____    ______ ____
ROOT
ATOM      1  C   UNL     1      44.762   5.084  10.660  0.00  0.00    +0.000 A 
ATOM      2  C   UNL     1      45.881   5.780  10.184  0.00  0.00    +0.000 A 
ATOM      3  C   UNL     1      46.554   6.693  11.002  0.00  0.00    +0.000 A 
ATOM      4  C   UNL     1      46.135   6.911  12.321  0.00  0.00    +0.000 A 
ATOM      5  C   UNL     1      45.017   6.214  12.797  0.00  0.00    +0.000 A 
ATOM      6  C   UNL     1      44.344   5.301  11.979  0.00  0.00    +0.000 A 
ENDROOT
BRANCH   1   7
ATOM      7  C   UNL     1      44.033   4.105   9.777  0.00  0.00    +0.000 C 
BRANCH   7  10
ATOM      8  O   UNL     1      45.702   1.893   9.517  0.00  0.00    +0.000 OA
ATOM      9  C   UNL     1      45.564   2.636   8.550  0.00  0.00    +0.000 C 
ATOM     10  N   UNL     1      44.801   3.780   8.597  0.00  0.00    +0.000 N 
ATOM     11  H   UNL     1      44.656   4.347   7.770  0.00  0.00    +0.000 HD
BRANCH   9  12
ATOM     12  C   UNL     1      46.284   2.325   7.287  0.00  0.00    +0.000 A 
ATOM     13  C   UNL     1      46.531   3.391   6.408  0.00  0.00    +0.000 A 
ATOM     14  C   UNL     1      47.206   3.171   5.209  0.00  0.00    +0.000 A 
ATOM     15  C   UNL     1      47.625   1.884   4.923  0.00  0.00    +0.000 A 
ATOM     16  N   UNL     1      47.417   0.834   5.745  0.00  0.00    +0.000 NA
ATOM     17  C   UNL     1      46.761   1.077   6.907  0.00  0.00    +0.000 A 
ATOM     18 CL   UNL     1      46.639  -0.351   7.865  0.00  0.00    +0.000 Cl
ENDBRANCH   9  12
ENDBRANCH   7  10
ENDBRANCH   1   7
BRANCH   4  19
ATOM     19  C   UNL     1      46.840   7.911  13.203  0.00  0.00    +0.000 C 
BRANCH  19  20
ATOM     20  N   UNL     1      47.322   7.292  14.412  0.00  0.00    +0.000 N 
ATOM     21  C   UNL     1      48.594   6.784  14.492  0.00  0.00    +0.000 C 
ATOM     22  O   UNL     1      49.389   6.878  13.561  0.00  0.00    +0.000 OA
ATOM     23  H   UNL     1      46.626   7.008  15.095  0.00  0.00    +0.000 HD
BRANCH  21  24
ATOM     24  C   UNL     1      48.982   6.174  15.770  0.00  0.00    +0.000 A 
ATOM     25  C   UNL     1      50.055   6.696  16.483  0.00  0.00    +0.000 A 
ATOM     26  S   UNL     1      50.339   5.908  17.968  0.00  0.00    +0.000 S 
ATOM     27  C   UNL     1      49.073   4.807  17.689  0.00  0.00    +0.000 A 
ATOM     28  N   UNL     1      48.791   3.825  18.587  0.00  0.00    +0.000 NA
ATOM     29  C   UNL     1      47.828   3.039  18.234  0.00  0.00    +0.000 A 
ATOM     30  N   UNL     1      47.118   3.151  17.067  0.00  0.00    +0.000 N 
ATOM     31  C   UNL     1      47.351   4.142  16.143  0.00  0.00    +0.000 A 
ATOM     32  O   UNL     1      46.674   4.234  15.123  0.00  0.00    +0.000 OA
ATOM     33  C   UNL     1      48.431   5.047  16.486  0.00  0.00    +0.000 A 
ATOM     34  H   UNL     1      46.372   2.508  16.852  0.00  0.00    +0.000 HD
ENDBRANCH  21  24
ENDBRANCH  19  20
ENDBRANCH   4  19
TORSDOF 6
ENDMDL
MODEL 2
REMARK VINA RESULT:    -7.603      3.611      8.851
REMARK INTER + INTRA:         -11.284
REMARK INTER:                 -10.197
REMARK INTRA:                  -1.087
REMARK UNBOUND:                -1.013
REMARK  Name = 
REMARK  6 active torsions:
REMARK  status: ('A' for Active; 'I' for Inactive)
REMARK    1  A    between atoms: C_2  and  C_25
REMARK    2  A    between atoms: N_3  and  C_4
REMARK    3  A    between atoms: C_4  and  C_5
REMARK    4  A    between atoms: C_8  and  C_9
REMARK    5  A    between atoms: C_9  and  N_10
REMARK    6  A    between atoms: C_11  and  C_13
REMARK                            x       y       z     vdW  Elec       q    Type
REMARK                         _______ _______ _______ _____ _____    ______ ____
ROOT
ATOM      1  C   UNL     1      50.250   7.318  15.500  0.00  0.00    +0.000 A 
ATOM      2  C   UNL     1      50.763   7.834  14.302  0.00  0.00    +0.000 A 
ATOM      3  C   UNL     1      49.937   7.996  13.184  0.00  0.00    +0.000 A 
ATOM      4  C   UNL     1      48.577   7.667  13.249  0.00  0.00    +0.000 A 
ATOM      5  C   UNL     1      48.065   7.153  14.447  0.00  0.00    +0.000 A 
ATOM      6  C   UNL     1      48.889   6.991  15.565  0.00  0.00    +0.000 A 
ENDROOT
BRANCH   1   7
ATOM      7  C   UNL     1      51.139   7.138  16.702  0.00  0.00    +0.000 C 
BRANCH   7  10
ATOM      8  O   UNL     1      49.976   5.183  18.305  0.00  0.00    +0.000 OA
ATOM      9  C   UNL     1      50.933   4.868  17.605  0.00  0.00    +0.000 C 
ATOM     10  N   UNL     1      51.606   5.775  16.818  0.00  0.00    +0.000 N 
ATOM     11  H   UNL     1      52.356   5.481  16.205  0.00  0.00    +0.000 HD
BRANCH   9  12
ATOM     12  C   UNL     1      51.427   3.467  17.637  0.00  0.00    +0.000 A 
ATOM     13  C   UNL     1      52.733   3.255  18.106  0.00  0.00    +0.000 A 
ATOM     14  C   UNL     1      53.257   1.965  18.168  0.00  0.00    +0.000 A 
ATOM     15  C   UNL     1      52.453   0.914  17.763  0.00  0.00    +0.000 A 
ATOM     16  N   UNL     1      51.190   1.074  17.316  0.00  0.00    +0.000 NA
ATOM     17  C   UNL     1      50.704   2.340  17.269  0.00  0.00    +0.000 A 
ATOM     18 CL   UNL     1      49.063   2.359  16.741  0.00  0.00    +0.000 Cl
ENDBRANCH   9  12
ENDBRANCH   7  10
ENDBRANCH   1   7
BRANCH   4  19
ATOM     19  C   UNL     1      47.685   7.816  12.042  0.00  0.00    +0.000 C 
BRANCH  19  20
ATOM     20  N   UNL     1      46.972   6.594  11.766  0.00  0.00    +0.000 N 
ATOM     21  C   UNL     1      45.621   6.494  11.981  0.00  0.00    +0.000 C 
ATOM     22  O   UNL     1      44.955   7.450  12.370  0.00  0.00    +0.000 OA
ATOM     23  H   UNL     1      47.526   5.749  11.664  0.00  0.00    +0.000 HD
BRANCH  21  24
ATOM     24  C   UNL     1      44.996   5.204  11.667  0.00  0.00    +0.000 A 
ATOM     25  C   UNL     1      44.286   4.527  12.651  0.00  0.00    +0.000 A 
ATOM     26  S   UNL     1      43.578   3.073  12.108  0.00  0.00    +0.000 S 
ATOM     27  C   UNL     1      44.238   3.269  10.553  0.00  0.00    +0.000 A 
ATOM     28  N   UNL     1      44.028   2.339   9.583  0.00  0.00    +0.000 NA
ATOM     29  C   UNL     1      44.614   2.595   8.461  0.00  0.00    +0.000 A 
ATOM     30  N   UNL     1      45.385   3.702   8.220  0.00  0.00    +0.000 N 
ATOM     31  C   UNL     1      45.603   4.681   9.160  0.00  0.00    +0.000 A 
ATOM     32  O   UNL     1      46.271   5.677   8.900  0.00  0.00    +0.000 OA
ATOM     33  C   UNL     1      44.975   4.436  10.444  0.00  0.00    +0.000 A 
ATOM     34  H   UNL     1      45.812   3.848   7.317  0.00  0.00    +0.000 HD
ENDBRANCH  21  24
ENDBRANCH  19  20
ENDBRANCH   4  19
TORSDOF 6
ENDMDL
MODEL 3
REMARK VINA RESULT:    -7.511      4.071      8.633
REMARK INTER + INTRA:         -11.160
REMARK INTER:                 -10.164
REMARK INTRA:                  -0.995
REMARK UNBOUND:                -1.013
REMARK  Name = 
REMARK  6 active torsions:
REMARK  status: ('A' for Active; 'I' for Inactive)
REMARK    1  A    between atoms: C_2  and  C_25
REMARK    2  A    between atoms: N_3  and  C_4
REMARK    3  A    between atoms: C_4  and  C_5
REMARK    4  A    between atoms: C_8  and  C_9
REMARK    5  A    between atoms: C_9  and  N_10
REMARK    6  A    between atoms: C_11  and  C_13
REMARK                            x       y       z     vdW  Elec       q    Type
REMARK                         _______ _______ _______ _____ _____    ______ ____
ROOT
ATOM      1  C   UNL     1      50.155   7.242  15.682  0.00  0.00    +0.000 A 
ATOM      2  C   UNL     1      48.866   6.787  15.374  0.00  0.00    +0.000 A 
ATOM      3  C   UNL     1      48.290   7.066  14.130  0.00  0.00    +0.000 A 
ATOM      4  C   UNL     1      49.001   7.785  13.160  0.00  0.00    +0.000 A 
ATOM      5  C   UNL     1      50.290   8.238  13.468  0.00  0.00    +0.000 A 
ATOM      6  C   UNL     1      50.866   7.959  14.712  0.00  0.00    +0.000 A 
ENDROOT
BRANCH   1   7
ATOM      7  C   UNL     1      50.773   6.947  17.023  0.00  0.00    +0.000 C 
BRANCH   7  10
ATOM      8  O   UNL     1      49.761   4.813  18.493  0.00  0.00    +0.000 OA
ATOM      9  C   UNL     1      50.746   4.618  17.787  0.00  0.00    +0.000 C 
ATOM     10  N   UNL     1      51.348   5.622  17.064  0.00  0.00    +0.000 N 
ATOM     11  H   UNL     1      52.125   5.426  16.444  0.00  0.00    +0.000 HD
BRANCH   9  12
ATOM     12  C   UNL     1      51.351   3.262  17.742  0.00  0.00    +0.000 A 
ATOM     13  C   UNL     1      52.641   3.115  18.274  0.00  0.00    +0.000 A 
ATOM     14  C   UNL     1      53.266   1.869  18.269  0.00  0.00    +0.000 A 
ATOM     15  C   UNL     1      52.576   0.795  17.734  0.00  0.00    +0.000 A 
ATOM     16  N   UNL     1      51.331   0.892  17.223  0.00  0.00    +0.000 NA
ATOM     17  C   UNL     1      50.745   2.116  17.244  0.00  0.00    +0.000 A 
ATOM     18 CL   UNL     1      49.140   2.050  16.617  0.00  0.00    +0.000 Cl
ENDBRANCH   9  12
ENDBRANCH   7  10
ENDBRANCH   1   7
BRANCH   4  19
ATOM     19  C   UNL     1      48.380   8.111  11.826  0.00  0.00    +0.000 C 
BRANCH  19  20
ATOM     20  N   UNL     1      47.658   6.981  11.296  0.00  0.00    +0.000 N 
ATOM     21  C   UNL     1      46.287   6.931  11.335  0.00  0.00    +0.000 C 
ATOM     22  O   UNL     1      45.617   7.862  11.774  0.00  0.00    +0.000 OA
ATOM     23  H   UNL     1      48.185   6.128  11.142  0.00  0.00    +0.000 HD
BRANCH  21  24
ATOM     24  C   UNL     1      45.654   5.734  10.769  0.00  0.00    +0.000 A 
ATOM     25  C   UNL     1      45.783   5.465   9.412  0.00  0.00    +0.000 A 
ATOM     26  S   UNL     1      45.035   4.010   8.927  0.00  0.00    +0.000 S 
ATOM     27  C   UNL     1      44.468   3.714  10.503  0.00  0.00    +0.000 A 
ATOM     28  N   UNL     1      43.716   2.614  10.778  0.00  0.00    +0.000 NA
ATOM     29  C   UNL     1      43.324   2.529  12.006  0.00  0.00    +0.000 A 
ATOM     30  N   UNL     1      43.621   3.442  12.984  0.00  0.00    +0.000 N 
ATOM     31  C   UNL     1      44.398   4.554  12.758  0.00  0.00    +0.000 A 
ATOM     32  O   UNL     1      44.673   5.334  13.665  0.00  0.00    +0.000 OA
ATOM     33  C   UNL     1      44.857   4.702  11.390  0.00  0.00    +0.000 A 
ATOM     34  H   UNL     1      43.288   3.316  13.928  0.00  0.00    +0.000 HD
ENDBRANCH  21  24
ENDBRANCH  19  20
ENDBRANCH   4  19
TORSDOF 6
ENDMDL
MODEL 4
REMARK VINA RESULT:    -7.248      2.044      2.494
REMARK INTER + INTRA:         -10.803
REMARK INTER:                 -10.068
REMARK INTRA:                  -0.735
REMARK UNBOUND:                -1.013
REMARK  Name = 
REMARK  6 active torsions:
REMARK  status: ('A' for Active; 'I' for Inactive)
REMARK    1  A    between atoms: C_2  and  C_25
REMARK    2  A    between atoms: N_3  and  C_4
REMARK    3  A    between atoms: C_4  and  C_5
REMARK    4  A    between atoms: C_8  and  C_9
REMARK    5  A    between atoms: C_9  and  N_10
REMARK    6  A    between atoms: C_11  and  C_13
REMARK                            x       y       z     vdW  Elec       q    Type
REMARK                         _______ _______ _______ _____ _____    ______ ____
ROOT
ATOM      1  C   UNL     1      45.530   4.994  11.267  0.00  0.00    +0.000 A 
ATOM      2  C   UNL     1      45.819   4.538  12.561  0.00  0.00    +0.000 A 
ATOM      3  C   UNL     1      46.573   5.321  13.442  0.00  0.00    +0.000 A 
ATOM      4  C   UNL     1      47.032   6.587  13.054  0.00  0.00    +0.000 A 
ATOM      5  C   UNL     1      46.741   7.043  11.762  0.00  0.00    +0.000 A 
ATOM      6  C   UNL     1      45.988   6.260  10.882  0.00  0.00    +0.000 A 
ENDROOT
BRANCH   1   7
ATOM      7  C   UNL     1      44.725   4.148  10.317  0.00  0.00    +0.000 C 
BRANCH   7  10
ATOM      8  O   UNL     1      44.963   1.605   9.213  0.00  0.00    +0.000 OA
ATOM      9  C   UNL     1      45.495   2.545   8.629  0.00  0.00    +0.000 C 
ATOM     10  N   UNL     1      45.474   3.829   9.123  0.00  0.00    +0.000 N 
ATOM     11  H   UNL     1      45.870   4.599   8.596  0.00  0.00    +0.000 HD
BRANCH   9  12
ATOM     12  C   UNL     1      46.234   2.292   7.366  0.00  0.00    +0.000 A 
ATOM     13  C   UNL     1      46.433   3.383   6.507  0.00  0.00    +0.000 A 
ATOM     14  C   UNL     1      47.123   3.218   5.307  0.00  0.00    +0.000 A 
ATOM     15  C   UNL     1      47.605   1.957   5.001  0.00  0.00    +0.000 A 
ATOM     16  N   UNL     1      47.445   0.885   5.803  0.00  0.00    +0.000 NA
ATOM     17  C   UNL     1      46.772   1.075   6.966  0.00  0.00    +0.000 A 
ATOM     18 CL   UNL     1      46.716  -0.374   7.899  0.00  0.00    +0.000 Cl
ENDBRANCH   9  12
ENDBRANCH   7  10
ENDBRANCH   1   7
BRANCH   4  19
ATOM     19  C   UNL     1      47.864   7.429  13.988  0.00  0.00    +0.000 C 
BRANCH  19  20
ATOM     20  N   UNL     1      47.818   6.916  15.334  0.00  0.00    +0.000 N 
ATOM     21  C   UNL     1      48.956   6.492  15.973  0.00  0.00    +0.000 C 
ATOM     22  O   UNL     1      50.063   6.575  15.448  0.00  0.00    +0.000 OA
ATOM     23  H   UNL     1      46.910   6.634  15.690  0.00  0.00    +0.000 HD
BRANCH  21  24
ATOM     24  C   UNL     1      48.796   5.987  17.342  0.00  0.00    +0.000 A 
ATOM     25  C   UNL     1      49.089   4.658  17.623  0.00  0.00    +0.000 A 
ATOM     26  S   UNL     1      48.902   4.247  19.268  0.00  0.00    +0.000 S 
ATOM     27  C   UNL     1      48.373   5.817  19.655  0.00  0.00    +0.000 A 
ATOM     28  N   UNL     1      48.018   6.140  20.928  0.00  0.00    +0.000 NA
ATOM     29  C   UNL     1      47.604   7.354  21.076  0.00  0.00    +0.000 A 
ATOM     30  N   UNL     1      47.518   8.277  20.065  0.00  0.00    +0.000 N 
ATOM     31  C   UNL     1      47.890   8.004  18.771  0.00  0.00    +0.000 A 
ATOM     32  O   UNL     1      47.834   8.863  17.897  0.00  0.00    +0.000 OA
ATOM     33  C   UNL     1      48.354   6.648  18.548  0.00  0.00    +0.000 A 
ATOM     34  H   UNL     1      47.191   9.213  20.247  0.00  0.00    +0.000 HD
ENDBRANCH  21  24
ENDBRANCH  19  20
ENDBRANCH   4  19
TORSDOF 6
ENDMDL
MODEL 5
REMARK VINA RESULT:    -7.169      2.252      2.765
REMARK INTER + INTRA:         -10.697
REMARK INTER:                  -9.675
REMARK INTRA:                  -1.023
REMARK UNBOUND:                -1.013
REMARK  Name = 
REMARK  6 active torsions:
REMARK  status: ('A' for Active; 'I' for Inactive)
REMARK    1  A    between atoms: C_2  and  C_25
REMARK    2  A    between atoms: N_3  and  C_4
REMARK    3  A    between atoms: C_4  and  C_5
REMARK    4  A    between atoms: C_8  and  C_9
REMARK    5  A    between atoms: C_9  and  N_10
REMARK    6  A    between atoms: C_11  and  C_13
REMARK                            x       y       z     vdW  Elec       q    Type
REMARK                         _______ _______ _______ _____ _____    ______ ____
ROOT
ATOM      1  C   UNL     1      44.811   4.773  12.019  0.00  0.00    +0.000 A 
ATOM      2  C   UNL     1      44.183   5.962  11.626  0.00  0.00    +0.000 A 
ATOM      3  C   UNL     1      44.730   7.204  11.969  0.00  0.00    +0.000 A 
ATOM      4  C   UNL     1      45.927   7.280  12.692  0.00  0.00    +0.000 A 
ATOM      5  C   UNL     1      46.555   6.090  13.082  0.00  0.00    +0.000 A 
ATOM      6  C   UNL     1      46.009   4.849  12.740  0.00  0.00    +0.000 A 
ENDROOT
BRANCH   1   7
ATOM      7  C   UNL     1      44.220   3.436  11.655  0.00  0.00    +0.000 C 
BRANCH   7  10
ATOM      8  O   UNL     1      44.173   3.864   8.906  0.00  0.00    +0.000 OA
ATOM      9  C   UNL     1      44.977   3.053   9.354  0.00  0.00    +0.000 C 
ATOM     10  N   UNL     1      45.041   2.736  10.692  0.00  0.00    +0.000 N 
ATOM     11  H   UNL     1      45.750   2.107  11.048  0.00  0.00    +0.000 HD
BRANCH   9  12
ATOM     12  C   UNL     1      45.888   2.340   8.422  0.00  0.00    +0.000 A 
ATOM     13  C   UNL     1      45.820   0.939   8.401  0.00  0.00    +0.000 A 
ATOM     14  C   UNL     1      46.643   0.208   7.546  0.00  0.00    +0.000 A 
ATOM     15  C   UNL     1      47.512   0.903   6.723  0.00  0.00    +0.000 A 
ATOM     16  N   UNL     1      47.600   2.250   6.704  0.00  0.00    +0.000 NA
ATOM     17  C   UNL     1      46.785   2.937   7.545  0.00  0.00    +0.000 A 
ATOM     18 CL   UNL     1      46.976   4.638   7.347  0.00  0.00    +0.000 Cl
ENDBRANCH   9  12
ENDBRANCH   7  10
ENDBRANCH   1   7
BRANCH   4  19
ATOM     19  C   UNL     1      46.511   8.613  13.086  0.00  0.00    +0.000 C 
BRANCH  19  20
ATOM     20  N   UNL     1      47.008   8.586  14.439  0.00  0.00    +0.000 N 
ATOM     21  C   UNL     1      48.208   9.163  14.768  0.00  0.00    +0.000 C 
ATOM     22  O   UNL     1      48.884   9.768  13.940  0.00  0.00    +0.000 OA
ATOM     23  H   UNL     1      46.586   7.913  15.072  0.00  0.00    +0.000 HD
BRANCH  21  24
ATOM     24  C   UNL     1      48.619   9.077  16.175  0.00  0.00    +0.000 A 
ATOM     25  C   UNL     1      48.695  10.233  16.941  0.00  0.00    +0.000 A 
ATOM     26  S   UNL     1      49.134   9.953  18.565  0.00  0.00    +0.000 S 
ATOM     27  C   UNL     1      49.289   8.282  18.291  0.00  0.00    +0.000 A 
ATOM     28  N   UNL     1      49.672   7.443  19.291  0.00  0.00    +0.000 NA
ATOM     29  C   UNL     1      49.782   6.205  18.937  0.00  0.00    +0.000 A 
ATOM     30  N   UNL     1      49.538   5.731  17.675  0.00  0.00    +0.000 N 
ATOM     31  C   UNL     1      49.124   6.536  16.641  0.00  0.00    +0.000 A 
ATOM     32  O   UNL     1      48.881   6.073  15.531  0.00  0.00    +0.000 OA
ATOM     33  C   UNL     1      48.994   7.940  16.982  0.00  0.00    +0.000 A 
ATOM     34  H   UNL     1      49.637   4.749  17.464  0.00  0.00    +0.000 HD
ENDBRANCH  21  24
ENDBRANCH  19  20
ENDBRANCH   4  19
TORSDOF 6
ENDMDL
MODEL 6
REMARK VINA RESULT:    -6.989      1.752      2.559
REMARK INTER + INTRA:         -10.454
REMARK INTER:                  -9.985
REMARK INTRA:                  -0.469
REMARK UNBOUND:                -1.013
REMARK  Name = 
REMARK  6 active torsions:
REMARK  status: ('A' for Active; 'I' for Inactive)
REMARK    1  A    between atoms: C_2  and  C_25
REMARK    2  A    between atoms: N_3  and  C_4
REMARK    3  A    between atoms: C_4  and  C_5
REMARK    4  A    between atoms: C_8  and  C_9
REMARK    5  A    between atoms: C_9  and  N_10
REMARK    6  A    between atoms: C_11  and  C_13
REMARK                            x       y       z     vdW  Elec       q    Type
REMARK                         _______ _______ _______ _____ _____    ______ ____
ROOT
ATOM      1  C   UNL     1      45.257   4.869  11.103  0.00  0.00    +0.000 A 
ATOM      2  C   UNL     1      45.224   4.551  12.467  0.00  0.00    +0.000 A 
ATOM      3  C   UNL     1      45.931   5.323  13.396  0.00  0.00    +0.000 A 
ATOM      4  C   UNL     1      46.666   6.441  12.981  0.00  0.00    +0.000 A 
ATOM      5  C   UNL     1      46.696   6.759  11.618  0.00  0.00    +0.000 A 
ATOM      6  C   UNL     1      45.990   5.989  10.689  0.00  0.00    +0.000 A 
ENDROOT
BRANCH   1   7
ATOM      7  C   UNL     1      44.501   4.036  10.102  0.00  0.00    +0.000 C 
BRANCH   7  10
ATOM      8  O   UNL     1      45.192   1.495   9.203  0.00  0.00    +0.000 OA
ATOM      9  C   UNL     1      45.549   2.463   8.540  0.00  0.00    +0.000 C 
ATOM     10  N   UNL     1      45.299   3.760   8.929  0.00  0.00    +0.000 N 
ATOM     11  H   UNL     1      45.553   4.542   8.338  0.00  0.00    +0.000 HD
BRANCH   9  12
ATOM     12  C   UNL     1      46.326   2.244   7.293  0.00  0.00    +0.000 A 
ATOM     13  C   UNL     1      46.527   3.352   6.457  0.00  0.00    +0.000 A 
ATOM     14  C   UNL     1      47.252   3.218   5.274  0.00  0.00    +0.000 A 
ATOM     15  C   UNL     1      47.765   1.972   4.961  0.00  0.00    +0.000 A 
ATOM     16  N   UNL     1      47.604   0.884   5.742  0.00  0.00    +0.000 NA
ATOM     17  C   UNL     1      46.897   1.043   6.890  0.00  0.00    +0.000 A 
ATOM     18 CL   UNL     1      46.843  -0.421   7.798  0.00  0.00    +0.000 Cl
ENDBRANCH   9  12
ENDBRANCH   7  10
ENDBRANCH   1   7
BRANCH   4  19
ATOM     19  C   UNL     1      47.450   7.264  13.972  0.00  0.00    +0.000 C 
BRANCH  19  20
ATOM     20  N   UNL     1      48.013   6.437  15.009  0.00  0.00    +0.000 N 
ATOM     21  C   UNL     1      48.829   6.966  15.976  0.00  0.00    +0.000 C 
ATOM     22  O   UNL     1      49.076   8.169  16.030  0.00  0.00    +0.000 OA
ATOM     23  H   UNL     1      48.007   5.434  14.854  0.00  0.00    +0.000 HD
BRANCH  21  24
ATOM     24  C   UNL     1      49.349   6.034  16.984  0.00  0.00    +0.000 A 
ATOM     25  C   UNL     1      48.468   5.396  17.849  0.00  0.00    +0.000 A 
ATOM     26  S   UNL     1      49.226   4.307  18.921  0.00  0.00    +0.000 S 
ATOM     27  C   UNL     1      50.765   4.688  18.304  0.00  0.00    +0.000 A 
ATOM     28  N   UNL     1      51.885   4.107  18.813  0.00  0.00    +0.000 NA
ATOM     29  C   UNL     1      52.988   4.510  18.275  0.00  0.00    +0.000 A 
ATOM     30  N   UNL     1      53.071   5.438  17.270  0.00  0.00    +0.000 N 
ATOM     31  C   UNL     1      51.967   6.032  16.708  0.00  0.00    +0.000 A 
ATOM     32  O   UNL     1      52.075   6.834  15.785  0.00  0.00    +0.000 OA
ATOM     33  C   UNL     1      50.700   5.620  17.283  0.00  0.00    +0.000 A 
ATOM     34  H   UNL     1      53.965   5.707  16.888  0.00  0.00    +0.000 HD
ENDBRANCH  21  24
ENDBRANCH  19  20
ENDBRANCH   4  19
TORSDOF 6
ENDMDL
MODEL 7
REMARK VINA RESULT:    -6.727      3.936      5.069
REMARK INTER + INTRA:         -10.100
REMARK INTER:                  -9.049
REMARK INTRA:                  -1.051
REMARK UNBOUND:                -1.013
REMARK  Name = 
REMARK  6 active torsions:
REMARK  status: ('A' for Active; 'I' for Inactive)
REMARK    1  A    between atoms: C_2  and  C_25
REMARK    2  A    between atoms: N_3  and  C_4
REMARK    3  A    between atoms: C_4  and  C_5
REMARK    4  A    between atoms: C_8  and  C_9
REMARK    5  A    between atoms: C_9  and  N_10
REMARK    6  A    between atoms: C_11  and  C_13
REMARK                            x       y       z     vdW  Elec       q    Type
REMARK                         _______ _______ _______ _____ _____    ______ ____
ROOT
ATOM      1  C   UNL     1      44.410   4.874  11.751  0.00  0.00    +0.000 A 
ATOM      2  C   UNL     1      43.711   6.059  11.483  0.00  0.00    +0.000 A 
ATOM      3  C   UNL     1      44.259   7.302  11.818  0.00  0.00    +0.000 A 
ATOM      4  C   UNL     1      45.527   7.386  12.407  0.00  0.00    +0.000 A 
ATOM      5  C   UNL     1      46.226   6.202  12.673  0.00  0.00    +0.000 A 
ATOM      6  C   UNL     1      45.679   4.959  12.338  0.00  0.00    +0.000 A 
ENDROOT
BRANCH   1   7
ATOM      7  C   UNL     1      43.818   3.536  11.397  0.00  0.00    +0.000 C 
BRANCH   7  10
ATOM      8  O   UNL     1      44.186   4.026   8.682  0.00  0.00    +0.000 OA
ATOM      9  C   UNL     1      44.842   3.131   9.206  0.00  0.00    +0.000 C 
ATOM     10  N   UNL     1      44.693   2.781  10.529  0.00  0.00    +0.000 N 
ATOM     11  H   UNL     1      45.285   2.078  10.954  0.00  0.00    +0.000 HD
BRANCH   9  12
ATOM     12  C   UNL     1      45.801   2.353   8.380  0.00  0.00    +0.000 A 
ATOM     13  C   UNL     1      45.694   0.955   8.414  0.00  0.00    +0.000 A 
ATOM     14  C   UNL     1      46.558   0.165   7.659  0.00  0.00    +0.000 A 
ATOM     15  C   UNL     1      47.508   0.800   6.878  0.00  0.00    +0.000 A 
ATOM     16  N   UNL     1      47.637   2.141   6.808  0.00  0.00    +0.000 NA
ATOM     17  C   UNL     1      46.781   2.886   7.551  0.00  0.00    +0.000 A 
ATOM     18 CL   UNL     1      47.037   4.572   7.296  0.00  0.00    +0.000 Cl
ENDBRANCH   9  12
ENDBRANCH   7  10
ENDBRANCH   1   7
BRANCH   4  19
ATOM     19  C   UNL     1      46.116   8.720  12.793  0.00  0.00    +0.000 C 
BRANCH  19  20
ATOM     20  N   UNL     1      47.363   8.957  12.110  0.00  0.00    +0.000 N 
ATOM     21  C   UNL     1      48.212   9.959  12.508  0.00  0.00    +0.000 C 
ATOM     22  O   UNL     1      47.972  10.660  13.487  0.00  0.00    +0.000 OA
ATOM     23  H   UNL     1      47.468   8.550  11.186  0.00  0.00    +0.000 HD
BRANCH  21  24
ATOM     24  C   UNL     1      49.454  10.114  11.741  0.00  0.00    +0.000 A 
ATOM     25  C   UNL     1      49.814  11.368  11.263  0.00  0.00    +0.000 A 
ATOM     26  S   UNL     1      51.309  11.387  10.442  0.00  0.00    +0.000 S 
ATOM     27  C   UNL     1      51.505   9.710  10.650  0.00  0.00    +0.000 A 
ATOM     28  N   UNL     1      52.593   9.067  10.149  0.00  0.00    +0.000 NA
ATOM     29  C   UNL     1      52.600   7.791  10.350  0.00  0.00    +0.000 A 
ATOM     30  N   UNL     1      51.617   7.101  11.012  0.00  0.00    +0.000 N 
ATOM     31  C   UNL     1      50.513   7.712  11.557  0.00  0.00    +0.000 A 
ATOM     32  O   UNL     1      49.669   7.069  12.173  0.00  0.00    +0.000 OA
ATOM     33  C   UNL     1      50.452   9.146  11.351  0.00  0.00    +0.000 A 
ATOM     34  H   UNL     1      51.684   6.103  11.141  0.00  0.00    +0.000 HD
ENDBRANCH  21  24
ENDBRANCH  19  20
ENDBRANCH   4  19
TORSDOF 6
ENDMDL
MODEL 8
REMARK VINA RESULT:    -6.561      3.274      4.698
REMARK INTER + INTRA:          -9.876
REMARK INTER:                  -9.053
REMARK INTRA:                  -0.823
REMARK UNBOUND:                -1.013
REMARK  Name = 
REMARK  6 active torsions:
REMARK  status: ('A' for Active; 'I' for Inactive)
REMARK    1  A    between atoms: C_2  and  C_25
REMARK    2  A    between atoms: N_3  and  C_4
REMARK    3  A    between atoms: C_4  and  C_5
REMARK    4  A    between atoms: C_8  and  C_9
REMARK    5  A    between atoms: C_9  and  N_10
REMARK    6  A    between atoms: C_11  and  C_13
REMARK                            x       y       z     vdW  Elec       q    Type
REMARK                         _______ _______ _______ _____ _____    ______ ____
ROOT
ATOM      1  C   UNL     1      46.809   7.636  13.161  0.00  0.00    +0.000 A 
ATOM      2  C   UNL     1      47.230   8.838  13.745  0.00  0.00    +0.000 A 
ATOM      3  C   UNL     1      48.199   8.839  14.755  0.00  0.00    +0.000 A 
ATOM      4  C   UNL     1      48.782   7.639  15.184  0.00  0.00    +0.000 A 
ATOM      5  C   UNL     1      48.362   6.439  14.598  0.00  0.00    +0.000 A 
ATOM      6  C   UNL     1      47.394   6.437  13.589  0.00  0.00    +0.000 A 
ENDROOT
BRANCH   1   7
ATOM      7  C   UNL     1      45.762   7.634  12.079  0.00  0.00    +0.000 C 
BRANCH   7  10
ATOM      8  O   UNL     1      43.563   6.123  11.288  0.00  0.00    +0.000 OA
ATOM      9  C   UNL     1      44.675   5.779  10.901  0.00  0.00    +0.000 C 
ATOM     10  N   UNL     1      45.826   6.432  11.279  0.00  0.00    +0.000 N 
ATOM     11  H   UNL     1      46.727   6.165  10.902  0.00  0.00    +0.000 HD
BRANCH   9  12
ATOM     12  C   UNL     1      44.804   4.582  10.029  0.00  0.00    +0.000 A 
ATOM     13  C   UNL     1      45.547   4.724   8.847  0.00  0.00    +0.000 A 
ATOM     14  C   UNL     1      45.712   3.641   7.986  0.00  0.00    +0.000 A 
ATOM     15  C   UNL     1      45.131   2.434   8.336  0.00  0.00    +0.000 A 
ATOM     16  N   UNL     1      44.419   2.254   9.467  0.00  0.00    +0.000 NA
ATOM     17  C   UNL     1      44.276   3.324  10.289  0.00  0.00    +0.000 A 
ATOM     18 CL   UNL     1      43.400   2.906  11.713  0.00  0.00    +0.000 Cl
ENDBRANCH   9  12
ENDBRANCH   7  10
ENDBRANCH   1   7
BRANCH   4  19
ATOM     19  C   UNL     1      49.810   7.628  16.287  0.00  0.00    +0.000 C 
BRANCH  19  20
ATOM     20  N   UNL     1      50.365   6.310  16.470  0.00  0.00    +0.000 N 
ATOM     21  C   UNL     1      50.110   5.582  17.604  0.00  0.00    +0.000 C 
ATOM     22  O   UNL     1      49.362   5.997  18.486  0.00  0.00    +0.000 OA
ATOM     23  H   UNL     1      51.147   6.052  15.875  0.00  0.00    +0.000 HD
BRANCH  21  24
ATOM     24  C   UNL     1      50.727   4.253  17.688  0.00  0.00    +0.000 A 
ATOM     25  C   UNL     1      50.046   3.147  17.195  0.00  0.00    +0.000 A 
ATOM     26  S   UNL     1      50.922   1.689  17.320  0.00  0.00    +0.000 S 
ATOM     27  C   UNL     1      52.223   2.474  18.085  0.00  0.00    +0.000 A 
ATOM     28  N   UNL     1      53.319   1.777  18.489  0.00  0.00    +0.000 NA
ATOM     29  C   UNL     1      54.216   2.490  19.086  0.00  0.00    +0.000 A 
ATOM     30  N   UNL     1      54.117   3.839  19.310  0.00  0.00    +0.000 N 
ATOM     31  C   UNL     1      53.041   4.588  18.897  0.00  0.00    +0.000 A 
ATOM     32  O   UNL     1      52.999   5.801  19.083  0.00  0.00    +0.000 OA
ATOM     33  C   UNL     1      51.998   3.832  18.229  0.00  0.00    +0.000 A 
ATOM     34  H   UNL     1      54.856   4.341  19.778  0.00  0.00    +0.000 HD
ENDBRANCH  21  24
ENDBRANCH  19  20
ENDBRANCH   4  19
TORSDOF 6
ENDMDL
MODEL 9
REMARK VINA RESULT:    -6.470      5.155      7.593
REMARK INTER + INTRA:          -9.752
REMARK INTER:                  -8.903
REMARK INTRA:                  -0.850
REMARK UNBOUND:                -1.013
REMARK  Name = 
REMARK  6 active torsions:
REMARK  status: ('A' for Active; 'I' for Inactive)
REMARK    1  A    between atoms: C_2  and  C_25
REMARK    2  A    between atoms: N_3  and  C_4
REMARK    3  A    between atoms: C_4  and  C_5
REMARK    4  A    between atoms: C_8  and  C_9
REMARK    5  A    between atoms: C_9  and  N_10
REMARK    6  A    between atoms: C_11  and  C_13
REMARK                            x       y       z     vdW  Elec       q    Type
REMARK                         _______ _______ _______ _____ _____    ______ ____
ROOT
ATOM      1  C   UNL     1      50.944   8.353  12.254  0.00  0.00    +0.000 A 
ATOM      2  C   UNL     1      50.039   7.735  11.380  0.00  0.00    +0.000 A 
ATOM      3  C   UNL     1      48.677   7.668  11.693  0.00  0.00    +0.000 A 
ATOM      4  C   UNL     1      48.189   8.238  12.876  0.00  0.00    +0.000 A 
ATOM      5  C   UNL     1      49.094   8.857  13.748  0.00  0.00    +0.000 A 
ATOM      6  C   UNL     1      50.455   8.924  13.436  0.00  0.00    +0.000 A 
ENDROOT
BRANCH   1   7
ATOM      7  C   UNL     1      52.410   8.419  11.920  0.00  0.00    +0.000 C 
BRANCH   7  10
ATOM      8  O   UNL     1      53.526   8.789   9.398  0.00  0.00    +0.000 OA
ATOM      9  C   UNL     1      53.387   7.641   9.810  0.00  0.00    +0.000 C 
ATOM     10  N   UNL     1      52.800   7.356  11.022  0.00  0.00    +0.000 N 
ATOM     11  H   UNL     1      52.748   6.405  11.368  0.00  0.00    +0.000 HD
BRANCH   9  12
ATOM     12  C   UNL     1      53.820   6.504   8.957  0.00  0.00    +0.000 A 
ATOM     13  C   UNL     1      53.445   6.535   7.605  0.00  0.00    +0.000 A 
ATOM     14  C   UNL     1      53.822   5.503   6.748  0.00  0.00    +0.000 A 
ATOM     15  C   UNL     1      54.576   4.466   7.267  0.00  0.00    +0.000 A 
ATOM     16  N   UNL     1      54.966   4.404   8.557  0.00  0.00    +0.000 NA
ATOM     17  C   UNL     1      54.588   5.423   9.369  0.00  0.00    +0.000 A 
ATOM     18 CL   UNL     1      55.223   5.223  10.959  0.00  0.00    +0.000 Cl
ENDBRANCH   9  12
ENDBRANCH   7  10
ENDBRANCH   1   7
BRANCH   4  19
ATOM     19  C   UNL     1      46.727   8.151  13.234  0.00  0.00    +0.000 C 
BRANCH  19  20
ATOM     20  N   UNL     1      46.183   6.859  12.899  0.00  0.00    +0.000 N 
ATOM     21  C   UNL     1      45.160   6.731  11.994  0.00  0.00    +0.000 C 
ATOM     22  O   UNL     1      44.699   7.699  11.396  0.00  0.00    +0.000 OA
ATOM     23  H   UNL     1      46.390   6.093  13.532  0.00  0.00    +0.000 HD
BRANCH  21  24
ATOM     24  C   UNL     1      44.682   5.369  11.727  0.00  0.00    +0.000 A 
ATOM     25  C   UNL     1      43.990   4.678  12.714  0.00  0.00    +0.000 A 
ATOM     26  S   UNL     1      43.457   3.133  12.226  0.00  0.00    +0.000 S 
ATOM     27  C   UNL     1      44.176   3.310  10.695  0.00  0.00    +0.000 A 
ATOM     28  N   UNL     1      44.111   2.312   9.773  0.00  0.00    +0.000 NA
ATOM     29  C   UNL     1      44.726   2.565   8.666  0.00  0.00    +0.000 A 
ATOM     30  N   UNL     1      45.397   3.730   8.397  0.00  0.00    +0.000 N 
ATOM     31  C   UNL     1      45.469   4.775   9.286  0.00  0.00    +0.000 A 
ATOM     32  O   UNL     1      46.049   5.818   9.000  0.00  0.00    +0.000 OA
ATOM     33  C   UNL     1      44.800   4.538  10.552  0.00  0.00    +0.000 A 
ATOM     34  H   UNL     1      45.855   3.869   7.508  0.00  0.00    +0.000 HD
ENDBRANCH  21  24
ENDBRANCH  19  20
ENDBRANCH   4  19
TORSDOF 6
ENDMDL
