MODEL 1
REMARK VINA RESULT:    -7.609      0.000      0.000
REMARK INTER + INTRA:          -9.982
REMARK INTER:                  -9.388
REMARK INTRA:                  -0.594
REMARK UNBOUND:                -0.594
REMARK  Name = 
REMARK  4 active torsions:
REMARK  status: ('A' for Active; 'I' for Inactive)
REMARK    1  A    between atoms: C_2  and  C_4
REMARK    2  A    between atoms: C_9  and  N_10
REMARK    3  A    between atoms: N_10  and  C_11
REMARK    4  A    between atoms: C_11  and  C_12
REMARK                            x       y       z     vdW  Elec       q    Type
REMARK                         _______ _______ _______ _____ _____    ______ ____
ROOT
ATOM      1  N   UNL     1      45.470   5.810   9.917  0.00  0.00    +0.000 N 
ATOM      2  H   UNL     1      46.215   6.438   9.621  0.00  0.00    +0.000 HD
ENDROOT
BRANCH   1   8
ATOM      3  C   UNL     1      46.287   3.058   7.504  0.00  0.00    +0.000 A 
ATOM      4  C   UNL     1      45.525   2.019   8.041  0.00  0.00    +0.000 A 
ATOM      5  C   UNL     1      44.750   2.273   9.164  0.00  0.00    +0.000 A 
ATOM      6  F   UNL     1      44.032   1.276   9.701  0.00  0.00    +0.000 F 
ATOM      7  C   UNL     1      44.712   3.534   9.753  0.00  0.00    +0.000 A 
ATOM      8  C   UNL     1      45.464   4.594   9.231  0.00  0.00    +0.000 A 
ATOM      9  C   UNL     1      46.272   4.323   8.116  0.00  0.00    +0.000 A 
BRANCH   3  11
ATOM     10  N   UNL     1      48.489   2.689   6.530  0.00  0.00    +0.000 N 
ATOM     11  C   UNL     1      47.151   2.864   6.313  0.00  0.00    +0.000 C 
ATOM     12  O   UNL     1      46.682   2.815   5.185  0.00  0.00    +0.000 OA
ATOM     13  H   UNL     1      49.044   2.452   5.719  0.00  0.00    +0.000 HD
ATOM     14  H   UNL     1      48.874   2.474   7.438  0.00  0.00    +0.000 HD
ENDBRANCH   3  11
ENDBRANCH   1   8
BRANCH   1  15
ATOM     15  C   UNL     1      45.217   5.831  11.348  0.00  0.00    +0.000 C 
BRANCH  15  16
ATOM     16  C   UNL     1      46.491   6.086  12.111  0.00  0.00    +0.000 A 
ATOM     17  C   UNL     1      47.440   6.997  11.658  0.00  0.00    +0.000 A 
ATOM     18  C   UNL     1      48.527   7.248  12.471  0.00  0.00    +0.000 A 
ATOM     19  N   UNL     1      48.720   6.670  13.677  0.00  0.00    +0.000 NA
ATOM     20  C   UNL     1      47.818   5.766  14.121  0.00  0.00    +0.000 A 
ATOM     21  N   UNL     1      47.943   5.274  15.398  0.00  0.00    +0.000 N 
ATOM     22  C   UNL     1      47.510   3.937  15.809  0.00  0.00    +0.000 C 
ATOM     23  C   UNL     1      46.924   4.027  17.229  0.00  0.00    +0.000 C 
ATOM     24  O   UNL     1      47.855   4.614  18.155  0.00  0.00    +0.000 OA
ATOM     25  C   UNL     1      48.247   5.929  17.717  0.00  0.00    +0.000 C 
ATOM     26  C   UNL     1      48.901   5.889  16.322  0.00  0.00    +0.000 C 
ATOM     27  C   UNL     1      46.712   5.445  13.335  0.00  0.00    +0.000 A 
ENDBRANCH  15  16
ENDBRANCH   1  15
TORSDOF 4
ENDMDL
MODEL 2
REMARK VINA RESULT:    -7.337      1.985      2.907
REMARK INTER + INTRA:          -9.647
REMARK INTER:                  -9.127
REMARK INTRA:                  -0.520
REMARK UNBOUND:                -0.594
REMARK  Name = 
REMARK  4 active torsions:
REMARK  status: ('A' for Active; 'I' for Inactive)
REMARK    1  A    between atoms: C_2  and  C_4
REMARK    2  A    between atoms: C_9  and  N_10
REMARK    3  A    between atoms: N_10  and  C_11
REMARK    4  A    between atoms: C_11  and  C_12
REMARK                            x       y       z     vdW  Elec       q    Type
REMARK                         _______ _______ _______ _____ _____    ______ ____
ROOT
ATOM      1  N   UNL     1      45.406   5.765   9.844  0.00  0.00    +0.000 N 
ATOM      2  H   UNL     1      46.293   6.261   9.812  0.00  0.00    +0.000 HD
ENDROOT
BRANCH   1   8
ATOM      3  C   UNL     1      46.301   3.018   7.453  0.00  0.00    +0.000 A 
ATOM      4  C   UNL     1      45.537   1.972   7.974  0.00  0.00    +0.000 A 
ATOM      5  C   UNL     1      44.735   2.221   9.079  0.00  0.00    +0.000 A 
ATOM      6  F   UNL     1      44.014   1.217   9.601  0.00  0.00    +0.000 F 
ATOM      7  C   UNL     1      44.672   3.482   9.666  0.00  0.00    +0.000 A 
ATOM      8  C   UNL     1      45.425   4.548   9.160  0.00  0.00    +0.000 A 
ATOM      9  C   UNL     1      46.261   4.283   8.063  0.00  0.00    +0.000 A 
BRANCH   3  11
ATOM     10  N   UNL     1      48.523   2.640   6.530  0.00  0.00    +0.000 N 
ATOM     11  C   UNL     1      47.193   2.831   6.282  0.00  0.00    +0.000 C 
ATOM     12  O   UNL     1      46.752   2.801   5.141  0.00  0.00    +0.000 OA
ATOM     13  H   UNL     1      49.097   2.407   5.730  0.00  0.00    +0.000 HD
ATOM     14  H   UNL     1      48.883   2.409   7.445  0.00  0.00    +0.000 HD
ENDBRANCH   3  11
ENDBRANCH   1   8
BRANCH   1  15
ATOM     15  C   UNL     1      44.723   5.860  11.123  0.00  0.00    +0.000 C 
BRANCH  15  16
ATOM     16  C   UNL     1      45.698   5.698  12.260  0.00  0.00    +0.000 A 
ATOM     17  C   UNL     1      45.879   4.472  12.893  0.00  0.00    +0.000 A 
ATOM     18  C   UNL     1      46.866   4.386  13.854  0.00  0.00    +0.000 A 
ATOM     19  N   UNL     1      47.668   5.414  14.209  0.00  0.00    +0.000 NA
ATOM     20  C   UNL     1      47.491   6.617  13.619  0.00  0.00    +0.000 A 
ATOM     21  N   UNL     1      48.384   7.627  13.884  0.00  0.00    +0.000 N 
ATOM     22  C   UNL     1      48.044   9.050  13.870  0.00  0.00    +0.000 C 
ATOM     23  C   UNL     1      49.230   9.833  13.282  0.00  0.00    +0.000 C 
ATOM     24  O   UNL     1      50.452   9.565  13.993  0.00  0.00    +0.000 OA
ATOM     25  C   UNL     1      50.753   8.157  13.974  0.00  0.00    +0.000 C 
ATOM     26  C   UNL     1      49.622   7.328  14.611  0.00  0.00    +0.000 C 
ATOM     27  C   UNL     1      46.490   6.779  12.661  0.00  0.00    +0.000 A 
ENDBRANCH  15  16
ENDBRANCH   1  15
TORSDOF 4
ENDMDL
MODEL 3
REMARK VINA RESULT:    -6.870      2.531      3.258
REMARK INTER + INTRA:          -9.071
REMARK INTER:                  -8.363
REMARK INTRA:                  -0.708
REMARK UNBOUND:                -0.594
REMARK  Name = 
REMARK  4 active torsions:
REMARK  status: ('A' for Active; 'I' for Inactive)
REMARK    1  A    between atoms: C_2  and  C_4
REMARK    2  A    between atoms: C_9  and  N_10
REMARK    3  A    between atoms: N_10  and  C_11
REMARK    4  A    between atoms: C_11  and  C_12
REMARK                            x       y       z     vdW  Elec       q    Type
REMARK                         _______ _______ _______ _____ _____    ______ ____
ROOT
ATOM      1  N   UNL     1      46.064   7.030  10.961  0.00  0.00    +0.000 N 
ATOM      2  H   UNL     1      46.940   7.289  10.512  0.00  0.00    +0.000 HD
ENDROOT
BRANCH   1   8
ATOM      3  C   UNL     1      44.330   3.705  10.998  0.00  0.00    +0.000 A 
ATOM      4  C   UNL     1      44.550   3.292   9.683  0.00  0.00    +0.000 A 
ATOM      5  C   UNL     1      45.286   4.114   8.842  0.00  0.00    +0.000 A 
ATOM      6  F   UNL     1      45.485   3.737   7.571  0.00  0.00    +0.000 F 
ATOM      7  C   UNL     1      45.810   5.327   9.282  0.00  0.00    +0.000 A 
ATOM      8  C   UNL     1      45.606   5.762  10.597  0.00  0.00    +0.000 A 
ATOM      9  C   UNL     1      44.832   4.943  11.434  0.00  0.00    +0.000 A 
BRANCH   3  11
ATOM     10  N   UNL     1      43.554   3.275  13.267  0.00  0.00    +0.000 N 
ATOM     11  C   UNL     1      43.542   2.889  11.956  0.00  0.00    +0.000 C 
ATOM     12  O   UNL     1      42.872   1.936  11.583  0.00  0.00    +0.000 OA
ATOM     13  H   UNL     1      42.928   2.774  13.884  0.00  0.00    +0.000 HD
ATOM     14  H   UNL     1      43.881   4.181  13.569  0.00  0.00    +0.000 HD
ENDBRANCH   3  11
ENDBRANCH   1   8
BRANCH   1  15
ATOM     15  C   UNL     1      45.963   7.461  12.345  0.00  0.00    +0.000 C 
BRANCH  15  16
ATOM     16  C   UNL     1      47.260   7.225  13.073  0.00  0.00    +0.000 A 
ATOM     17  C   UNL     1      48.420   7.916  12.736  0.00  0.00    +0.000 A 
ATOM     18  C   UNL     1      49.537   7.717  13.521  0.00  0.00    +0.000 A 
ATOM     19  N   UNL     1      49.569   6.901  14.598  0.00  0.00    +0.000 NA
ATOM     20  C   UNL     1      48.458   6.206  14.926  0.00  0.00    +0.000 A 
ATOM     21  N   UNL     1      48.448   5.475  16.090  0.00  0.00    +0.000 N 
ATOM     22  C   UNL     1      47.669   4.252  16.287  0.00  0.00    +0.000 C 
ATOM     23  C   UNL     1      47.135   4.237  17.729  0.00  0.00    +0.000 C 
ATOM     24  O   UNL     1      48.194   4.377  18.693  0.00  0.00    +0.000 OA
ATOM     25  C   UNL     1      48.927   5.596  18.468  0.00  0.00    +0.000 C 
ATOM     26  C   UNL     1      49.540   5.636  17.056  0.00  0.00    +0.000 C 
ATOM     27  C   UNL     1      47.303   6.339  14.155  0.00  0.00    +0.000 A 
ENDBRANCH  15  16
ENDBRANCH   1  15
TORSDOF 4
ENDMDL
MODEL 4
REMARK VINA RESULT:    -6.769      3.594      7.884
REMARK INTER + INTRA:          -8.946
REMARK INTER:                  -8.359
REMARK INTRA:                  -0.587
REMARK UNBOUND:                -0.594
REMARK  Name = 
REMARK  4 active torsions:
REMARK  status: ('A' for Active; 'I' for Inactive)
REMARK    1  A    between atoms: C_2  and  C_4
REMARK    2  A    between atoms: C_9  and  N_10
REMARK    3  A    between atoms: N_10  and  C_11
REMARK    4  A    between atoms: C_11  and  C_12
REMARK                            x       y       z     vdW  Elec       q    Type
REMARK                         _______ _______ _______ _____ _____    ______ ____
ROOT
ATOM      1  N   UNL     1      48.113   6.548  15.923  0.00  0.00    +0.000 N 
ATOM      2  H   UNL     1      47.160   6.839  16.132  0.00  0.00    +0.000 HD
ENDROOT
BRANCH   1   8
ATOM      3  C   UNL     1      50.053   3.822  17.616  0.00  0.00    +0.000 A 
ATOM      4  C   UNL     1      49.028   2.916  17.889  0.00  0.00    +0.000 A 
ATOM      5  C   UNL     1      47.738   3.227  17.480  0.00  0.00    +0.000 A 
ATOM      6  F   UNL     1      46.742   2.373  17.757  0.00  0.00    +0.000 F 
ATOM      7  C   UNL     1      47.453   4.410  16.802  0.00  0.00    +0.000 A 
ATOM      8  C   UNL     1      48.465   5.333  16.513  0.00  0.00    +0.000 A 
ATOM      9  C   UNL     1      49.761   5.029  16.958  0.00  0.00    +0.000 A 
BRANCH   3  11
ATOM     10  N   UNL     1      51.856   2.266  18.127  0.00  0.00    +0.000 N 
ATOM     11  C   UNL     1      51.456   3.569  18.030  0.00  0.00    +0.000 C 
ATOM     12  O   UNL     1      52.237   4.488  18.233  0.00  0.00    +0.000 OA
ATOM     13  H   UNL     1      52.841   2.116  18.305  0.00  0.00    +0.000 HD
ATOM     14  H   UNL     1      51.331   1.500  17.733  0.00  0.00    +0.000 HD
ENDBRANCH   3  11
ENDBRANCH   1   8
BRANCH   1  15
ATOM     15  C   UNL     1      48.528   6.833  14.560  0.00  0.00    +0.000 C 
BRANCH  15  16
ATOM     16  C   UNL     1      47.337   7.151  13.694  0.00  0.00    +0.000 A 
ATOM     17  C   UNL     1      47.201   8.386  13.070  0.00  0.00    +0.000 A 
ATOM     18  C   UNL     1      46.133   8.557  12.212  0.00  0.00    +0.000 A 
ATOM     19  N   UNL     1      45.222   7.598  11.936  0.00  0.00    +0.000 NA
ATOM     20  C   UNL     1      45.328   6.399  12.551  0.00  0.00    +0.000 A 
ATOM     21  N   UNL     1      44.481   5.383  12.179  0.00  0.00    +0.000 N 
ATOM     22  C   UNL     1      44.031   4.318  13.077  0.00  0.00    +0.000 C 
ATOM     23  C   UNL     1      43.957   3.004  12.280  0.00  0.00    +0.000 C 
ATOM     24  O   UNL     1      43.123   3.132  11.115  0.00  0.00    +0.000 OA
ATOM     25  C   UNL     1      43.606   4.183  10.257  0.00  0.00    +0.000 C 
ATOM     26  C   UNL     1      43.641   5.539  10.987  0.00  0.00    +0.000 C 
ATOM     27  C   UNL     1      46.367   6.171  13.454  0.00  0.00    +0.000 A 
ENDBRANCH  15  16
ENDBRANCH   1  15
TORSDOF 4
ENDMDL
MODEL 5
REMARK VINA RESULT:    -6.732      2.081      2.709
REMARK INTER + INTRA:          -8.900
REMARK INTER:                  -8.276
REMARK INTRA:                  -0.624
REMARK UNBOUND:                -0.594
REMARK  Name = 
REMARK  4 active torsions:
REMARK  status: ('A' for Active; 'I' for Inactive)
REMARK    1  A    between atoms: C_2  and  C_4
REMARK    2  A    between atoms: C_9  and  N_10
REMARK    3  A    between atoms: N_10  and  C_11
REMARK    4  A    between atoms: C_11  and  C_12
REMARK                            x       y       z     vdW  Elec       q    Type
REMARK                         _______ _______ _______ _____ _____    ______ ____
ROOT
ATOM      1  N   UNL     1      45.870   6.834  12.769  0.00  0.00    +0.000 N 
ATOM      2  H   UNL     1      45.181   7.483  13.144  0.00  0.00    +0.000 HD
ENDROOT
BRANCH   1   8
ATOM      3  C   UNL     1      44.981   4.409  10.051  0.00  0.00    +0.000 A 
ATOM      4  C   UNL     1      44.284   3.450  10.788  0.00  0.00    +0.000 A 
ATOM      5  C   UNL     1      44.112   3.654  12.150  0.00  0.00    +0.000 A 
ATOM      6  F   UNL     1      43.463   2.728  12.871  0.00  0.00    +0.000 F 
ATOM      7  C   UNL     1      44.607   4.789  12.787  0.00  0.00    +0.000 A 
ATOM      8  C   UNL     1      45.306   5.767  12.069  0.00  0.00    +0.000 A 
ATOM      9  C   UNL     1      45.508   5.540  10.699  0.00  0.00    +0.000 A 
BRANCH   3  11
ATOM     10  N   UNL     1      44.319   3.516   7.884  0.00  0.00    +0.000 N 
ATOM     11  C   UNL     1      45.219   4.259   8.594  0.00  0.00    +0.000 C 
ATOM     12  O   UNL     1      46.157   4.816   8.040  0.00  0.00    +0.000 OA
ATOM     13  H   UNL     1      44.437   3.514   6.879  0.00  0.00    +0.000 HD
ATOM     14  H   UNL     1      43.414   3.255   8.248  0.00  0.00    +0.000 HD
ENDBRANCH   3  11
ENDBRANCH   1   8
BRANCH   1  15
ATOM     15  C   UNL     1      47.067   7.480  12.255  0.00  0.00    +0.000 C 
BRANCH  15  16
ATOM     16  C   UNL     1      48.205   7.349  13.233  0.00  0.00    +0.000 A 
ATOM     17  C   UNL     1      49.396   8.048  13.061  0.00  0.00    +0.000 A 
ATOM     18  C   UNL     1      50.346   7.952  14.057  0.00  0.00    +0.000 A 
ATOM     19  N   UNL     1      50.187   7.230  15.188  0.00  0.00    +0.000 NA
ATOM     20  C   UNL     1      49.045   6.527  15.360  0.00  0.00    +0.000 A 
ATOM     21  N   UNL     1      48.826   5.896  16.562  0.00  0.00    +0.000 N 
ATOM     22  C   UNL     1      48.045   4.668  16.714  0.00  0.00    +0.000 C 
ATOM     23  C   UNL     1      47.246   4.755  18.026  0.00  0.00    +0.000 C 
ATOM     24  O   UNL     1      48.099   5.010  19.156  0.00  0.00    +0.000 OA
ATOM     25  C   UNL     1      48.841   6.230  18.967  0.00  0.00    +0.000 C 
ATOM     26  C   UNL     1      49.711   6.173  17.698  0.00  0.00    +0.000 C 
ATOM     27  C   UNL     1      48.057   6.557  14.377  0.00  0.00    +0.000 A 
ENDBRANCH  15  16
ENDBRANCH   1  15
TORSDOF 4
ENDMDL
MODEL 6
REMARK VINA RESULT:    -6.670      4.101      8.222
REMARK INTER + INTRA:          -8.823
REMARK INTER:                  -8.044
REMARK INTRA:                  -0.779
REMARK UNBOUND:                -0.594
REMARK  Name = 
REMARK  4 active torsions:
REMARK  status: ('A' for Active; 'I' for Inactive)
REMARK    1  A    between atoms: C_2  and  C_4
REMARK    2  A    between atoms: C_9  and  N_10
REMARK    3  A    between atoms: N_10  and  C_11
REMARK    4  A    between atoms: C_11  and  C_12
REMARK                            x       y       z     vdW  Elec       q    Type
REMARK                         _______ _______ _______ _____ _____    ______ ____
ROOT
ATOM      1  N   UNL     1      49.357   7.548  15.369  0.00  0.00    +0.000 N 
ATOM      2  H   UNL     1      49.396   8.565  15.353  0.00  0.00    +0.000 HD
ENDROOT
BRANCH   1   8
ATOM      3  C   UNL     1      47.892   5.189  17.888  0.00  0.00    +0.000 A 
ATOM      4  C   UNL     1      47.678   6.062  18.956  0.00  0.00    +0.000 A 
ATOM      5  C   UNL     1      48.002   7.402  18.795  0.00  0.00    +0.000 A 
ATOM      6  F   UNL     1      47.822   8.245  19.822  0.00  0.00    +0.000 F 
ATOM      7  C   UNL     1      48.521   7.888  17.597  0.00  0.00    +0.000 A 
ATOM      8  C   UNL     1      48.741   7.033  16.511  0.00  0.00    +0.000 A 
ATOM      9  C   UNL     1      48.444   5.673  16.690  0.00  0.00    +0.000 A 
BRANCH   3  11
ATOM     10  N   UNL     1      48.259   3.016  18.927  0.00  0.00    +0.000 N 
ATOM     11  C   UNL     1      47.584   3.740  17.985  0.00  0.00    +0.000 C 
ATOM     12  O   UNL     1      46.727   3.221  17.282  0.00  0.00    +0.000 OA
ATOM     13  H   UNL     1      47.959   2.058  19.051  0.00  0.00    +0.000 HD
ATOM     14  H   UNL     1      48.777   3.444  19.680  0.00  0.00    +0.000 HD
ENDBRANCH   3  11
ENDBRANCH   1   8
BRANCH   1  15
ATOM     15  C   UNL     1      49.085   6.950  14.073  0.00  0.00    +0.000 C 
BRANCH  15  16
ATOM     16  C   UNL     1      47.686   7.275  13.619  0.00  0.00    +0.000 A 
ATOM     17  C   UNL     1      47.270   8.589  13.427  0.00  0.00    +0.000 A 
ATOM     18  C   UNL     1      46.007   8.793  12.910  0.00  0.00    +0.000 A 
ATOM     19  N   UNL     1      45.157   7.798  12.572  0.00  0.00    +0.000 NA
ATOM     20  C   UNL     1      45.538   6.517  12.773  0.00  0.00    +0.000 A 
ATOM     21  N   UNL     1      44.731   5.503  12.314  0.00  0.00    +0.000 N 
ATOM     22  C   UNL     1      44.635   4.182  12.938  0.00  0.00    +0.000 C 
ATOM     23  C   UNL     1      44.492   3.126  11.829  0.00  0.00    +0.000 C 
ATOM     24  O   UNL     1      43.379   3.408  10.962  0.00  0.00    +0.000 OA
ATOM     25  C   UNL     1      43.518   4.711  10.364  0.00  0.00    +0.000 C 
ATOM     26  C   UNL     1      43.602   5.818  11.432  0.00  0.00    +0.000 C 
ATOM     27  C   UNL     1      46.790   6.242  13.321  0.00  0.00    +0.000 A 
ENDBRANCH  15  16
ENDBRANCH   1  15
TORSDOF 4
ENDMDL
MODEL 7
REMARK VINA RESULT:    -6.625      5.915      8.447
REMARK INTER + INTRA:          -8.769
REMARK INTER:                  -8.367
REMARK INTRA:                  -0.401
REMARK UNBOUND:                -0.594
REMARK  Name = 
REMARK  4 active torsions:
REMARK  status: ('A' for Active; 'I' for Inactive)
REMARK    1  A    between atoms: C_2  and  C_4
REMARK    2  A    between atoms: C_9  and  N_10
REMARK    3  A    between atoms: N_10  and  C_11
REMARK    4  A    between atoms: C_11  and  C_12
REMARK                            x       y       z     vdW  Elec       q    Type
REMARK                         _______ _______ _______ _____ _____    ______ ____
ROOT
ATOM      1  N   UNL     1      43.223   7.357  11.014  0.00  0.00    +0.000 N 
ATOM      2  H   UNL     1      42.747   7.230  10.123  0.00  0.00    +0.000 HD
ENDROOT
BRANCH   1   8
ATOM      3  C   UNL     1      45.471   4.974  12.839  0.00  0.00    +0.000 A 
ATOM      4  C   UNL     1      44.796   3.772  12.618  0.00  0.00    +0.000 A 
ATOM      5  C   UNL     1      43.639   3.791  11.852  0.00  0.00    +0.000 A 
ATOM      6  F   UNL     1      42.971   2.645  11.652  0.00  0.00    +0.000 F 
ATOM      7  C   UNL     1      43.148   4.971  11.299  0.00  0.00    +0.000 A 
ATOM      8  C   UNL     1      43.809   6.188  11.503  0.00  0.00    +0.000 A 
ATOM      9  C   UNL     1      44.960   6.170  12.307  0.00  0.00    +0.000 A 
BRANCH   3  11
ATOM     10  N   UNL     1      46.659   4.505  14.913  0.00  0.00    +0.000 N 
ATOM     11  C   UNL     1      46.708   5.041  13.657  0.00  0.00    +0.000 C 
ATOM     12  O   UNL     1      47.743   5.515  13.211  0.00  0.00    +0.000 OA
ATOM     13  H   UNL     1      47.538   4.463  15.413  0.00  0.00    +0.000 HD
ATOM     14  H   UNL     1      45.918   3.893  15.220  0.00  0.00    +0.000 HD
ENDBRANCH   3  11
ENDBRANCH   1   8
BRANCH   1  15
ATOM     15  C   UNL     1      43.934   8.619  11.126  0.00  0.00    +0.000 C 
BRANCH  15  16
ATOM     16  C   UNL     1      43.125   9.742  10.532  0.00  0.00    +0.000 A 
ATOM     17  C   UNL     1      43.662  10.601   9.579  0.00  0.00    +0.000 A 
ATOM     18  C   UNL     1      42.821  11.536   9.010  0.00  0.00    +0.000 A 
ATOM     19  N   UNL     1      41.510  11.660   9.317  0.00  0.00    +0.000 NA
ATOM     20  C   UNL     1      40.978  10.848  10.256  0.00  0.00    +0.000 A 
ATOM     21  N   UNL     1      39.622  10.885  10.478  0.00  0.00    +0.000 N 
ATOM     22  C   UNL     1      38.992  10.597  11.768  0.00  0.00    +0.000 C 
ATOM     23  C   UNL     1      37.679   9.836  11.513  0.00  0.00    +0.000 C 
ATOM     24  O   UNL     1      36.809  10.557  10.623  0.00  0.00    +0.000 OA
ATOM     25  C   UNL     1      37.464  10.810   9.366  0.00  0.00    +0.000 C 
ATOM     26  C   UNL     1      38.756  11.627   9.555  0.00  0.00    +0.000 C 
ATOM     27  C   UNL     1      41.782   9.901  10.891  0.00  0.00    +0.000 A 
ENDBRANCH  15  16
ENDBRANCH   1  15
TORSDOF 4
ENDMDL
MODEL 8
REMARK VINA RESULT:    -6.415      4.649      6.631
REMARK INTER + INTRA:          -8.509
REMARK INTER:                  -7.750
REMARK INTRA:                  -0.760
REMARK UNBOUND:                -0.594
REMARK  Name = 
REMARK  4 active torsions:
REMARK  status: ('A' for Active; 'I' for Inactive)
REMARK    1  A    between atoms: C_2  and  C_4
REMARK    2  A    between atoms: C_9  and  N_10
REMARK    3  A    between atoms: N_10  and  C_11
REMARK    4  A    between atoms: C_11  and  C_12
REMARK                            x       y       z     vdW  Elec       q    Type
REMARK                         _______ _______ _______ _____ _____    ______ ____
ROOT
ATOM      1  N   UNL     1      46.914   7.235  12.300  0.00  0.00    +0.000 N 
ATOM      2  H   UNL     1      47.820   6.830  12.524  0.00  0.00    +0.000 HD
ENDROOT
BRANCH   1   8
ATOM      3  C   UNL     1      45.077   4.789  10.132  0.00  0.00    +0.000 A 
ATOM      4  C   UNL     1      44.186   4.249  11.060  0.00  0.00    +0.000 A 
ATOM      5  C   UNL     1      44.207   4.732  12.361  0.00  0.00    +0.000 A 
ATOM      6  F   UNL     1      43.370   4.205  13.267  0.00  0.00    +0.000 F 
ATOM      7  C   UNL     1      45.085   5.741  12.751  0.00  0.00    +0.000 A 
ATOM      8  C   UNL     1      45.986   6.300  11.837  0.00  0.00    +0.000 A 
ATOM      9  C   UNL     1      45.984   5.785  10.532  0.00  0.00    +0.000 A 
BRANCH   3  11
ATOM     10  N   UNL     1      44.102   3.522   8.294  0.00  0.00    +0.000 N 
ATOM     11  C   UNL     1      45.126   4.318   8.725  0.00  0.00    +0.000 C 
ATOM     12  O   UNL     1      46.021   4.664   7.967  0.00  0.00    +0.000 OA
ATOM     13  H   UNL     1      44.096   3.301   7.306  0.00  0.00    +0.000 HD
ATOM     14  H   UNL     1      43.234   3.423   8.799  0.00  0.00    +0.000 HD
ENDBRANCH   3  11
ENDBRANCH   1   8
BRANCH   1  15
ATOM     15  C   UNL     1      46.490   8.273  13.224  0.00  0.00    +0.000 C 
BRANCH  15  16
ATOM     16  C   UNL     1      46.262   9.573  12.498  0.00  0.00    +0.000 A 
ATOM     17  C   UNL     1      47.323  10.392  12.123  0.00  0.00    +0.000 A 
ATOM     18  C   UNL     1      47.034  11.511  11.369  0.00  0.00    +0.000 A 
ATOM     19  N   UNL     1      45.789  11.854  10.969  0.00  0.00    +0.000 NA
ATOM     20  C   UNL     1      44.745  11.081  11.344  0.00  0.00    +0.000 A 
ATOM     21  N   UNL     1      43.498  11.354  10.835  0.00  0.00    +0.000 N 
ATOM     22  C   UNL     1      42.245  11.084  11.542  0.00  0.00    +0.000 C 
ATOM     23  C   UNL     1      41.199  10.608  10.520  0.00  0.00    +0.000 C 
ATOM     24  O   UNL     1      41.034  11.549   9.445  0.00  0.00    +0.000 OA
ATOM     25  C   UNL     1      42.287  11.778   8.773  0.00  0.00    +0.000 C 
ATOM     26  C   UNL     1      43.357  12.319   9.740  0.00  0.00    +0.000 C 
ATOM     27  C   UNL     1      44.966   9.952  12.132  0.00  0.00    +0.000 A 
ENDBRANCH  15  16
ENDBRANCH   1  15
TORSDOF 4
ENDMDL
MODEL 9
REMARK VINA RESULT:    -6.369      3.556      5.104
REMARK INTER + INTRA:          -8.453
REMARK INTER:                  -8.072
REMARK INTRA:                  -0.380
REMARK UNBOUND:                -0.594
REMARK  Name = 
REMARK  4 active torsions:
REMARK  status: ('A' for Active; 'I' for Inactive)
REMARK    1  A    between atoms: C_2  and  C_4
REMARK    2  A    between atoms: C_9  and  N_10
REMARK    3  A    between atoms: N_10  and  C_11
REMARK    4  A    between atoms: C_11  and  C_12
REMARK                            x       y       z     vdW  Elec       q    Type
REMARK                         _______ _______ _______ _____ _____    ______ ____
ROOT
ATOM      1  N   UNL     1      46.365   3.761  13.965  0.00  0.00    +0.000 N 
ATOM      2  H   UNL     1      45.988   2.991  14.514  0.00  0.00    +0.000 HD
ENDROOT
BRANCH   1   8
ATOM      3  C   UNL     1      44.415   5.883  11.565  0.00  0.00    +0.000 A 
ATOM      4  C   UNL     1      43.966   4.908  10.674  0.00  0.00    +0.000 A 
ATOM      5  C   UNL     1      44.302   3.582  10.914  0.00  0.00    +0.000 A 
ATOM      6  F   UNL     1      43.895   2.640  10.052  0.00  0.00    +0.000 F 
ATOM      7  C   UNL     1      45.063   3.211  12.020  0.00  0.00    +0.000 A 
ATOM      8  C   UNL     1      45.522   4.171  12.930  0.00  0.00    +0.000 A 
ATOM      9  C   UNL     1      45.208   5.513  12.665  0.00  0.00    +0.000 A 
BRANCH   3  11
ATOM     10  N   UNL     1      42.829   7.652  11.028  0.00  0.00    +0.000 N 
ATOM     11  C   UNL     1      44.109   7.323  11.372  0.00  0.00    +0.000 C 
ATOM     12  O   UNL     1      44.956   8.186  11.558  0.00  0.00    +0.000 OA
ATOM     13  H   UNL     1      42.614   8.641  11.007  0.00  0.00    +0.000 HD
ATOM     14  H   UNL     1      42.056   7.008  11.111  0.00  0.00    +0.000 HD
ENDBRANCH   3  11
ENDBRANCH   1   8
BRANCH   1  15
ATOM     15  C   UNL     1      47.069   4.757  14.755  0.00  0.00    +0.000 C 
BRANCH  15  16
ATOM     16  C   UNL     1      47.575   4.157  16.041  0.00  0.00    +0.000 A 
ATOM     17  C   UNL     1      48.136   2.885  16.079  0.00  0.00    +0.000 A 
ATOM     18  C   UNL     1      48.669   2.454  17.277  0.00  0.00    +0.000 A 
ATOM     19  N   UNL     1      48.685   3.194  18.408  0.00  0.00    +0.000 NA
ATOM     20  C   UNL     1      48.125   4.423  18.393  0.00  0.00    +0.000 A 
ATOM     21  N   UNL     1      48.252   5.226  19.502  0.00  0.00    +0.000 N 
ATOM     22  C   UNL     1      47.266   6.230  19.907  0.00  0.00    +0.000 C 
ATOM     23  C   UNL     1      48.014   7.454  20.464  0.00  0.00    +0.000 C 
ATOM     24  O   UNL     1      48.906   7.093  21.534  0.00  0.00    +0.000 OA
ATOM     25  C   UNL     1      49.862   6.112  21.089  0.00  0.00    +0.000 C 
ATOM     26  C   UNL     1      49.168   4.836  20.578  0.00  0.00    +0.000 C 
ATOM     27  C   UNL     1      47.542   4.907  17.222  0.00  0.00    +0.000 A 
ENDBRANCH  15  16
ENDBRANCH   1  15
TORSDOF 4
ENDMDL
