MODEL 1
REMARK VINA RESULT:    -7.759      0.000      0.000
REMARK INTER + INTRA:         -11.971
REMARK INTER:                 -10.933
REMARK INTRA:                  -1.037
REMARK UNBOUND:                -1.037
REMARK  Name = 
REMARK  8 active torsions:
REMARK  status: ('A' for Active; 'I' for Inactive)
REMARK    1  A    between atoms: C_1  and  N_2
REMARK    2  A    between atoms: C_4  and  C_5
REMARK    3  A    between atoms: N_7  and  C_8
REMARK    4  A    between atoms: C_8  and  C_9
REMARK    5  A    between atoms: C_12  and  O_13
REMARK    6  A    between atoms: O_13  and  C_14
REMARK    7  A    between atoms: C_14  and  C_15
REMARK    8  A    between atoms: C_15  and  N_16
REMARK                            x       y       z     vdW  Elec       q    Type
REMARK                         _______ _______ _______ _____ _____    ______ ____
ROOT
ATOM      1  C   UNL     1      47.001   8.240  13.015  0.00  0.00    +0.000 C 
ENDROOT
BRANCH   1   2
ATOM      2  C   UNL     1      46.195   7.203  12.290  0.00  0.00    +0.000 A 
ATOM      3  C   UNL     1      46.597   6.659  11.062  0.00  0.00    +0.000 A 
ATOM      4  C   UNL     1      45.809   5.689  10.437  0.00  0.00    +0.000 A 
ATOM      5  C   UNL     1      44.628   5.317  11.053  0.00  0.00    +0.000 A 
ATOM      6  N   UNL     1      44.218   5.818  12.236  0.00  0.00    +0.000 NA
ATOM      7  C   UNL     1      45.003   6.741  12.824  0.00  0.00    +0.000 A 
BRANCH   5   8
ATOM      8  O   UNL     1      43.832   4.376  10.418  0.00  0.00    +0.000 OA
BRANCH   8   9
ATOM      9  C   UNL     1      44.378   3.066  10.630  0.00  0.00    +0.000 C 
BRANCH   9  10
ATOM     10  C   UNL     1      44.404   2.246   9.330  0.00  0.00    +0.000 C 
BRANCH  10  11
ATOM     11  N   UNL     1      45.663   2.423   8.568  0.00  0.00    +0.000 NA
ATOM     12  C   UNL     1      46.163   1.151   8.019  0.00  0.00    +0.000 C 
ATOM     13  C   UNL     1      47.497   1.338   7.299  0.00  0.00    +0.000 C 
ATOM     14  C   UNL     1      47.386   2.379   6.196  0.00  0.00    +0.000 C 
ATOM     15  C   UNL     1      46.798   3.671   6.748  0.00  0.00    +0.000 C 
ATOM     16  C   UNL     1      45.488   3.420   7.501  0.00  0.00    +0.000 C 
ENDBRANCH  10  11
ENDBRANCH   9  10
ENDBRANCH   8   9
ENDBRANCH   5   8
ENDBRANCH   1   2
BRANCH   1  19
ATOM     17  C   UNL     1      48.449   6.901  14.480  0.00  0.00    +0.000 C 
ATOM     18  O   UNL     1      49.066   6.459  13.519  0.00  0.00    +0.000 OA
ATOM     19  N   UNL     1      47.417   7.798  14.325  0.00  0.00    +0.000 N 
ATOM     20  H   UNL     1      46.963   8.131  15.170  0.00  0.00    +0.000 HD
BRANCH  17  24
ATOM     21  C   UNL     1      50.014   7.275  19.061  0.00  0.00    +0.000 C 
ATOM     22  N   UNL     1      49.414   6.688  17.886  0.00  0.00    +0.000 N 
ATOM     23  N   UNL     1      49.357   7.364  16.719  0.00  0.00    +0.000 NA
ATOM     24  C   UNL     1      48.727   6.508  15.874  0.00  0.00    +0.000 A 
ATOM     25  C   UNL     1      48.398   5.280  16.530  0.00  0.00    +0.000 A 
ATOM     26  C   UNL     1      47.795   4.049  16.295  0.00  0.00    +0.000 A 
ATOM     27 CL   UNL     1      47.163   3.621  14.786  0.00  0.00    +0.000 Cl
ATOM     28  N   UNL     1      47.683   3.117  17.258  0.00  0.00    +0.000 NA
ATOM     29  C   UNL     1      48.177   3.420  18.466  0.00  0.00    +0.000 A 
ATOM     30  N   UNL     1      48.781   4.557  18.837  0.00  0.00    +0.000 NA
ATOM     31  C   UNL     1      48.858   5.443  17.827  0.00  0.00    +0.000 A 
ENDBRANCH  17  24
ENDBRANCH   1  19
TORSDOF 7
ENDMDL
MODEL 2
REMARK VINA RESULT:    -7.371      1.791      2.058
REMARK INTER + INTRA:         -11.424
REMARK INTER:                 -10.520
REMARK INTRA:                  -0.904
REMARK UNBOUND:                -1.037
REMARK  Name = 
REMARK  8 active torsions:
REMARK  status: ('A' for Active; 'I' for Inactive)
REMARK    1  A    between atoms: C_1  and  N_2
REMARK    2  A    between atoms: C_4  and  C_5
REMARK    3  A    between atoms: N_7  and  C_8
REMARK    4  A    between atoms: C_8  and  C_9
REMARK    5  A    between atoms: C_12  and  O_13
REMARK    6  A    between atoms: O_13  and  C_14
REMARK    7  A    between atoms: C_14  and  C_15
REMARK    8  A    between atoms: C_15  and  N_16
REMARK                            x       y       z     vdW  Elec       q    Type
REMARK                         _______ _______ _______ _____ _____    ______ ____
ROOT
ATOM      1  C   UNL     1      48.232   6.197  13.795  0.00  0.00    +0.000 C 
ENDROOT
BRANCH   1   2
ATOM      2  C   UNL     1      46.987   5.700  13.121  0.00  0.00    +0.000 A 
ATOM      3  C   UNL     1      46.508   6.252  11.925  0.00  0.00    +0.000 A 
ATOM      4  C   UNL     1      45.346   5.743  11.338  0.00  0.00    +0.000 A 
ATOM      5  C   UNL     1      44.689   4.713  11.987  0.00  0.00    +0.000 A 
ATOM      6  N   UNL     1      45.130   4.159  13.136  0.00  0.00    +0.000 NA
ATOM      7  C   UNL     1      46.258   4.659  13.673  0.00  0.00    +0.000 A 
BRANCH   5   8
ATOM      8  O   UNL     1      43.521   4.227  11.420  0.00  0.00    +0.000 OA
BRANCH   8   9
ATOM      9  C   UNL     1      43.763   3.884  10.047  0.00  0.00    +0.000 C 
BRANCH   9  10
ATOM     10  C   UNL     1      44.482   2.531   9.919  0.00  0.00    +0.000 C 
BRANCH  10  11
ATOM     11  N   UNL     1      45.629   2.580   8.982  0.00  0.00    +0.000 NA
ATOM     12  C   UNL     1      45.843   1.294   8.298  0.00  0.00    +0.000 C 
ATOM     13  C   UNL     1      47.071   1.339   7.391  0.00  0.00    +0.000 C 
ATOM     14  C   UNL     1      46.963   2.464   6.373  0.00  0.00    +0.000 C 
ATOM     15  C   UNL     1      46.667   3.783   7.076  0.00  0.00    +0.000 C 
ATOM     16  C   UNL     1      45.456   3.668   8.008  0.00  0.00    +0.000 C 
ENDBRANCH  10  11
ENDBRANCH   9  10
ENDBRANCH   8   9
ENDBRANCH   5   8
ENDBRANCH   1   2
BRANCH   1  19
ATOM     17  C   UNL     1      49.060   6.707  16.051  0.00  0.00    +0.000 C 
ATOM     18  O   UNL     1      50.223   6.582  15.687  0.00  0.00    +0.000 OA
ATOM     19  N   UNL     1      48.009   6.546  15.178  0.00  0.00    +0.000 N 
ATOM     20  H   UNL     1      47.074   6.680  15.551  0.00  0.00    +0.000 HD
BRANCH  17  24
ATOM     21  C   UNL     1      47.481   9.300  19.840  0.00  0.00    +0.000 C 
ATOM     22  N   UNL     1      47.972   8.164  19.096  0.00  0.00    +0.000 N 
ATOM     23  N   UNL     1      48.260   8.263  17.781  0.00  0.00    +0.000 NA
ATOM     24  C   UNL     1      48.673   7.015  17.440  0.00  0.00    +0.000 A 
ATOM     25  C   UNL     1      48.648   6.134  18.568  0.00  0.00    +0.000 A 
ATOM     26  C   UNL     1      48.920   4.820  18.927  0.00  0.00    +0.000 A 
ATOM     27 CL   UNL     1      49.498   3.677  17.822  0.00  0.00    +0.000 Cl
ATOM     28  N   UNL     1      48.743   4.374  20.184  0.00  0.00    +0.000 NA
ATOM     29  C   UNL     1      48.289   5.253  21.087  0.00  0.00    +0.000 A 
ATOM     30  N   UNL     1      47.987   6.543  20.889  0.00  0.00    +0.000 NA
ATOM     31  C   UNL     1      48.188   6.920  19.613  0.00  0.00    +0.000 A 
ENDBRANCH  17  24
ENDBRANCH   1  19
TORSDOF 7
ENDMDL
MODEL 3
REMARK VINA RESULT:    -7.324      2.185      3.020
REMARK INTER + INTRA:         -11.359
REMARK INTER:                 -10.650
REMARK INTRA:                  -0.709
REMARK UNBOUND:                -1.037
REMARK  Name = 
REMARK  8 active torsions:
REMARK  status: ('A' for Active; 'I' for Inactive)
REMARK    1  A    between atoms: C_1  and  N_2
REMARK    2  A    between atoms: C_4  and  C_5
REMARK    3  A    between atoms: N_7  and  C_8
REMARK    4  A    between atoms: C_8  and  C_9
REMARK    5  A    between atoms: C_12  and  O_13
REMARK    6  A    between atoms: O_13  and  C_14
REMARK    7  A    between atoms: C_14  and  C_15
REMARK    8  A    between atoms: C_15  and  N_16
REMARK                            x       y       z     vdW  Elec       q    Type
REMARK                         _______ _______ _______ _____ _____    ______ ____
ROOT
ATOM      1  C   UNL     1      48.371   6.486  14.025  0.00  0.00    +0.000 C 
ENDROOT
BRANCH   1   2
ATOM      2  C   UNL     1      47.203   5.922  13.270  0.00  0.00    +0.000 A 
ATOM      3  C   UNL     1      46.692   6.527  12.113  0.00  0.00    +0.000 A 
ATOM      4  C   UNL     1      45.607   5.951  11.446  0.00  0.00    +0.000 A 
ATOM      5  C   UNL     1      45.054   4.801  11.979  0.00  0.00    +0.000 A 
ATOM      6  N   UNL     1      45.528   4.194  13.087  0.00  0.00    +0.000 NA
ATOM      7  C   UNL     1      46.582   4.761  13.702  0.00  0.00    +0.000 A 
BRANCH   5   8
ATOM      8  O   UNL     1      43.959   4.246  11.334  0.00  0.00    +0.000 OA
BRANCH   8   9
ATOM      9  C   UNL     1      44.409   3.265  10.387  0.00  0.00    +0.000 C 
BRANCH   9  10
ATOM     10  C   UNL     1      44.441   3.831   8.958  0.00  0.00    +0.000 C 
BRANCH  10  11
ATOM     11  N   UNL     1      45.235   2.992   8.029  0.00  0.00    +0.000 NA
ATOM     12  C   UNL     1      46.305   3.757   7.369  0.00  0.00    +0.000 C 
ATOM     13  C   UNL     1      47.068   2.898   6.362  0.00  0.00    +0.000 C 
ATOM     14  C   UNL     1      47.643   1.655   7.023  0.00  0.00    +0.000 C 
ATOM     15  C   UNL     1      46.549   0.903   7.771  0.00  0.00    +0.000 C 
ATOM     16  C   UNL     1      45.785   1.821   8.730  0.00  0.00    +0.000 C 
ENDBRANCH  10  11
ENDBRANCH   9  10
ENDBRANCH   8   9
ENDBRANCH   5   8
ENDBRANCH   1   2
BRANCH   1  19
ATOM     17  C   UNL     1      49.226   6.413  16.326  0.00  0.00    +0.000 C 
ATOM     18  O   UNL     1      50.385   6.396  15.929  0.00  0.00    +0.000 OA
ATOM     19  N   UNL     1      48.164   6.468  15.453  0.00  0.00    +0.000 N 
ATOM     20  H   UNL     1      47.234   6.493  15.859  0.00  0.00    +0.000 HD
BRANCH  17  24
ATOM     21  C   UNL     1      48.678   4.570  20.784  0.00  0.00    +0.000 C 
ATOM     22  N   UNL     1      48.626   5.532  19.709  0.00  0.00    +0.000 N 
ATOM     23  N   UNL     1      49.047   5.213  18.466  0.00  0.00    +0.000 NA
ATOM     24  C   UNL     1      48.856   6.352  17.753  0.00  0.00    +0.000 A 
ATOM     25  C   UNL     1      48.299   7.388  18.568  0.00  0.00    +0.000 A 
ATOM     26  C   UNL     1      47.875   8.710  18.506  0.00  0.00    +0.000 A 
ATOM     27 CL   UNL     1      47.931   9.617  17.079  0.00  0.00    +0.000 Cl
ATOM     28  N   UNL     1      47.387   9.352  19.583  0.00  0.00    +0.000 NA
ATOM     29  C   UNL     1      47.324   8.663  20.730  0.00  0.00    +0.000 A 
ATOM     30  N   UNL     1      47.692   7.392  20.939  0.00  0.00    +0.000 NA
ATOM     31  C   UNL     1      48.171   6.813  19.822  0.00  0.00    +0.000 A 
ENDBRANCH  17  24
ENDBRANCH   1  19
TORSDOF 7
ENDMDL
MODEL 4
REMARK VINA RESULT:    -6.929      2.270      2.624
REMARK INTER + INTRA:         -10.802
REMARK INTER:                  -9.607
REMARK INTRA:                  -1.195
REMARK UNBOUND:                -1.037
REMARK  Name = 
REMARK  8 active torsions:
REMARK  status: ('A' for Active; 'I' for Inactive)
REMARK    1  A    between atoms: C_1  and  N_2
REMARK    2  A    between atoms: C_4  and  C_5
REMARK    3  A    between atoms: N_7  and  C_8
REMARK    4  A    between atoms: C_8  and  C_9
REMARK    5  A    between atoms: C_12  and  O_13
REMARK    6  A    between atoms: O_13  and  C_14
REMARK    7  A    between atoms: C_14  and  C_15
REMARK    8  A    between atoms: C_15  and  N_16
REMARK                            x       y       z     vdW  Elec       q    Type
REMARK                         _______ _______ _______ _____ _____    ______ ____
ROOT
ATOM      1  C   UNL     1      48.489   7.426  12.776  0.00  0.00    +0.000 C 
ENDROOT
BRANCH   1   2
ATOM      2  C   UNL     1      47.215   6.638  12.863  0.00  0.00    +0.000 A 
ATOM      3  C   UNL     1      47.164   5.346  13.405  0.00  0.00    +0.000 A 
ATOM      4  C   UNL     1      45.946   4.664  13.467  0.00  0.00    +0.000 A 
ATOM      5  C   UNL     1      44.824   5.291  12.958  0.00  0.00    +0.000 A 
ATOM      6  N   UNL     1      44.842   6.535  12.435  0.00  0.00    +0.000 NA
ATOM      7  C   UNL     1      46.025   7.176  12.399  0.00  0.00    +0.000 A 
BRANCH   5   8
ATOM      8  O   UNL     1      43.621   4.603  12.993  0.00  0.00    +0.000 OA
BRANCH   8   9
ATOM      9  C   UNL     1      43.158   4.381  11.652  0.00  0.00    +0.000 C 
BRANCH   9  10
ATOM     10  C   UNL     1      43.593   3.005  11.122  0.00  0.00    +0.000 C 
BRANCH  10  11
ATOM     11  N   UNL     1      44.679   3.097  10.118  0.00  0.00    +0.000 NA
ATOM     12  C   UNL     1      44.731   1.912   9.246  0.00  0.00    +0.000 C 
ATOM     13  C   UNL     1      45.899   1.988   8.266  0.00  0.00    +0.000 C 
ATOM     14  C   UNL     1      45.832   3.254   7.426  0.00  0.00    +0.000 C 
ATOM     15  C   UNL     1      45.702   4.477   8.326  0.00  0.00    +0.000 C 
ATOM     16  C   UNL     1      44.546   4.326   9.321  0.00  0.00    +0.000 C 
ENDBRANCH  10  11
ENDBRANCH   9  10
ENDBRANCH   8   9
ENDBRANCH   5   8
ENDBRANCH   1   2
BRANCH   1  19
ATOM     17  C   UNL     1      49.840   7.710  14.808  0.00  0.00    +0.000 C 
ATOM     18  O   UNL     1      49.307   8.787  15.049  0.00  0.00    +0.000 OA
ATOM     19  N   UNL     1      49.489   6.962  13.707  0.00  0.00    +0.000 N 
ATOM     20  H   UNL     1      49.966   6.074  13.583  0.00  0.00    +0.000 HD
BRANCH  17  24
ATOM     21  C   UNL     1      54.287   7.020  16.629  0.00  0.00    +0.000 C 
ATOM     22  N   UNL     1      52.868   6.839  16.436  0.00  0.00    +0.000 N 
ATOM     23  N   UNL     1      52.190   7.564  15.521  0.00  0.00    +0.000 NA
ATOM     24  C   UNL     1      50.910   7.129  15.640  0.00  0.00    +0.000 A 
ATOM     25  C   UNL     1      50.798   6.111  16.640  0.00  0.00    +0.000 A 
ATOM     26  C   UNL     1      49.864   5.278  17.244  0.00  0.00    +0.000 A 
ATOM     27 CL   UNL     1      48.230   5.280  16.810  0.00  0.00    +0.000 Cl
ATOM     28  N   UNL     1      50.207   4.410  18.214  0.00  0.00    +0.000 NA
ATOM     29  C   UNL     1      51.494   4.378  18.581  0.00  0.00    +0.000 A 
ATOM     30  N   UNL     1      52.500   5.115  18.091  0.00  0.00    +0.000 NA
ATOM     31  C   UNL     1      52.087   5.959  17.127  0.00  0.00    +0.000 A 
ENDBRANCH  17  24
ENDBRANCH   1  19
TORSDOF 7
ENDMDL
MODEL 5
REMARK VINA RESULT:    -6.851      1.622      2.400
REMARK INTER + INTRA:         -10.692
REMARK INTER:                  -9.944
REMARK INTRA:                  -0.747
REMARK UNBOUND:                -1.037
REMARK  Name = 
REMARK  8 active torsions:
REMARK  status: ('A' for Active; 'I' for Inactive)
REMARK    1  A    between atoms: C_1  and  N_2
REMARK    2  A    between atoms: C_4  and  C_5
REMARK    3  A    between atoms: N_7  and  C_8
REMARK    4  A    between atoms: C_8  and  C_9
REMARK    5  A    between atoms: C_12  and  O_13
REMARK    6  A    between atoms: O_13  and  C_14
REMARK    7  A    between atoms: C_14  and  C_15
REMARK    8  A    between atoms: C_15  and  N_16
REMARK                            x       y       z     vdW  Elec       q    Type
REMARK                         _______ _______ _______ _____ _____    ______ ____
ROOT
ATOM      1  C   UNL     1      47.236   8.268  13.434  0.00  0.00    +0.000 C 
ENDROOT
BRANCH   1   2
ATOM      2  C   UNL     1      46.432   7.323  12.591  0.00  0.00    +0.000 A 
ATOM      3  C   UNL     1      46.964   6.678  11.466  0.00  0.00    +0.000 A 
ATOM      4  C   UNL     1      46.169   5.801  10.723  0.00  0.00    +0.000 A 
ATOM      5  C   UNL     1      44.857   5.622  11.119  0.00  0.00    +0.000 A 
ATOM      6  N   UNL     1      44.318   6.224  12.200  0.00  0.00    +0.000 NA
ATOM      7  C   UNL     1      45.110   7.053  12.906  0.00  0.00    +0.000 A 
BRANCH   5   8
ATOM      8  O   UNL     1      44.059   4.775  10.366  0.00  0.00    +0.000 OA
BRANCH   8   9
ATOM      9  C   UNL     1      44.199   3.430  10.849  0.00  0.00    +0.000 C 
BRANCH   9  10
ATOM     10  C   UNL     1      44.229   2.413   9.697  0.00  0.00    +0.000 C 
BRANCH  10  11
ATOM     11  N   UNL     1      45.433   2.551   8.844  0.00  0.00    +0.000 NA
ATOM     12  C   UNL     1      45.850   1.266   8.260  0.00  0.00    +0.000 C 
ATOM     13  C   UNL     1      47.132   1.411   7.443  0.00  0.00    +0.000 C 
ATOM     14  C   UNL     1      46.974   2.457   6.351  0.00  0.00    +0.000 C 
ATOM     15  C   UNL     1      46.469   3.767   6.945  0.00  0.00    +0.000 C 
ATOM     16  C   UNL     1      45.211   3.556   7.792  0.00  0.00    +0.000 C 
ENDBRANCH  10  11
ENDBRANCH   9  10
ENDBRANCH   8   9
ENDBRANCH   5   8
ENDBRANCH   1   2
BRANCH   1  19
ATOM     17  C   UNL     1      48.757   7.000  14.889  0.00  0.00    +0.000 C 
ATOM     18  O   UNL     1      49.554   6.844  13.972  0.00  0.00    +0.000 OA
ATOM     19  N   UNL     1      47.586   7.703  14.715  0.00  0.00    +0.000 N 
ATOM     20  H   UNL     1      46.983   7.802  15.526  0.00  0.00    +0.000 HD
BRANCH  17  24
ATOM     21  C   UNL     1      49.054   3.671  18.410  0.00  0.00    +0.000 C 
ATOM     22  N   UNL     1      49.086   4.968  17.777  0.00  0.00    +0.000 N 
ATOM     23  N   UNL     1      48.813   5.109  16.462  0.00  0.00    +0.000 NA
ATOM     24  C   UNL     1      48.953   6.442  16.239  0.00  0.00    +0.000 A 
ATOM     25  C   UNL     1      49.308   7.134  17.440  0.00  0.00    +0.000 A 
ATOM     26  C   UNL     1      49.588   8.409  17.918  0.00  0.00    +0.000 A 
ATOM     27 CL   UNL     1      49.551   9.779  16.927  0.00  0.00    +0.000 Cl
ATOM     28  N   UNL     1      49.902   8.632  19.207  0.00  0.00    +0.000 NA
ATOM     29  C   UNL     1      49.938   7.571  20.022  0.00  0.00    +0.000 A 
ATOM     30  N   UNL     1      49.691   6.292  19.706  0.00  0.00    +0.000 NA
ATOM     31  C   UNL     1      49.385   6.142  18.405  0.00  0.00    +0.000 A 
ENDBRANCH  17  24
ENDBRANCH   1  19
TORSDOF 7
ENDMDL
MODEL 6
REMARK VINA RESULT:    -6.603      2.356      3.490
REMARK INTER + INTRA:         -10.342
REMARK INTER:                  -9.466
REMARK INTRA:                  -0.875
REMARK UNBOUND:                -1.037
REMARK  Name = 
REMARK  8 active torsions:
REMARK  status: ('A' for Active; 'I' for Inactive)
REMARK    1  A    between atoms: C_1  and  N_2
REMARK    2  A    between atoms: C_4  and  C_5
REMARK    3  A    between atoms: N_7  and  C_8
REMARK    4  A    between atoms: C_8  and  C_9
REMARK    5  A    between atoms: C_12  and  O_13
REMARK    6  A    between atoms: O_13  and  C_14
REMARK    7  A    between atoms: C_14  and  C_15
REMARK    8  A    between atoms: C_15  and  N_16
REMARK                            x       y       z     vdW  Elec       q    Type
REMARK                         _______ _______ _______ _____ _____    ______ ____
ROOT
ATOM      1  C   UNL     1      48.518   6.801  14.193  0.00  0.00    +0.000 C 
ENDROOT
BRANCH   1   2
ATOM      2  C   UNL     1      47.194   6.271  13.728  0.00  0.00    +0.000 A 
ATOM      3  C   UNL     1      46.266   7.063  13.037  0.00  0.00    +0.000 A 
ATOM      4  C   UNL     1      45.051   6.513  12.621  0.00  0.00    +0.000 A 
ATOM      5  C   UNL     1      44.797   5.191  12.936  0.00  0.00    +0.000 A 
ATOM      6  N   UNL     1      45.672   4.402  13.595  0.00  0.00    +0.000 NA
ATOM      7  C   UNL     1      46.840   4.954  13.973  0.00  0.00    +0.000 A 
BRANCH   5   8
ATOM      8  O   UNL     1      43.579   4.652  12.549  0.00  0.00    +0.000 OA
BRANCH   8   9
ATOM      9  C   UNL     1      43.699   3.225  12.445  0.00  0.00    +0.000 C 
BRANCH   9  10
ATOM     10  C   UNL     1      43.421   2.736  11.014  0.00  0.00    +0.000 C 
BRANCH  10  11
ATOM     11  N   UNL     1      44.573   2.942  10.105  0.00  0.00    +0.000 NA
ATOM     12  C   UNL     1      44.734   1.831   9.153  0.00  0.00    +0.000 C 
ATOM     13  C   UNL     1      45.967   2.022   8.272  0.00  0.00    +0.000 C 
ATOM     14  C   UNL     1      45.913   3.348   7.529  0.00  0.00    +0.000 C 
ATOM     15  C   UNL     1      45.671   4.491   8.507  0.00  0.00    +0.000 C 
ATOM     16  C   UNL     1      44.452   4.225   9.397  0.00  0.00    +0.000 C 
ENDBRANCH  10  11
ENDBRANCH   9  10
ENDBRANCH   8   9
ENDBRANCH   5   8
ENDBRANCH   1   2
BRANCH   1  19
ATOM     17  C   UNL     1      48.970   6.386  16.572  0.00  0.00    +0.000 C 
ATOM     18  O   UNL     1      49.451   5.288  16.322  0.00  0.00    +0.000 OA
ATOM     19  N   UNL     1      48.493   7.209  15.577  0.00  0.00    +0.000 N 
ATOM     20  H   UNL     1      48.123   8.111  15.863  0.00  0.00    +0.000 HD
BRANCH  17  24
ATOM     21  C   UNL     1      47.396   6.753  21.150  0.00  0.00    +0.000 C 
ATOM     22  N   UNL     1      48.137   7.067  19.952  0.00  0.00    +0.000 N 
ATOM     23  N   UNL     1      47.980   6.342  18.824  0.00  0.00    +0.000 NA
ATOM     24  C   UNL     1      48.833   6.920  17.940  0.00  0.00    +0.000 A 
ATOM     25  C   UNL     1      49.522   8.027  18.532  0.00  0.00    +0.000 A 
ATOM     26  C   UNL     1      50.465   9.004  18.237  0.00  0.00    +0.000 A 
ATOM     27 CL   UNL     1      51.187   9.139  16.713  0.00  0.00    +0.000 Cl
ATOM     28  N   UNL     1      50.860   9.910  19.149  0.00  0.00    +0.000 NA
ATOM     29  C   UNL     1      50.306   9.836  20.366  0.00  0.00    +0.000 A 
ATOM     30  N   UNL     1      49.389   8.956  20.792  0.00  0.00    +0.000 NA
ATOM     31  C   UNL     1      49.042   8.081  19.830  0.00  0.00    +0.000 A 
ENDBRANCH  17  24
ENDBRANCH   1  19
TORSDOF 7
ENDMDL
MODEL 7
REMARK VINA RESULT:    -6.460      3.740      5.557
REMARK INTER + INTRA:         -10.141
REMARK INTER:                  -9.170
REMARK INTRA:                  -0.971
REMARK UNBOUND:                -1.037
REMARK  Name = 
REMARK  8 active torsions:
REMARK  status: ('A' for Active; 'I' for Inactive)
REMARK    1  A    between atoms: C_1  and  N_2
REMARK    2  A    between atoms: C_4  and  C_5
REMARK    3  A    between atoms: N_7  and  C_8
REMARK    4  A    between atoms: C_8  and  C_9
REMARK    5  A    between atoms: C_12  and  O_13
REMARK    6  A    between atoms: O_13  and  C_14
REMARK    7  A    between atoms: C_14  and  C_15
REMARK    8  A    between atoms: C_15  and  N_16
REMARK                            x       y       z     vdW  Elec       q    Type
REMARK                         _______ _______ _______ _____ _____    ______ ____
ROOT
ATOM      1  C   UNL     1      47.007   8.037  13.339  0.00  0.00    +0.000 C 
ENDROOT
BRANCH   1   2
ATOM      2  C   UNL     1      46.104   6.988  12.762  0.00  0.00    +0.000 A 
ATOM      3  C   UNL     1      46.293   5.618  12.998  0.00  0.00    +0.000 A 
ATOM      4  C   UNL     1      45.414   4.686  12.440  0.00  0.00    +0.000 A 
ATOM      5  C   UNL     1      44.389   5.159  11.642  0.00  0.00    +0.000 A 
ATOM      6  N   UNL     1      44.178   6.470  11.401  0.00  0.00    +0.000 NA
ATOM      7  C   UNL     1      45.032   7.347  11.961  0.00  0.00    +0.000 A 
BRANCH   5   8
ATOM      8  O   UNL     1      43.533   4.232  11.065  0.00  0.00    +0.000 OA
BRANCH   8   9
ATOM      9  C   UNL     1      44.287   3.343  10.227  0.00  0.00    +0.000 C 
BRANCH   9  10
ATOM     10  C   UNL     1      44.550   3.957   8.842  0.00  0.00    +0.000 C 
BRANCH  10  11
ATOM     11  N   UNL     1      45.309   3.049   7.949  0.00  0.00    +0.000 NA
ATOM     12  C   UNL     1      46.418   3.738   7.269  0.00  0.00    +0.000 C 
ATOM     13  C   UNL     1      47.145   2.809   6.299  0.00  0.00    +0.000 C 
ATOM     14  C   UNL     1      47.656   1.565   7.008  0.00  0.00    +0.000 C 
ATOM     15  C   UNL     1      46.524   0.892   7.774  0.00  0.00    +0.000 C 
ATOM     16  C   UNL     1      45.799   1.880   8.695  0.00  0.00    +0.000 C 
ENDBRANCH  10  11
ENDBRANCH   9  10
ENDBRANCH   8   9
ENDBRANCH   5   8
ENDBRANCH   1   2
BRANCH   1  19
ATOM     17  C   UNL     1      49.365   7.724  12.723  0.00  0.00    +0.000 C 
ATOM     18  O   UNL     1      49.532   6.931  13.641  0.00  0.00    +0.000 OA
ATOM     19  N   UNL     1      48.143   8.313  12.492  0.00  0.00    +0.000 N 
ATOM     20  H   UNL     1      48.080   8.949  11.702  0.00  0.00    +0.000 HD
BRANCH  17  24
ATOM     21  C   UNL     1      52.619   7.421   9.133  0.00  0.00    +0.000 C 
ATOM     22  N   UNL     1      51.863   7.996  10.220  0.00  0.00    +0.000 N 
ATOM     23  N   UNL     1      50.933   7.274  10.882  0.00  0.00    +0.000 NA
ATOM     24  C   UNL     1      50.440   8.141  11.804  0.00  0.00    +0.000 A 
ATOM     25  C   UNL     1      51.084   9.416  11.714  0.00  0.00    +0.000 A 
ATOM     26  C   UNL     1      51.085  10.677  12.299  0.00  0.00    +0.000 A 
ATOM     27 CL   UNL     1      50.066  11.082  13.587  0.00  0.00    +0.000 Cl
ATOM     28  N   UNL     1      51.905  11.656  11.877  0.00  0.00    +0.000 NA
ATOM     29  C   UNL     1      52.729  11.369  10.861  0.00  0.00    +0.000 A 
ATOM     30  N   UNL     1      52.840  10.207  10.204  0.00  0.00    +0.000 NA
ATOM     31  C   UNL     1      51.992   9.275  10.677  0.00  0.00    +0.000 A 
ENDBRANCH  17  24
ENDBRANCH   1  19
TORSDOF 7
ENDMDL
MODEL 8
REMARK VINA RESULT:    -6.378      2.220      2.752
REMARK INTER + INTRA:         -10.025
REMARK INTER:                  -9.244
REMARK INTRA:                  -0.781
REMARK UNBOUND:                -1.037
REMARK  Name = 
REMARK  8 active torsions:
REMARK  status: ('A' for Active; 'I' for Inactive)
REMARK    1  A    between atoms: C_1  and  N_2
REMARK    2  A    between atoms: C_4  and  C_5
REMARK    3  A    between atoms: N_7  and  C_8
REMARK    4  A    between atoms: C_8  and  C_9
REMARK    5  A    between atoms: C_12  and  O_13
REMARK    6  A    between atoms: O_13  and  C_14
REMARK    7  A    between atoms: C_14  and  C_15
REMARK    8  A    between atoms: C_15  and  N_16
REMARK                            x       y       z     vdW  Elec       q    Type
REMARK                         _______ _______ _______ _____ _____    ______ ____
ROOT
ATOM      1  C   UNL     1      48.241   9.096  14.058  0.00  0.00    +0.000 C 
ENDROOT
BRANCH   1   2
ATOM      2  C   UNL     1      47.318   8.283  13.200  0.00  0.00    +0.000 A 
ATOM      3  C   UNL     1      47.761   7.188  12.444  0.00  0.00    +0.000 A 
ATOM      4  C   UNL     1      46.853   6.463  11.669  0.00  0.00    +0.000 A 
ATOM      5  C   UNL     1      45.534   6.877  11.657  0.00  0.00    +0.000 A 
ATOM      6  N   UNL     1      45.077   7.922  12.378  0.00  0.00    +0.000 NA
ATOM      7  C   UNL     1      45.970   8.596  13.127  0.00  0.00    +0.000 A 
BRANCH   5   8
ATOM      8  O   UNL     1      44.638   6.174  10.866  0.00  0.00    +0.000 OA
BRANCH   8   9
ATOM      9  C   UNL     1      45.079   4.815  10.736  0.00  0.00    +0.000 C 
BRANCH   9  10
ATOM     10  C   UNL     1      44.133   3.995   9.842  0.00  0.00    +0.000 C 
BRANCH  10  11
ATOM     11  N   UNL     1      44.840   3.326   8.724  0.00  0.00    +0.000 NA
ATOM     12  C   UNL     1      45.840   4.205   8.095  0.00  0.00    +0.000 C 
ATOM     13  C   UNL     1      46.507   3.528   6.900  0.00  0.00    +0.000 C 
ATOM     14  C   UNL     1      47.147   2.208   7.302  0.00  0.00    +0.000 C 
ATOM     15  C   UNL     1      46.133   1.328   8.021  0.00  0.00    +0.000 C 
ATOM     16  C   UNL     1      45.459   2.072   9.179  0.00  0.00    +0.000 C 
ENDBRANCH  10  11
ENDBRANCH   9  10
ENDBRANCH   8   9
ENDBRANCH   5   8
ENDBRANCH   1   2
BRANCH   1  19
ATOM     17  C   UNL     1      48.756   8.572  16.403  0.00  0.00    +0.000 C 
ATOM     18  O   UNL     1      49.880   8.187  16.102  0.00  0.00    +0.000 OA
ATOM     19  N   UNL     1      47.880   9.050  15.455  0.00  0.00    +0.000 N 
ATOM     20  H   UNL     1      46.972   9.364  15.783  0.00  0.00    +0.000 HD
BRANCH  17  24
ATOM     21  C   UNL     1      46.682  10.173  20.490  0.00  0.00    +0.000 C 
ATOM     22  N   UNL     1      47.310   9.256  19.568  0.00  0.00    +0.000 N 
ATOM     23  N   UNL     1      47.707   9.662  18.342  0.00  0.00    +0.000 NA
ATOM     24  C   UNL     1      48.228   8.542  17.779  0.00  0.00    +0.000 A 
ATOM     25  C   UNL     1      48.159   7.429  18.676  0.00  0.00    +0.000 A 
ATOM     26  C   UNL     1      48.480   6.080  18.762  0.00  0.00    +0.000 A 
ATOM     27 CL   UNL     1      49.227   5.242  17.497  0.00  0.00    +0.000 Cl
ATOM     28  N   UNL     1      48.221   5.355  19.865  0.00  0.00    +0.000 NA
ATOM     29  C   UNL     1      47.633   5.987  20.889  0.00  0.00    +0.000 A 
ATOM     30  N   UNL     1      47.268   7.275  20.951  0.00  0.00    +0.000 NA
ATOM     31  C   UNL     1      47.557   7.938  19.816  0.00  0.00    +0.000 A 
ENDBRANCH  17  24
ENDBRANCH   1  19
TORSDOF 7
ENDMDL
