MODEL 1
REMARK VINA RESULT:    -7.681      0.000      0.000
REMARK INTER + INTRA:         -11.810
REMARK INTER:                 -10.600
REMARK INTRA:                  -1.210
REMARK UNBOUND:                -1.210
REMARK  Name = 
REMARK  8 active torsions:
REMARK  status: ('A' for Active; 'I' for Inactive)
REMARK    1  A    between atoms: C_1  and  C_2
REMARK    2  A    between atoms: C_2  and  C_3
REMARK    3  A    between atoms: C_2  and  C_15
REMARK    4  A    between atoms: C_3  and  O_4
REMARK    5  A    between atoms: O_4  and  C_5
REMARK    6  A    between atoms: C_8  and  C_9
REMARK    7  A    between atoms: C_19  and  C_20
REMARK    8  A    between atoms: C_20  and  N_21
REMARK                            x       y       z     vdW  Elec       q    Type
REMARK                         _______ _______ _______ _____ _____    ______ ____
ROOT
ATOM      1  C   UNL     1      43.894   3.200  11.937  0.00  0.00    +0.000 C 
ENDROOT
BRANCH   1   3
ATOM      2  C   UNL     1      42.495   5.322  11.838  0.00  0.00    +0.000 C 
ATOM      3  C   UNL     1      43.595   4.563  12.591  0.00  0.00    +0.000 C 
BRANCH   3   4
ATOM      4  C   UNL     1      44.845   5.416  12.738  0.00  0.00    +0.000 A 
ATOM      5  C   UNL     1      46.071   4.872  13.151  0.00  0.00    +0.000 A 
ATOM      6  C   UNL     1      47.208   5.675  13.245  0.00  0.00    +0.000 A 
ATOM      7  C   UNL     1      47.142   7.031  12.924  0.00  0.00    +0.000 A 
ATOM      8  C   UNL     1      45.932   7.602  12.510  0.00  0.00    +0.000 A 
ATOM      9  C   UNL     1      44.790   6.786  12.432  0.00  0.00    +0.000 A 
BRANCH   8  10
ATOM     10  C   UNL     1      45.849   9.067  12.166  0.00  0.00    +0.000 C 
BRANCH  10  11
ATOM     11  N   UNL     1      44.652   9.684  12.731  0.00  0.00    +0.000 NA
ATOM     12  H   UNL     1      44.918  10.197  13.571  0.00  0.00    +0.000 HD
ATOM     13  H   UNL     1      44.007   8.957  13.027  0.00  0.00    +0.000 HD
ENDBRANCH  10  11
ENDBRANCH   8  10
ENDBRANCH   3   4
ENDBRANCH   1   3
BRANCH   1  14
ATOM     14  O   UNL     1      43.481   3.243  10.564  0.00  0.00    +0.000 OA
BRANCH  14  15
ATOM     15  C   UNL     1      44.458   3.164   9.609  0.00  0.00    +0.000 A 
ATOM     16  C   UNL     1      44.739   1.863   9.176  0.00  0.00    +0.000 A 
ATOM     17  C   UNL     1      45.723   1.619   8.209  0.00  0.00    +0.000 A 
ATOM     18  C   UNL     1      46.450   2.683   7.662  0.00  0.00    +0.000 A 
ATOM     19  C   UNL     1      46.163   3.985   8.088  0.00  0.00    +0.000 A 
ATOM     20  C   UNL     1      45.179   4.218   9.048  0.00  0.00    +0.000 A 
ATOM     21  F   UNL     1      44.957   5.491   9.407  0.00  0.00    +0.000 F 
BRANCH  18  22
ATOM     22  C   UNL     1      47.519   2.516   6.637  0.00  0.00    +0.000 C 
ATOM     23  N   UNL     1      47.413   3.191   5.455  0.00  0.00    +0.000 N 
ATOM     24  O   UNL     1      48.480   1.781   6.836  0.00  0.00    +0.000 OA
ATOM     25  H   UNL     1      46.652   3.791   5.187  0.00  0.00    +0.000 HD
ATOM     26  H   UNL     1      48.152   3.034   4.780  0.00  0.00    +0.000 HD
ENDBRANCH  18  22
ENDBRANCH  14  15
ENDBRANCH   1  14
TORSDOF 7
ENDMDL
MODEL 2
REMARK VINA RESULT:    -7.638      2.163      2.765
REMARK INTER + INTRA:         -11.751
REMARK INTER:                 -10.804
REMARK INTRA:                  -0.947
REMARK UNBOUND:                -1.210
REMARK  Name = 
REMARK  8 active torsions:
REMARK  status: ('A' for Active; 'I' for Inactive)
REMARK    1  A    between atoms: C_1  and  C_2
REMARK    2  A    between atoms: C_2  and  C_3
REMARK    3  A    between atoms: C_2  and  C_15
REMARK    4  A    between atoms: C_3  and  O_4
REMARK    5  A    between atoms: O_4  and  C_5
REMARK    6  A    between atoms: C_8  and  C_9
REMARK    7  A    between atoms: C_19  and  C_20
REMARK    8  A    between atoms: C_20  and  N_21
REMARK                            x       y       z     vdW  Elec       q    Type
REMARK                         _______ _______ _______ _____ _____    ______ ____
ROOT
ATOM      1  C   UNL     1      43.472   3.665  11.262  0.00  0.00    +0.000 C 
ENDROOT
BRANCH   1   3
ATOM      2  C   UNL     1      42.894   6.140  11.341  0.00  0.00    +0.000 C 
ATOM      3  C   UNL     1      43.564   4.972  12.074  0.00  0.00    +0.000 C 
BRANCH   3   4
ATOM      4  C   UNL     1      44.997   5.314  12.451  0.00  0.00    +0.000 A 
ATOM      5  C   UNL     1      45.773   6.201  11.690  0.00  0.00    +0.000 A 
ATOM      6  C   UNL     1      47.074   6.520  12.081  0.00  0.00    +0.000 A 
ATOM      7  C   UNL     1      47.619   5.963  13.238  0.00  0.00    +0.000 A 
ATOM      8  C   UNL     1      46.869   5.073  14.016  0.00  0.00    +0.000 A 
ATOM      9  C   UNL     1      45.564   4.750  13.605  0.00  0.00    +0.000 A 
BRANCH   8  10
ATOM     10  C   UNL     1      47.451   4.462  15.265  0.00  0.00    +0.000 C 
BRANCH  10  11
ATOM     11  N   UNL     1      47.733   3.040  15.086  0.00  0.00    +0.000 NA
ATOM     12  H   UNL     1      47.133   2.509  15.716  0.00  0.00    +0.000 HD
ATOM     13  H   UNL     1      48.691   2.850  15.369  0.00  0.00    +0.000 HD
ENDBRANCH  10  11
ENDBRANCH   8  10
ENDBRANCH   3   4
ENDBRANCH   1   3
BRANCH   1  14
ATOM     14  O   UNL     1      43.518   3.982   9.864  0.00  0.00    +0.000 OA
BRANCH  14  15
ATOM     15  C   UNL     1      44.526   3.427   9.124  0.00  0.00    +0.000 A 
ATOM     16  C   UNL     1      45.338   4.357   8.465  0.00  0.00    +0.000 A 
ATOM     17  C   UNL     1      46.406   3.942   7.659  0.00  0.00    +0.000 A 
ATOM     18  C   UNL     1      46.675   2.577   7.497  0.00  0.00    +0.000 A 
ATOM     19  C   UNL     1      45.869   1.647   8.163  0.00  0.00    +0.000 A 
ATOM     20  C   UNL     1      44.811   2.070   8.966  0.00  0.00    +0.000 A 
ATOM     21  F   UNL     1      44.083   1.123   9.576  0.00  0.00    +0.000 F 
BRANCH  18  22
ATOM     22  C   UNL     1      47.783   2.046   6.653  0.00  0.00    +0.000 C 
ATOM     23  N   UNL     1      48.852   2.851   6.381  0.00  0.00    +0.000 N 
ATOM     24  O   UNL     1      47.745   0.908   6.198  0.00  0.00    +0.000 OA
ATOM     25  H   UNL     1      48.960   3.804   6.682  0.00  0.00    +0.000 HD
ATOM     26  H   UNL     1      49.572   2.457   5.789  0.00  0.00    +0.000 HD
ENDBRANCH  18  22
ENDBRANCH  14  15
ENDBRANCH   1  14
TORSDOF 7
ENDMDL
MODEL 3
REMARK VINA RESULT:    -7.223      1.469      2.077
REMARK INTER + INTRA:         -11.178
REMARK INTER:                 -10.423
REMARK INTRA:                  -0.755
REMARK UNBOUND:                -1.210
REMARK  Name = 
REMARK  8 active torsions:
REMARK  status: ('A' for Active; 'I' for Inactive)
REMARK    1  A    between atoms: C_1  and  C_2
REMARK    2  A    between atoms: C_2  and  C_3
REMARK    3  A    between atoms: C_2  and  C_15
REMARK    4  A    between atoms: C_3  and  O_4
REMARK    5  A    between atoms: O_4  and  C_5
REMARK    6  A    between atoms: C_8  and  C_9
REMARK    7  A    between atoms: C_19  and  C_20
REMARK    8  A    between atoms: C_20  and  N_21
REMARK                            x       y       z     vdW  Elec       q    Type
REMARK                         _______ _______ _______ _____ _____    ______ ____
ROOT
ATOM      1  C   UNL     1      43.779   4.498  11.359  0.00  0.00    +0.000 C 
ENDROOT
BRANCH   1   3
ATOM      2  C   UNL     1      45.691   3.733  12.851  0.00  0.00    +0.000 C 
ATOM      3  C   UNL     1      45.261   4.692  11.734  0.00  0.00    +0.000 C 
BRANCH   3   4
ATOM      4  C   UNL     1      45.578   6.133  12.100  0.00  0.00    +0.000 A 
ATOM      5  C   UNL     1      46.654   6.468  12.936  0.00  0.00    +0.000 A 
ATOM      6  C   UNL     1      46.939   7.802  13.226  0.00  0.00    +0.000 A 
ATOM      7  C   UNL     1      46.158   8.823  12.685  0.00  0.00    +0.000 A 
ATOM      8  C   UNL     1      45.077   8.520  11.849  0.00  0.00    +0.000 A 
ATOM      9  C   UNL     1      44.792   7.171  11.574  0.00  0.00    +0.000 A 
BRANCH   8  10
ATOM     10  C   UNL     1      44.223   9.615  11.263  0.00  0.00    +0.000 C 
BRANCH  10  11
ATOM     11  N   UNL     1      42.984   9.088  10.698  0.00  0.00    +0.000 NA
ATOM     12  H   UNL     1      43.102   8.996   9.690  0.00  0.00    +0.000 HD
ATOM     13  H   UNL     1      42.236   9.762  10.843  0.00  0.00    +0.000 HD
ENDBRANCH  10  11
ENDBRANCH   8  10
ENDBRANCH   3   4
ENDBRANCH   1   3
BRANCH   1  14
ATOM     14  O   UNL     1      43.657   4.497   9.930  0.00  0.00    +0.000 OA
BRANCH  14  15
ATOM     15  C   UNL     1      44.568   3.763   9.221  0.00  0.00    +0.000 A 
ATOM     16  C   UNL     1      45.389   4.520   8.378  0.00  0.00    +0.000 A 
ATOM     17  C   UNL     1      46.364   3.909   7.578  0.00  0.00    +0.000 A 
ATOM     18  C   UNL     1      46.529   2.518   7.609  0.00  0.00    +0.000 A 
ATOM     19  C   UNL     1      45.714   1.762   8.459  0.00  0.00    +0.000 A 
ATOM     20  C   UNL     1      44.749   2.379   9.253  0.00  0.00    +0.000 A 
ATOM     21  F   UNL     1      44.006   1.592  10.045  0.00  0.00    +0.000 F 
BRANCH  18  22
ATOM     22  C   UNL     1      47.533   1.785   6.788  0.00  0.00    +0.000 C 
ATOM     23  N   UNL     1      48.661   2.438   6.383  0.00  0.00    +0.000 N 
ATOM     24  O   UNL     1      47.358   0.615   6.466  0.00  0.00    +0.000 OA
ATOM     25  H   UNL     1      48.880   3.402   6.569  0.00  0.00    +0.000 HD
ATOM     26  H   UNL     1      49.307   1.908   5.812  0.00  0.00    +0.000 HD
ENDBRANCH  18  22
ENDBRANCH  14  15
ENDBRANCH   1  14
TORSDOF 7
ENDMDL
MODEL 4
REMARK VINA RESULT:    -6.572      2.676      6.247
REMARK INTER + INTRA:         -10.280
REMARK INTER:                  -9.171
REMARK INTRA:                  -1.110
REMARK UNBOUND:                -1.210
REMARK  Name = 
REMARK  8 active torsions:
REMARK  status: ('A' for Active; 'I' for Inactive)
REMARK    1  A    between atoms: C_1  and  C_2
REMARK    2  A    between atoms: C_2  and  C_3
REMARK    3  A    between atoms: C_2  and  C_15
REMARK    4  A    between atoms: C_3  and  O_4
REMARK    5  A    between atoms: O_4  and  C_5
REMARK    6  A    between atoms: C_8  and  C_9
REMARK    7  A    between atoms: C_19  and  C_20
REMARK    8  A    between atoms: C_20  and  N_21
REMARK                            x       y       z     vdW  Elec       q    Type
REMARK                         _______ _______ _______ _____ _____    ______ ____
ROOT
ATOM      1  C   UNL     1      43.210   5.113  11.670  0.00  0.00    +0.000 C 
ENDROOT
BRANCH   1   3
ATOM      2  C   UNL     1      43.644   2.658  12.176  0.00  0.00    +0.000 C 
ATOM      3  C   UNL     1      43.333   3.691  11.086  0.00  0.00    +0.000 C 
BRANCH   3   4
ATOM      4  C   UNL     1      44.352   3.620   9.959  0.00  0.00    +0.000 A 
ATOM      5  C   UNL     1      44.905   4.774   9.385  0.00  0.00    +0.000 A 
ATOM      6  C   UNL     1      45.863   4.675   8.375  0.00  0.00    +0.000 A 
ATOM      7  C   UNL     1      46.285   3.424   7.925  0.00  0.00    +0.000 A 
ATOM      8  C   UNL     1      45.749   2.255   8.478  0.00  0.00    +0.000 A 
ATOM      9  C   UNL     1      44.776   2.368   9.486  0.00  0.00    +0.000 A 
BRANCH   8  10
ATOM     10  C   UNL     1      46.195   0.898   7.995  0.00  0.00    +0.000 C 
BRANCH  10  11
ATOM     11  N   UNL     1      47.408   0.987   7.187  0.00  0.00    +0.000 NA
ATOM     12  H   UNL     1      47.888   0.089   7.225  0.00  0.00    +0.000 HD
ATOM     13  H   UNL     1      48.037   1.670   7.601  0.00  0.00    +0.000 HD
ENDBRANCH  10  11
ENDBRANCH   8  10
ENDBRANCH   3   4
ENDBRANCH   1   3
BRANCH   1  14
ATOM     14  O   UNL     1      43.882   5.155  12.936  0.00  0.00    +0.000 OA
BRANCH  14  15
ATOM     15  C   UNL     1      45.134   5.706  12.967  0.00  0.00    +0.000 A 
ATOM     16  C   UNL     1      45.180   7.056  12.600  0.00  0.00    +0.000 A 
ATOM     17  C   UNL     1      46.393   7.757  12.571  0.00  0.00    +0.000 A 
ATOM     18  C   UNL     1      47.587   7.109  12.910  0.00  0.00    +0.000 A 
ATOM     19  C   UNL     1      47.540   5.761  13.285  0.00  0.00    +0.000 A 
ATOM     20  C   UNL     1      46.328   5.074  13.314  0.00  0.00    +0.000 A 
ATOM     21  F   UNL     1      46.359   3.786  13.686  0.00  0.00    +0.000 F 
BRANCH  18  22
ATOM     22  C   UNL     1      48.921   7.772  12.899  0.00  0.00    +0.000 C 
ATOM     23  N   UNL     1      49.975   7.129  12.316  0.00  0.00    +0.000 N 
ATOM     24  O   UNL     1      49.086   8.875  13.407  0.00  0.00    +0.000 OA
ATOM     25  H   UNL     1      49.948   6.213  11.901  0.00  0.00    +0.000 HD
ATOM     26  H   UNL     1      50.867   7.608  12.347  0.00  0.00    +0.000 HD
ENDBRANCH  18  22
ENDBRANCH  14  15
ENDBRANCH   1  14
TORSDOF 7
ENDMDL
MODEL 5
REMARK VINA RESULT:    -6.346      1.899      2.723
REMARK INTER + INTRA:          -9.968
REMARK INTER:                  -9.224
REMARK INTRA:                  -0.744
REMARK UNBOUND:                -1.210
REMARK  Name = 
REMARK  8 active torsions:
REMARK  status: ('A' for Active; 'I' for Inactive)
REMARK    1  A    between atoms: C_1  and  C_2
REMARK    2  A    between atoms: C_2  and  C_3
REMARK    3  A    between atoms: C_2  and  C_15
REMARK    4  A    between atoms: C_3  and  O_4
REMARK    5  A    between atoms: O_4  and  C_5
REMARK    6  A    between atoms: C_8  and  C_9
REMARK    7  A    between atoms: C_19  and  C_20
REMARK    8  A    between atoms: C_20  and  N_21
REMARK                            x       y       z     vdW  Elec       q    Type
REMARK                         _______ _______ _______ _____ _____    ______ ____
ROOT
ATOM      1  C   UNL     1      44.179   4.804  12.060  0.00  0.00    +0.000 C 
ENDROOT
BRANCH   1   3
ATOM      2  C   UNL     1      46.217   3.783  13.190  0.00  0.00    +0.000 C 
ATOM      3  C   UNL     1      45.714   4.839  12.198  0.00  0.00    +0.000 C 
BRANCH   3   4
ATOM      4  C   UNL     1      46.226   6.223  12.567  0.00  0.00    +0.000 A 
ATOM      5  C   UNL     1      45.367   7.328  12.673  0.00  0.00    +0.000 A 
ATOM      6  C   UNL     1      45.862   8.578  13.047  0.00  0.00    +0.000 A 
ATOM      7  C   UNL     1      47.219   8.744  13.323  0.00  0.00    +0.000 A 
ATOM      8  C   UNL     1      48.100   7.660  13.224  0.00  0.00    +0.000 A 
ATOM      9  C   UNL     1      47.591   6.409  12.835  0.00  0.00    +0.000 A 
BRANCH   8  10
ATOM     10  C   UNL     1      49.569   7.831  13.516  0.00  0.00    +0.000 C 
BRANCH  10  11
ATOM     11  N   UNL     1      50.006   6.960  14.604  0.00  0.00    +0.000 NA
ATOM     12  H   UNL     1      49.234   6.345  14.857  0.00  0.00    +0.000 HD
ATOM     13  H   UNL     1      50.208   7.525  15.425  0.00  0.00    +0.000 HD
ENDBRANCH  10  11
ENDBRANCH   8  10
ENDBRANCH   3   4
ENDBRANCH   1   3
BRANCH   1  14
ATOM     14  O   UNL     1      43.836   4.873  10.669  0.00  0.00    +0.000 OA
BRANCH  14  15
ATOM     15  C   UNL     1      44.596   4.145   9.795  0.00  0.00    +0.000 A 
ATOM     16  C   UNL     1      45.411   4.916   8.957  0.00  0.00    +0.000 A 
ATOM     17  C   UNL     1      46.239   4.314   8.000  0.00  0.00    +0.000 A 
ATOM     18  C   UNL     1      46.259   2.920   7.865  0.00  0.00    +0.000 A 
ATOM     19  C   UNL     1      45.451   2.149   8.709  0.00  0.00    +0.000 A 
ATOM     20  C   UNL     1      44.634   2.757   9.660  0.00  0.00    +0.000 A 
ATOM     21  F   UNL     1      43.889   1.955  10.435  0.00  0.00    +0.000 F 
BRANCH  18  22
ATOM     22  C   UNL     1      47.101   2.197   6.871  0.00  0.00    +0.000 C 
ATOM     23  N   UNL     1      46.922   2.454   5.542  0.00  0.00    +0.000 N 
ATOM     24  O   UNL     1      47.939   1.376   7.225  0.00  0.00    +0.000 OA
ATOM     25  H   UNL     1      46.242   3.084   5.151  0.00  0.00    +0.000 HD
ATOM     26  H   UNL     1      47.501   1.927   4.900  0.00  0.00    +0.000 HD
ENDBRANCH  18  22
ENDBRANCH  14  15
ENDBRANCH   1  14
TORSDOF 7
ENDMDL
MODEL 6
REMARK VINA RESULT:    -6.143      4.065      6.608
REMARK INTER + INTRA:          -9.688
REMARK INTER:                  -8.644
REMARK INTRA:                  -1.045
REMARK UNBOUND:                -1.210
REMARK  Name = 
REMARK  8 active torsions:
REMARK  status: ('A' for Active; 'I' for Inactive)
REMARK    1  A    between atoms: C_1  and  C_2
REMARK    2  A    between atoms: C_2  and  C_3
REMARK    3  A    between atoms: C_2  and  C_15
REMARK    4  A    between atoms: C_3  and  O_4
REMARK    5  A    between atoms: O_4  and  C_5
REMARK    6  A    between atoms: C_8  and  C_9
REMARK    7  A    between atoms: C_19  and  C_20
REMARK    8  A    between atoms: C_20  and  N_21
REMARK                            x       y       z     vdW  Elec       q    Type
REMARK                         _______ _______ _______ _____ _____    ______ ____
ROOT
ATOM      1  C   UNL     1      49.075   7.375  14.053  0.00  0.00    +0.000 C 
ENDROOT
BRANCH   1   3
ATOM      2  C   UNL     1      48.926   8.668  16.239  0.00  0.00    +0.000 C 
ATOM      3  C   UNL     1      48.630   7.341  15.529  0.00  0.00    +0.000 C 
BRANCH   3   4
ATOM      4  C   UNL     1      49.238   6.170  16.284  0.00  0.00    +0.000 A 
ATOM      5  C   UNL     1      50.602   6.125  16.611  0.00  0.00    +0.000 A 
ATOM      6  C   UNL     1      51.124   5.052  17.334  0.00  0.00    +0.000 A 
ATOM      7  C   UNL     1      50.294   4.010  17.746  0.00  0.00    +0.000 A 
ATOM      8  C   UNL     1      48.929   4.027  17.434  0.00  0.00    +0.000 A 
ATOM      9  C   UNL     1      48.417   5.107  16.694  0.00  0.00    +0.000 A 
BRANCH   8  10
ATOM     10  C   UNL     1      48.024   2.903  17.870  0.00  0.00    +0.000 C 
BRANCH  10  11
ATOM     11  N   UNL     1      46.632   3.165  17.515  0.00  0.00    +0.000 NA
ATOM     12  H   UNL     1      46.589   3.401  16.525  0.00  0.00    +0.000 HD
ATOM     13  H   UNL     1      46.304   3.982  18.023  0.00  0.00    +0.000 HD
ENDBRANCH  10  11
ENDBRANCH   8  10
ENDBRANCH   3   4
ENDBRANCH   1   3
BRANCH   1  14
ATOM     14  O   UNL     1      48.756   6.117  13.443  0.00  0.00    +0.000 OA
BRANCH  14  15
ATOM     15  C   UNL     1      47.475   5.939  12.997  0.00  0.00    +0.000 A 
ATOM     16  C   UNL     1      47.018   6.943  12.136  0.00  0.00    +0.000 A 
ATOM     17  C   UNL     1      45.722   6.907  11.605  0.00  0.00    +0.000 A 
ATOM     18  C   UNL     1      44.856   5.857  11.936  0.00  0.00    +0.000 A 
ATOM     19  C   UNL     1      45.315   4.848  12.790  0.00  0.00    +0.000 A 
ATOM     20  C   UNL     1      46.608   4.891  13.310  0.00  0.00    +0.000 A 
ATOM     21  F   UNL     1      46.980   3.889  14.119  0.00  0.00    +0.000 F 
BRANCH  18  22
ATOM     22  C   UNL     1      43.460   5.743  11.426  0.00  0.00    +0.000 C 
ATOM     23  N   UNL     1      42.742   6.882  11.203  0.00  0.00    +0.000 N 
ATOM     24  O   UNL     1      42.950   4.649  11.213  0.00  0.00    +0.000 OA
ATOM     25  H   UNL     1      43.061   7.821  11.376  0.00  0.00    +0.000 HD
ATOM     26  H   UNL     1      41.793   6.758  10.875  0.00  0.00    +0.000 HD
ENDBRANCH  18  22
ENDBRANCH  14  15
ENDBRANCH   1  14
TORSDOF 7
ENDMDL
MODEL 7
REMARK VINA RESULT:    -5.929      3.926      7.105
REMARK INTER + INTRA:          -9.392
REMARK INTER:                  -8.194
REMARK INTRA:                  -1.198
REMARK UNBOUND:                -1.210
REMARK  Name = 
REMARK  8 active torsions:
REMARK  status: ('A' for Active; 'I' for Inactive)
REMARK    1  A    between atoms: C_1  and  C_2
REMARK    2  A    between atoms: C_2  and  C_3
REMARK    3  A    between atoms: C_2  and  C_15
REMARK    4  A    between atoms: C_3  and  O_4
REMARK    5  A    between atoms: O_4  and  C_5
REMARK    6  A    between atoms: C_8  and  C_9
REMARK    7  A    between atoms: C_19  and  C_20
REMARK    8  A    between atoms: C_20  and  N_21
REMARK                            x       y       z     vdW  Elec       q    Type
REMARK                         _______ _______ _______ _____ _____    ______ ____
ROOT
ATOM      1  C   UNL     1      46.479   7.634  12.971  0.00  0.00    +0.000 C 
ENDROOT
BRANCH   1   3
ATOM      2  C   UNL     1      44.737   8.750  11.491  0.00  0.00    +0.000 C 
ATOM      3  C   UNL     1      45.644   7.528  11.679  0.00  0.00    +0.000 C 
BRANCH   3   4
ATOM      4  C   UNL     1      44.841   6.238  11.619  0.00  0.00    +0.000 A 
ATOM      5  C   UNL     1      43.921   5.889  12.619  0.00  0.00    +0.000 A 
ATOM      6  C   UNL     1      43.175   4.714  12.518  0.00  0.00    +0.000 A 
ATOM      7  C   UNL     1      43.332   3.872  11.417  0.00  0.00    +0.000 A 
ATOM      8  C   UNL     1      44.244   4.194  10.404  0.00  0.00    +0.000 A 
ATOM      9  C   UNL     1      44.999   5.373  10.523  0.00  0.00    +0.000 A 
BRANCH   8  10
ATOM     10  C   UNL     1      44.426   3.288   9.213  0.00  0.00    +0.000 C 
BRANCH  10  11
ATOM     11  N   UNL     1      44.942   1.980   9.606  0.00  0.00    +0.000 NA
ATOM     12  H   UNL     1      44.583   1.755  10.533  0.00  0.00    +0.000 HD
ATOM     13  H   UNL     1      45.954   2.030   9.691  0.00  0.00    +0.000 HD
ENDBRANCH  10  11
ENDBRANCH   8  10
ENDBRANCH   3   4
ENDBRANCH   1   3
BRANCH   1  14
ATOM     14  O   UNL     1      47.462   6.589  12.975  0.00  0.00    +0.000 OA
BRANCH  14  15
ATOM     15  C   UNL     1      47.591   5.850  14.119  0.00  0.00    +0.000 A 
ATOM     16  C   UNL     1      48.347   6.465  15.122  0.00  0.00    +0.000 A 
ATOM     17  C   UNL     1      48.578   5.827  16.348  0.00  0.00    +0.000 A 
ATOM     18  C   UNL     1      48.054   4.551  16.586  0.00  0.00    +0.000 A 
ATOM     19  C   UNL     1      47.290   3.938  15.586  0.00  0.00    +0.000 A 
ATOM     20  C   UNL     1      47.063   4.583  14.371  0.00  0.00    +0.000 A 
ATOM     21  F   UNL     1      46.321   3.937  13.460  0.00  0.00    +0.000 F 
BRANCH  18  22
ATOM     22  C   UNL     1      48.256   3.796  17.855  0.00  0.00    +0.000 C 
ATOM     23  N   UNL     1      47.307   2.897  18.248  0.00  0.00    +0.000 N 
ATOM     24  O   UNL     1      49.252   3.973  18.548  0.00  0.00    +0.000 OA
ATOM     25  H   UNL     1      46.445   2.704  17.767  0.00  0.00    +0.000 HD
ATOM     26  H   UNL     1      47.475   2.420  19.125  0.00  0.00    +0.000 HD
ENDBRANCH  18  22
ENDBRANCH  14  15
ENDBRANCH   1  14
TORSDOF 7
ENDMDL
MODEL 8
REMARK VINA RESULT:    -5.878      3.849      5.858
REMARK INTER + INTRA:          -9.322
REMARK INTER:                  -8.353
REMARK INTRA:                  -0.969
REMARK UNBOUND:                -1.210
REMARK  Name = 
REMARK  8 active torsions:
REMARK  status: ('A' for Active; 'I' for Inactive)
REMARK    1  A    between atoms: C_1  and  C_2
REMARK    2  A    between atoms: C_2  and  C_3
REMARK    3  A    between atoms: C_2  and  C_15
REMARK    4  A    between atoms: C_3  and  O_4
REMARK    5  A    between atoms: O_4  and  C_5
REMARK    6  A    between atoms: C_8  and  C_9
REMARK    7  A    between atoms: C_19  and  C_20
REMARK    8  A    between atoms: C_20  and  N_21
REMARK                            x       y       z     vdW  Elec       q    Type
REMARK                         _______ _______ _______ _____ _____    ______ ____
ROOT
ATOM      1  C   UNL     1      49.143   7.074  12.112  0.00  0.00    +0.000 C 
ENDROOT
BRANCH   1   3
ATOM      2  C   UNL     1      49.209   8.458  14.246  0.00  0.00    +0.000 C 
ATOM      3  C   UNL     1      49.481   8.443  12.736  0.00  0.00    +0.000 C 
BRANCH   3   4
ATOM      4  C   UNL     1      48.759   9.585  12.040  0.00  0.00    +0.000 A 
ATOM      5  C   UNL     1      49.428  10.475  11.186  0.00  0.00    +0.000 A 
ATOM      6  C   UNL     1      48.731  11.494  10.535  0.00  0.00    +0.000 A 
ATOM      7  C   UNL     1      47.357  11.639  10.724  0.00  0.00    +0.000 A 
ATOM      8  C   UNL     1      46.663  10.767  11.572  0.00  0.00    +0.000 A 
ATOM      9  C   UNL     1      47.378   9.752  12.231  0.00  0.00    +0.000 A 
BRANCH   8  10
ATOM     10  C   UNL     1      45.178  10.918  11.786  0.00  0.00    +0.000 C 
BRANCH  10  11
ATOM     11  N   UNL     1      44.642   9.843  12.616  0.00  0.00    +0.000 NA
ATOM     12  H   UNL     1      44.016  10.250  13.310  0.00  0.00    +0.000 HD
ATOM     13  H   UNL     1      45.402   9.407  13.132  0.00  0.00    +0.000 HD
ENDBRANCH  10  11
ENDBRANCH   8  10
ENDBRANCH   3   4
ENDBRANCH   1   3
BRANCH   1  14
ATOM     14  O   UNL     1      48.459   6.275  13.087  0.00  0.00    +0.000 OA
BRANCH  14  15
ATOM     15  C   UNL     1      47.165   5.922  12.817  0.00  0.00    +0.000 A 
ATOM     16  C   UNL     1      46.686   6.383  11.586  0.00  0.00    +0.000 A 
ATOM     17  C   UNL     1      45.375   6.112  11.172  0.00  0.00    +0.000 A 
ATOM     18  C   UNL     1      44.517   5.371  11.996  0.00  0.00    +0.000 A 
ATOM     19  C   UNL     1      44.999   4.902  13.223  0.00  0.00    +0.000 A 
ATOM     20  C   UNL     1      46.306   5.174  13.623  0.00  0.00    +0.000 A 
ATOM     21  F   UNL     1      46.700   4.691  14.810  0.00  0.00    +0.000 F 
BRANCH  18  22
ATOM     22  C   UNL     1      43.107   5.043  11.641  0.00  0.00    +0.000 C 
ATOM     23  N   UNL     1      42.158   6.020  11.734  0.00  0.00    +0.000 N 
ATOM     24  O   UNL     1      42.789   3.917  11.277  0.00  0.00    +0.000 OA
ATOM     25  H   UNL     1      42.313   6.962  12.050  0.00  0.00    +0.000 HD
ATOM     26  H   UNL     1      41.210   5.750  11.502  0.00  0.00    +0.000 HD
ENDBRANCH  18  22
ENDBRANCH  14  15
ENDBRANCH   1  14
TORSDOF 7
ENDMDL
MODEL 9
REMARK VINA RESULT:    -5.835      3.994      6.070
REMARK INTER + INTRA:          -9.263
REMARK INTER:                  -8.464
REMARK INTRA:                  -0.799
REMARK UNBOUND:                -1.210
REMARK  Name = 
REMARK  8 active torsions:
REMARK  status: ('A' for Active; 'I' for Inactive)
REMARK    1  A    between atoms: C_1  and  C_2
REMARK    2  A    between atoms: C_2  and  C_3
REMARK    3  A    between atoms: C_2  and  C_15
REMARK    4  A    between atoms: C_3  and  O_4
REMARK    5  A    between atoms: O_4  and  C_5
REMARK    6  A    between atoms: C_8  and  C_9
REMARK    7  A    between atoms: C_19  and  C_20
REMARK    8  A    between atoms: C_20  and  N_21
REMARK                            x       y       z     vdW  Elec       q    Type
REMARK                         _______ _______ _______ _____ _____    ______ ____
ROOT
ATOM      1  C   UNL     1      48.465   6.849  13.969  0.00  0.00    +0.000 C 
ENDROOT
BRANCH   1   3
ATOM      2  C   UNL     1      49.657   8.505  15.488  0.00  0.00    +0.000 C 
ATOM      3  C   UNL     1      48.735   7.282  15.424  0.00  0.00    +0.000 C 
BRANCH   3   4
ATOM      4  C   UNL     1      49.280   6.142  16.270  0.00  0.00    +0.000 A 
ATOM      5  C   UNL     1      50.602   6.134  16.740  0.00  0.00    +0.000 A 
ATOM      6  C   UNL     1      51.064   5.090  17.543  0.00  0.00    +0.000 A 
ATOM      7  C   UNL     1      50.213   4.041  17.892  0.00  0.00    +0.000 A 
ATOM      8  C   UNL     1      48.889   4.022  17.437  0.00  0.00    +0.000 A 
ATOM      9  C   UNL     1      48.440   5.073  16.618  0.00  0.00    +0.000 A 
BRANCH   8  10
ATOM     10  C   UNL     1      47.963   2.890  17.804  0.00  0.00    +0.000 C 
BRANCH  10  11
ATOM     11  N   UNL     1      46.572   3.213  17.501  0.00  0.00    +0.000 NA
ATOM     12  H   UNL     1      46.546   3.754  16.637  0.00  0.00    +0.000 HD
ATOM     13  H   UNL     1      46.200   3.816  18.231  0.00  0.00    +0.000 HD
ENDBRANCH  10  11
ENDBRANCH   8  10
ENDBRANCH   3   4
ENDBRANCH   1   3
BRANCH   1  14
ATOM     14  O   UNL     1      47.125   7.216  13.616  0.00  0.00    +0.000 OA
BRANCH  14  15
ATOM     15  C   UNL     1      46.374   6.290  12.943  0.00  0.00    +0.000 A 
ATOM     16  C   UNL     1      46.464   4.992  13.456  0.00  0.00    +0.000 A 
ATOM     17  C   UNL     1      45.761   3.932  12.867  0.00  0.00    +0.000 A 
ATOM     18  C   UNL     1      44.956   4.159  11.745  0.00  0.00    +0.000 A 
ATOM     19  C   UNL     1      44.859   5.460  11.237  0.00  0.00    +0.000 A 
ATOM     20  C   UNL     1      45.559   6.509  11.832  0.00  0.00    +0.000 A 
ATOM     21  F   UNL     1      45.417   7.728  11.293  0.00  0.00    +0.000 F 
BRANCH  18  22
ATOM     22  C   UNL     1      44.182   3.092  11.050  0.00  0.00    +0.000 C 
ATOM     23  N   UNL     1      44.792   2.364  10.070  0.00  0.00    +0.000 N 
ATOM     24  O   UNL     1      43.012   2.865  11.339  0.00  0.00    +0.000 OA
ATOM     25  H   UNL     1      45.734   2.494   9.741  0.00  0.00    +0.000 HD
ATOM     26  H   UNL     1      44.225   1.662   9.612  0.00  0.00    +0.000 HD
ENDBRANCH  18  22
ENDBRANCH  14  15
ENDBRANCH   1  14
TORSDOF 7
ENDMDL
