MODEL 1
REMARK VINA RESULT:    -8.291      0.000      0.000
REMARK INTER + INTRA:         -13.520
REMARK INTER:                 -12.411
REMARK INTRA:                  -1.109
REMARK UNBOUND:                -1.109
REMARK  Name = 
REMARK  9 active torsions:
REMARK  status: ('A' for Active; 'I' for Inactive)
REMARK    1  A    between atoms: C_2  and  C_22
REMARK    2  A    between atoms: N_3  and  C_4
REMARK    3  A    between atoms: C_4  and  C_5
REMARK    4  A    between atoms: C_8  and  C_9
REMARK    5  A    between atoms: C_9  and  N_10
REMARK    6  A    between atoms: N_10  and  C_11
REMARK    7  A    between atoms: C_11  and  C_12
REMARK    8  A    between atoms: C_12  and  O_13
REMARK    9  A    between atoms: C_12  and  C_14
REMARK                            x       y       z     vdW  Elec       q    Type
REMARK                         _______ _______ _______ _____ _____    ______ ____
ROOT
ATOM      1  C   UNL     1      46.110   6.692  12.622  0.00  0.00    +0.000 A 
ATOM      2  C   UNL     1      44.949   6.988  11.897  0.00  0.00    +0.000 A 
ATOM      3  C   UNL     1      44.079   5.971  11.508  0.00  0.00    +0.000 A 
ATOM      4  C   UNL     1      44.354   4.638  11.831  0.00  0.00    +0.000 A 
ATOM      5  C   UNL     1      45.499   4.343  12.587  0.00  0.00    +0.000 A 
ATOM      6  C   UNL     1      46.365   5.365  12.985  0.00  0.00    +0.000 A 
ENDROOT
BRANCH   1   7
ATOM      7  C   UNL     1      47.048   7.798  13.027  0.00  0.00    +0.000 C 
BRANCH   7  10
ATOM      8  O   UNL     1      49.562   6.913  13.899  0.00  0.00    +0.000 OA
ATOM      9  C   UNL     1      48.731   7.252  14.737  0.00  0.00    +0.000 C 
ATOM     10  N   UNL     1      47.465   7.649  14.397  0.00  0.00    +0.000 N 
ATOM     11  H   UNL     1      46.880   8.101  15.095  0.00  0.00    +0.000 HD
BRANCH   9  12
ATOM     12  C   UNL     1      49.034   7.195  16.172  0.00  0.00    +0.000 A 
ATOM     13  C   UNL     1      49.543   8.319  16.809  0.00  0.00    +0.000 A 
ATOM     14  S   UNL     1      49.840   8.090  18.471  0.00  0.00    +0.000 S 
ATOM     15  C   UNL     1      49.258   6.493  18.409  0.00  0.00    +0.000 A 
ATOM     16  N   UNL     1      49.196   5.728  19.533  0.00  0.00    +0.000 NA
ATOM     17  C   UNL     1      48.697   4.552  19.351  0.00  0.00    +0.000 A 
ATOM     18  N   UNL     1      48.269   4.064  18.143  0.00  0.00    +0.000 N 
ATOM     19  C   UNL     1      48.385   4.770  16.970  0.00  0.00    +0.000 A 
ATOM     20  O   UNL     1      48.126   4.253  15.888  0.00  0.00    +0.000 OA
ATOM     21  C   UNL     1      48.883   6.124  17.129  0.00  0.00    +0.000 A 
ATOM     22  H   UNL     1      47.922   3.120  18.063  0.00  0.00    +0.000 HD
ENDBRANCH   9  12
ENDBRANCH   7  10
ENDBRANCH   1   7
BRANCH   4  23
ATOM     23  C   UNL     1      43.455   3.533  11.336  0.00  0.00    +0.000 C 
BRANCH  23  24
ATOM     24  N   UNL     1      44.187   2.403  10.758  0.00  0.00    +0.000 NA
ATOM     25  H   UNL     1      43.702   1.539  10.991  0.00  0.00    +0.000 HD
BRANCH  24  26
ATOM     26  C   UNL     1      44.345   2.480   9.295  0.00  0.00    +0.000 C 
BRANCH  26  27
ATOM     27  C   UNL     1      45.496   3.378   8.769  0.00  0.00    +0.000 C 
BRANCH  27  28
ATOM     28  C   UNL     1      46.269   2.721   7.641  0.00  0.00    +0.000 A 
ATOM     29  C   UNL     1      46.662   1.379   7.759  0.00  0.00    +0.000 A 
ATOM     30  C   UNL     1      47.263   0.713   6.690  0.00  0.00    +0.000 A 
ATOM     31  C   UNL     1      47.491   1.388   5.492  0.00  0.00    +0.000 A 
ATOM     32  C   UNL     1      47.135   2.728   5.368  0.00  0.00    +0.000 A 
ATOM     33  C   UNL     1      46.527   3.393   6.436  0.00  0.00    +0.000 A 
ENDBRANCH  27  28
BRANCH  27  34
ATOM     34  O   UNL     1      44.976   4.642   8.346  0.00  0.00    +0.000 OA
ATOM     35  H   UNL     1      45.058   4.684   7.380  0.00  0.00    +0.000 HD
ENDBRANCH  27  34
ENDBRANCH  26  27
ENDBRANCH  24  26
ENDBRANCH  23  24
ENDBRANCH   4  23
TORSDOF 9
ENDMDL
MODEL 2
REMARK VINA RESULT:    -8.179      1.124      1.488
REMARK INTER + INTRA:         -13.352
REMARK INTER:                 -12.384
REMARK INTRA:                  -0.968
REMARK UNBOUND:                -1.109
REMARK  Name = 
REMARK  9 active torsions:
REMARK  status: ('A' for Active; 'I' for Inactive)
REMARK    1  A    between atoms: C_2  and  C_22
REMARK    2  A    between atoms: N_3  and  C_4
REMARK    3  A    between atoms: C_4  and  C_5
REMARK    4  A    between atoms: C_8  and  C_9
REMARK    5  A    between atoms: C_9  and  N_10
REMARK    6  A    between atoms: N_10  and  C_11
REMARK    7  A    between atoms: C_11  and  C_12
REMARK    8  A    between atoms: C_12  and  O_13
REMARK    9  A    between atoms: C_12  and  C_14
REMARK                            x       y       z     vdW  Elec       q    Type
REMARK                         _______ _______ _______ _____ _____    ______ ____
ROOT
ATOM      1  C   UNL     1      47.024   6.112  12.906  0.00  0.00    +0.000 A 
ATOM      2  C   UNL     1      46.439   6.892  11.900  0.00  0.00    +0.000 A 
ATOM      3  C   UNL     1      45.239   6.500  11.309  0.00  0.00    +0.000 A 
ATOM      4  C   UNL     1      44.605   5.318  11.706  0.00  0.00    +0.000 A 
ATOM      5  C   UNL     1      45.172   4.553  12.737  0.00  0.00    +0.000 A 
ATOM      6  C   UNL     1      46.369   4.953  13.336  0.00  0.00    +0.000 A 
ENDROOT
BRANCH   1   7
ATOM      7  C   UNL     1      48.326   6.541  13.529  0.00  0.00    +0.000 C 
BRANCH   7  10
ATOM      8  O   UNL     1      50.464   6.843  15.320  0.00  0.00    +0.000 OA
ATOM      9  C   UNL     1      49.324   6.760  15.768  0.00  0.00    +0.000 C 
ATOM     10  N   UNL     1      48.231   6.562  14.966  0.00  0.00    +0.000 N 
ATOM     11  H   UNL     1      47.300   6.693  15.351  0.00  0.00    +0.000 HD
BRANCH   9  12
ATOM     12  C   UNL     1      49.071   6.813  17.213  0.00  0.00    +0.000 A 
ATOM     13  C   UNL     1      48.885   8.042  17.831  0.00  0.00    +0.000 A 
ATOM     14  S   UNL     1      48.602   7.931  19.508  0.00  0.00    +0.000 S 
ATOM     15  C   UNL     1      48.675   6.232  19.462  0.00  0.00    +0.000 A 
ATOM     16  N   UNL     1      48.468   5.494  20.585  0.00  0.00    +0.000 NA
ATOM     17  C   UNL     1      48.510   4.217  20.400  0.00  0.00    +0.000 A 
ATOM     18  N   UNL     1      48.759   3.611  19.195  0.00  0.00    +0.000 N 
ATOM     19  C   UNL     1      49.052   4.316  18.052  0.00  0.00    +0.000 A 
ATOM     20  O   UNL     1      49.408   3.744  17.027  0.00  0.00    +0.000 OA
ATOM     21  C   UNL     1      48.954   5.757  18.192  0.00  0.00    +0.000 A 
ATOM     22  H   UNL     1      48.815   2.606  19.126  0.00  0.00    +0.000 HD
ENDBRANCH   9  12
ENDBRANCH   7  10
ENDBRANCH   1   7
BRANCH   4  23
ATOM     23  C   UNL     1      43.352   4.853  11.006  0.00  0.00    +0.000 C 
BRANCH  23  24
ATOM     24  N   UNL     1      43.530   4.655   9.565  0.00  0.00    +0.000 NA
ATOM     25  H   UNL     1      43.939   5.496   9.163  0.00  0.00    +0.000 HD
BRANCH  24  26
ATOM     26  C   UNL     1      44.381   3.503   9.223  0.00  0.00    +0.000 C 
BRANCH  26  27
ATOM     27  C   UNL     1      45.811   3.825   8.710  0.00  0.00    +0.000 C 
BRANCH  27  28
ATOM     28  C   UNL     1      46.275   2.845   7.649  0.00  0.00    +0.000 A 
ATOM     29  C   UNL     1      46.592   3.312   6.364  0.00  0.00    +0.000 A 
ATOM     30  C   UNL     1      47.138   2.456   5.407  0.00  0.00    +0.000 A 
ATOM     31  C   UNL     1      47.360   1.116   5.720  0.00  0.00    +0.000 A 
ATOM     32  C   UNL     1      47.023   0.629   6.980  0.00  0.00    +0.000 A 
ATOM     33  C   UNL     1      46.483   1.487   7.941  0.00  0.00    +0.000 A 
ENDBRANCH  27  28
BRANCH  27  34
ATOM     34  O   UNL     1      45.860   5.163   8.208  0.00  0.00    +0.000 OA
ATOM     35  H   UNL     1      46.194   5.731   8.921  0.00  0.00    +0.000 HD
ENDBRANCH  27  34
ENDBRANCH  26  27
ENDBRANCH  24  26
ENDBRANCH  23  24
ENDBRANCH   4  23
TORSDOF 9
ENDMDL
MODEL 3
REMARK VINA RESULT:    -7.964      1.949      2.569
REMARK INTER + INTRA:         -13.030
REMARK INTER:                 -12.096
REMARK INTRA:                  -0.934
REMARK UNBOUND:                -1.109
REMARK  Name = 
REMARK  9 active torsions:
REMARK  status: ('A' for Active; 'I' for Inactive)
REMARK    1  A    between atoms: C_2  and  C_22
REMARK    2  A    between atoms: N_3  and  C_4
REMARK    3  A    between atoms: C_4  and  C_5
REMARK    4  A    between atoms: C_8  and  C_9
REMARK    5  A    between atoms: C_9  and  N_10
REMARK    6  A    between atoms: N_10  and  C_11
REMARK    7  A    between atoms: C_11  and  C_12
REMARK    8  A    between atoms: C_12  and  O_13
REMARK    9  A    between atoms: C_12  and  C_14
REMARK                            x       y       z     vdW  Elec       q    Type
REMARK                         _______ _______ _______ _____ _____    ______ ____
ROOT
ATOM      1  C   UNL     1      47.021   6.202  13.437  0.00  0.00    +0.000 A 
ATOM      2  C   UNL     1      46.495   4.913  13.592  0.00  0.00    +0.000 A 
ATOM      3  C   UNL     1      45.349   4.529  12.898  0.00  0.00    +0.000 A 
ATOM      4  C   UNL     1      44.703   5.427  12.041  0.00  0.00    +0.000 A 
ATOM      5  C   UNL     1      45.247   6.707  11.859  0.00  0.00    +0.000 A 
ATOM      6  C   UNL     1      46.403   7.087  12.547  0.00  0.00    +0.000 A 
ENDROOT
BRANCH   1   7
ATOM      7  C   UNL     1      48.253   6.609  14.201  0.00  0.00    +0.000 C 
BRANCH   7  10
ATOM      8  O   UNL     1      50.332   6.104  16.015  0.00  0.00    +0.000 OA
ATOM      9  C   UNL     1      49.178   6.149  16.435  0.00  0.00    +0.000 C 
ATOM     10  N   UNL     1      48.103   6.342  15.608  0.00  0.00    +0.000 N 
ATOM     11  H   UNL     1      47.198   6.565  16.013  0.00  0.00    +0.000 HD
BRANCH   9  12
ATOM     12  C   UNL     1      48.880   5.940  17.856  0.00  0.00    +0.000 A 
ATOM     13  C   UNL     1      49.166   4.715  18.443  0.00  0.00    +0.000 A 
ATOM     14  S   UNL     1      48.761   4.636  20.096  0.00  0.00    +0.000 S 
ATOM     15  C   UNL     1      48.229   6.251  20.099  0.00  0.00    +0.000 A 
ATOM     16  N   UNL     1      47.784   6.838  21.243  0.00  0.00    +0.000 NA
ATOM     17  C   UNL     1      47.451   8.078  21.111  0.00  0.00    +0.000 A 
ATOM     18  N   UNL     1      47.505   8.781  19.935  0.00  0.00    +0.000 N 
ATOM     19  C   UNL     1      47.873   8.208  18.741  0.00  0.00    +0.000 A 
ATOM     20  O   UNL     1      47.775   8.824  17.685  0.00  0.00    +0.000 OA
ATOM     21  C   UNL     1      48.318   6.831  18.845  0.00  0.00    +0.000 A 
ATOM     22  H   UNL     1      47.194   9.740  19.893  0.00  0.00    +0.000 HD
ENDBRANCH   9  12
ENDBRANCH   7  10
ENDBRANCH   1   7
BRANCH   4  23
ATOM     23  C   UNL     1      43.416   5.036  11.357  0.00  0.00    +0.000 C 
BRANCH  23  24
ATOM     24  N   UNL     1      43.504   5.062   9.895  0.00  0.00    +0.000 NA
ATOM     25  H   UNL     1      43.460   6.027   9.576  0.00  0.00    +0.000 HD
BRANCH  24  26
ATOM     26  C   UNL     1      44.728   4.440   9.360  0.00  0.00    +0.000 C 
BRANCH  26  27
ATOM     27  C   UNL     1      44.624   2.947   8.949  0.00  0.00    +0.000 C 
BRANCH  27  28
ATOM     28  C   UNL     1      45.712   2.543   7.972  0.00  0.00    +0.000 A 
ATOM     29  C   UNL     1      46.306   1.276   8.080  0.00  0.00    +0.000 A 
ATOM     30  C   UNL     1      47.219   0.831   7.123  0.00  0.00    +0.000 A 
ATOM     31  C   UNL     1      47.560   1.655   6.052  0.00  0.00    +0.000 A 
ATOM     32  C   UNL     1      47.002   2.926   5.946  0.00  0.00    +0.000 A 
ATOM     33  C   UNL     1      46.083   3.370   6.900  0.00  0.00    +0.000 A 
ENDBRANCH  27  28
BRANCH  27  34
ATOM     34  O   UNL     1      44.665   2.116  10.112  0.00  0.00    +0.000 OA
ATOM     35  H   UNL     1      45.304   2.508  10.729  0.00  0.00    +0.000 HD
ENDBRANCH  27  34
ENDBRANCH  26  27
ENDBRANCH  24  26
ENDBRANCH  23  24
ENDBRANCH   4  23
TORSDOF 9
ENDMDL
MODEL 4
REMARK VINA RESULT:    -7.774      2.766      3.566
REMARK INTER + INTRA:         -12.746
REMARK INTER:                 -11.833
REMARK INTRA:                  -0.913
REMARK UNBOUND:                -1.109
REMARK  Name = 
REMARK  9 active torsions:
REMARK  status: ('A' for Active; 'I' for Inactive)
REMARK    1  A    between atoms: C_2  and  C_22
REMARK    2  A    between atoms: N_3  and  C_4
REMARK    3  A    between atoms: C_4  and  C_5
REMARK    4  A    between atoms: C_8  and  C_9
REMARK    5  A    between atoms: C_9  and  N_10
REMARK    6  A    between atoms: N_10  and  C_11
REMARK    7  A    between atoms: C_11  and  C_12
REMARK    8  A    between atoms: C_12  and  O_13
REMARK    9  A    between atoms: C_12  and  C_14
REMARK                            x       y       z     vdW  Elec       q    Type
REMARK                         _______ _______ _______ _____ _____    ______ ____
ROOT
ATOM      1  C   UNL     1      47.004   4.680  14.926  0.00  0.00    +0.000 A 
ATOM      2  C   UNL     1      46.213   4.004  13.988  0.00  0.00    +0.000 A 
ATOM      3  C   UNL     1      46.014   4.536  12.715  0.00  0.00    +0.000 A 
ATOM      4  C   UNL     1      46.597   5.757  12.357  0.00  0.00    +0.000 A 
ATOM      5  C   UNL     1      47.417   6.418  13.283  0.00  0.00    +0.000 A 
ATOM      6  C   UNL     1      47.624   5.878  14.555  0.00  0.00    +0.000 A 
ENDROOT
BRANCH   1   7
ATOM      7  C   UNL     1      47.202   4.101  16.302  0.00  0.00    +0.000 C 
BRANCH   7  10
ATOM      8  O   UNL     1      48.545   5.238  18.486  0.00  0.00    +0.000 OA
ATOM      9  C   UNL     1      49.171   4.508  17.721  0.00  0.00    +0.000 C 
ATOM     10  N   UNL     1      48.602   3.953  16.606  0.00  0.00    +0.000 N 
ATOM     11  H   UNL     1      49.091   3.210  16.114  0.00  0.00    +0.000 HD
BRANCH   9  12
ATOM     12  C   UNL     1      50.596   4.231  17.934  0.00  0.00    +0.000 A 
ATOM     13  C   UNL     1      51.420   5.231  18.433  0.00  0.00    +0.000 A 
ATOM     14  S   UNL     1      53.044   4.749  18.623  0.00  0.00    +0.000 S 
ATOM     15  C   UNL     1      52.696   3.173  18.086  0.00  0.00    +0.000 A 
ATOM     16  N   UNL     1      53.664   2.218  18.046  0.00  0.00    +0.000 NA
ATOM     17  C   UNL     1      53.253   1.058  17.659  0.00  0.00    +0.000 A 
ATOM     18  N   UNL     1      51.965   0.769  17.290  0.00  0.00    +0.000 N 
ATOM     19  C   UNL     1      50.973   1.719  17.238  0.00  0.00    +0.000 A 
ATOM     20  O   UNL     1      49.869   1.460  16.769  0.00  0.00    +0.000 OA
ATOM     21  C   UNL     1      51.367   3.028  17.725  0.00  0.00    +0.000 A 
ATOM     22  H   UNL     1      51.718  -0.153  16.961  0.00  0.00    +0.000 HD
ENDBRANCH   9  12
ENDBRANCH   7  10
ENDBRANCH   1   7
BRANCH   4  23
ATOM     23  C   UNL     1      46.311   6.370  11.009  0.00  0.00    +0.000 C 
BRANCH  23  24
ATOM     24  N   UNL     1      45.306   5.634  10.236  0.00  0.00    +0.000 NA
ATOM     25  H   UNL     1      44.529   6.256  10.024  0.00  0.00    +0.000 HD
BRANCH  24  26
ATOM     26  C   UNL     1      45.820   5.069   8.976  0.00  0.00    +0.000 C 
BRANCH  26  27
ATOM     27  C   UNL     1      45.081   3.819   8.426  0.00  0.00    +0.000 C 
BRANCH  27  28
ATOM     28  C   UNL     1      45.989   2.937   7.590  0.00  0.00    +0.000 A 
ATOM     29  C   UNL     1      46.359   1.671   8.070  0.00  0.00    +0.000 A 
ATOM     30  C   UNL     1      47.090   0.790   7.272  0.00  0.00    +0.000 A 
ATOM     31  C   UNL     1      47.472   1.172   5.986  0.00  0.00    +0.000 A 
ATOM     32  C   UNL     1      47.138   2.435   5.506  0.00  0.00    +0.000 A 
ATOM     33  C   UNL     1      46.400   3.314   6.302  0.00  0.00    +0.000 A 
ENDBRANCH  27  28
BRANCH  27  34
ATOM     34  O   UNL     1      44.514   3.071   9.505  0.00  0.00    +0.000 OA
ATOM     35  H   UNL     1      45.246   2.652   9.986  0.00  0.00    +0.000 HD
ENDBRANCH  27  34
ENDBRANCH  26  27
ENDBRANCH  24  26
ENDBRANCH  23  24
ENDBRANCH   4  23
TORSDOF 9
ENDMDL
MODEL 5
REMARK VINA RESULT:    -7.731      1.577      2.334
REMARK INTER + INTRA:         -12.682
REMARK INTER:                 -11.163
REMARK INTRA:                  -1.519
REMARK UNBOUND:                -1.109
REMARK  Name = 
REMARK  9 active torsions:
REMARK  status: ('A' for Active; 'I' for Inactive)
REMARK    1  A    between atoms: C_2  and  C_22
REMARK    2  A    between atoms: N_3  and  C_4
REMARK    3  A    between atoms: C_4  and  C_5
REMARK    4  A    between atoms: C_8  and  C_9
REMARK    5  A    between atoms: C_9  and  N_10
REMARK    6  A    between atoms: N_10  and  C_11
REMARK    7  A    between atoms: C_11  and  C_12
REMARK    8  A    between atoms: C_12  and  O_13
REMARK    9  A    between atoms: C_12  and  C_14
REMARK                            x       y       z     vdW  Elec       q    Type
REMARK                         _______ _______ _______ _____ _____    ______ ____
ROOT
ATOM      1  C   UNL     1      47.805   7.807  12.888  0.00  0.00    +0.000 A 
ATOM      2  C   UNL     1      47.657   6.562  12.262  0.00  0.00    +0.000 A 
ATOM      3  C   UNL     1      46.428   6.182  11.727  0.00  0.00    +0.000 A 
ATOM      4  C   UNL     1      45.321   7.034  11.811  0.00  0.00    +0.000 A 
ATOM      5  C   UNL     1      45.476   8.294  12.408  0.00  0.00    +0.000 A 
ATOM      6  C   UNL     1      46.712   8.679  12.935  0.00  0.00    +0.000 A 
ENDROOT
BRANCH   1   7
ATOM      7  C   UNL     1      49.135   8.202  13.473  0.00  0.00    +0.000 C 
BRANCH   7  10
ATOM      8  O   UNL     1      48.354   9.015  16.041  0.00  0.00    +0.000 OA
ATOM      9  C   UNL     1      48.935   7.941  15.912  0.00  0.00    +0.000 C 
ATOM     10  N   UNL     1      49.393   7.495  14.701  0.00  0.00    +0.000 N 
ATOM     11  H   UNL     1      49.690   6.527  14.606  0.00  0.00    +0.000 HD
BRANCH   9  12
ATOM     12  C   UNL     1      49.225   7.091  17.073  0.00  0.00    +0.000 A 
ATOM     13  C   UNL     1      49.926   7.618  18.149  0.00  0.00    +0.000 A 
ATOM     14  S   UNL     1      50.179   6.505  19.414  0.00  0.00    +0.000 S 
ATOM     15  C   UNL     1      49.323   5.289  18.588  0.00  0.00    +0.000 A 
ATOM     16  N   UNL     1      49.128   4.066  19.151  0.00  0.00    +0.000 NA
ATOM     17  C   UNL     1      48.427   3.255  18.433  0.00  0.00    +0.000 A 
ATOM     18  N   UNL     1      47.918   3.548  17.194  0.00  0.00    +0.000 N 
ATOM     19  C   UNL     1      48.156   4.740  16.553  0.00  0.00    +0.000 A 
ATOM     20  O   UNL     1      47.808   4.917  15.391  0.00  0.00    +0.000 OA
ATOM     21  C   UNL     1      48.887   5.713  17.345  0.00  0.00    +0.000 A 
ATOM     22  H   UNL     1      47.408   2.853  16.669  0.00  0.00    +0.000 HD
ENDBRANCH   9  12
ENDBRANCH   7  10
ENDBRANCH   1   7
BRANCH   4  23
ATOM     23  C   UNL     1      43.973   6.585  11.306  0.00  0.00    +0.000 C 
BRANCH  23  24
ATOM     24  N   UNL     1      43.737   5.149  11.478  0.00  0.00    +0.000 NA
ATOM     25  H   UNL     1      42.892   5.015  12.029  0.00  0.00    +0.000 HD
BRANCH  24  26
ATOM     26  C   UNL     1      43.600   4.410  10.211  0.00  0.00    +0.000 C 
BRANCH  26  27
ATOM     27  C   UNL     1      44.270   3.011  10.148  0.00  0.00    +0.000 C 
BRANCH  27  28
ATOM     28  C   UNL     1      45.225   2.883   8.976  0.00  0.00    +0.000 A 
ATOM     29  C   UNL     1      45.640   4.035   8.291  0.00  0.00    +0.000 A 
ATOM     30  C   UNL     1      46.611   3.961   7.291  0.00  0.00    +0.000 A 
ATOM     31  C   UNL     1      47.168   2.728   6.955  0.00  0.00    +0.000 A 
ATOM     32  C   UNL     1      46.745   1.572   7.604  0.00  0.00    +0.000 A 
ATOM     33  C   UNL     1      45.779   1.647   8.610  0.00  0.00    +0.000 A 
ENDBRANCH  27  28
BRANCH  27  34
ATOM     34  O   UNL     1      44.949   2.739  11.377  0.00  0.00    +0.000 OA
ATOM     35  H   UNL     1      45.615   3.434  11.503  0.00  0.00    +0.000 HD
ENDBRANCH  27  34
ENDBRANCH  26  27
ENDBRANCH  24  26
ENDBRANCH  23  24
ENDBRANCH   4  23
TORSDOF 9
ENDMDL
MODEL 6
REMARK VINA RESULT:    -7.368      3.721      9.435
REMARK INTER + INTRA:         -12.138
REMARK INTER:                  -9.112
REMARK INTRA:                  -3.027
REMARK UNBOUND:                -1.109
REMARK  Name = 
REMARK  9 active torsions:
REMARK  status: ('A' for Active; 'I' for Inactive)
REMARK    1  A    between atoms: C_2  and  C_22
REMARK    2  A    between atoms: N_3  and  C_4
REMARK    3  A    between atoms: C_4  and  C_5
REMARK    4  A    between atoms: C_8  and  C_9
REMARK    5  A    between atoms: C_9  and  N_10
REMARK    6  A    between atoms: N_10  and  C_11
REMARK    7  A    between atoms: C_11  and  C_12
REMARK    8  A    between atoms: C_12  and  O_13
REMARK    9  A    between atoms: C_12  and  C_14
REMARK                            x       y       z     vdW  Elec       q    Type
REMARK                         _______ _______ _______ _____ _____    ______ ____
ROOT
ATOM      1  C   UNL     1      49.443   6.874  15.885  0.00  0.00    +0.000 A 
ATOM      2  C   UNL     1      50.741   6.872  16.413  0.00  0.00    +0.000 A 
ATOM      3  C   UNL     1      51.088   5.988  17.433  0.00  0.00    +0.000 A 
ATOM      4  C   UNL     1      50.144   5.093  17.948  0.00  0.00    +0.000 A 
ATOM      5  C   UNL     1      48.854   5.070  17.397  0.00  0.00    +0.000 A 
ATOM      6  C   UNL     1      48.510   5.950  16.368  0.00  0.00    +0.000 A 
ENDROOT
BRANCH   1   7
ATOM      7  C   UNL     1      49.077   7.843  14.791  0.00  0.00    +0.000 C 
BRANCH   7  10
ATOM      8  O   UNL     1      48.811   6.107  12.604  0.00  0.00    +0.000 OA
ATOM      9  C   UNL     1      47.796   6.573  13.117  0.00  0.00    +0.000 C 
ATOM     10  N   UNL     1      47.842   7.464  14.155  0.00  0.00    +0.000 N 
ATOM     11  H   UNL     1      46.991   7.672  14.671  0.00  0.00    +0.000 HD
BRANCH   9  12
ATOM     12  C   UNL     1      46.463   6.237  12.601  0.00  0.00    +0.000 A 
ATOM     13  C   UNL     1      45.688   7.228  12.015  0.00  0.00    +0.000 A 
ATOM     14  S   UNL     1      44.171   6.676  11.468  0.00  0.00    +0.000 S 
ATOM     15  C   UNL     1      44.513   5.084  11.957  0.00  0.00    +0.000 A 
ATOM     16  N   UNL     1      43.624   4.078  11.735  0.00  0.00    +0.000 NA
ATOM     17  C   UNL     1      44.029   2.914  12.118  0.00  0.00    +0.000 A 
ATOM     18  N   UNL     1      45.235   2.666  12.720  0.00  0.00    +0.000 N 
ATOM     19  C   UNL     1      46.130   3.661  13.035  0.00  0.00    +0.000 A 
ATOM     20  O   UNL     1      47.134   3.425  13.699  0.00  0.00    +0.000 OA
ATOM     21  C   UNL     1      45.751   4.981  12.568  0.00  0.00    +0.000 A 
ATOM     22  H   UNL     1      45.475   1.736  13.029  0.00  0.00    +0.000 HD
ENDBRANCH   9  12
ENDBRANCH   7  10
ENDBRANCH   1   7
BRANCH   4  23
ATOM     23  C   UNL     1      50.499   4.196  19.109  0.00  0.00    +0.000 C 
BRANCH  23  24
ATOM     24  N   UNL     1      49.439   4.103  20.116  0.00  0.00    +0.000 NA
ATOM     25  H   UNL     1      49.552   3.235  20.636  0.00  0.00    +0.000 HD
BRANCH  24  26
ATOM     26  C   UNL     1      49.419   5.228  21.067  0.00  0.00    +0.000 C 
BRANCH  26  27
ATOM     27  C   UNL     1      48.183   6.164  21.007  0.00  0.00    +0.000 C 
BRANCH  27  28
ATOM     28  C   UNL     1      48.440   7.403  20.171  0.00  0.00    +0.000 A 
ATOM     29  C   UNL     1      49.710   8.001  20.189  0.00  0.00    +0.000 A 
ATOM     30  C   UNL     1      50.011   9.065  19.338  0.00  0.00    +0.000 A 
ATOM     31  C   UNL     1      49.039   9.555  18.468  0.00  0.00    +0.000 A 
ATOM     32  C   UNL     1      47.765   8.993  18.459  0.00  0.00    +0.000 A 
ATOM     33  C   UNL     1      47.465   7.923  19.305  0.00  0.00    +0.000 A 
ENDBRANCH  27  28
BRANCH  27  34
ATOM     34  O   UNL     1      47.052   5.448  20.502  0.00  0.00    +0.000 OA
ATOM     35  H   UNL     1      47.342   4.543  20.307  0.00  0.00    +0.000 HD
ENDBRANCH  27  34
ENDBRANCH  26  27
ENDBRANCH  24  26
ENDBRANCH  23  24
ENDBRANCH   4  23
TORSDOF 9
ENDMDL
MODEL 7
REMARK VINA RESULT:    -7.303      3.927      8.878
REMARK INTER + INTRA:         -12.041
REMARK INTER:                  -8.922
REMARK INTRA:                  -3.119
REMARK UNBOUND:                -1.109
REMARK  Name = 
REMARK  9 active torsions:
REMARK  status: ('A' for Active; 'I' for Inactive)
REMARK    1  A    between atoms: C_2  and  C_22
REMARK    2  A    between atoms: N_3  and  C_4
REMARK    3  A    between atoms: C_4  and  C_5
REMARK    4  A    between atoms: C_8  and  C_9
REMARK    5  A    between atoms: C_9  and  N_10
REMARK    6  A    between atoms: N_10  and  C_11
REMARK    7  A    between atoms: C_11  and  C_12
REMARK    8  A    between atoms: C_12  and  O_13
REMARK    9  A    between atoms: C_12  and  C_14
REMARK                            x       y       z     vdW  Elec       q    Type
REMARK                         _______ _______ _______ _____ _____    ______ ____
ROOT
ATOM      1  C   UNL     1      49.405   7.302  15.394  0.00  0.00    +0.000 A 
ATOM      2  C   UNL     1      50.446   6.762  16.161  0.00  0.00    +0.000 A 
ATOM      3  C   UNL     1      50.577   7.092  17.509  0.00  0.00    +0.000 A 
ATOM      4  C   UNL     1      49.674   7.972  18.115  0.00  0.00    +0.000 A 
ATOM      5  C   UNL     1      48.611   8.487  17.358  0.00  0.00    +0.000 A 
ATOM      6  C   UNL     1      48.475   8.147  16.009  0.00  0.00    +0.000 A 
ENDROOT
BRANCH   1   7
ATOM      7  C   UNL     1      49.281   6.947  13.936  0.00  0.00    +0.000 C 
BRANCH   7  10
ATOM      8  O   UNL     1      48.046   7.349  11.450  0.00  0.00    +0.000 OA
ATOM      9  C   UNL     1      47.411   6.794  12.343  0.00  0.00    +0.000 C 
ATOM     10  N   UNL     1      47.924   6.604  13.599  0.00  0.00    +0.000 N 
ATOM     11  H   UNL     1      47.448   5.976  14.242  0.00  0.00    +0.000 HD
BRANCH   9  12
ATOM     12  C   UNL     1      46.030   6.348  12.128  0.00  0.00    +0.000 A 
ATOM     13  C   UNL     1      45.094   7.240  11.622  0.00  0.00    +0.000 A 
ATOM     14  S   UNL     1      43.540   6.567  11.430  0.00  0.00    +0.000 S 
ATOM     15  C   UNL     1      44.073   5.046  11.975  0.00  0.00    +0.000 A 
ATOM     16  N   UNL     1      43.225   3.982  12.015  0.00  0.00    +0.000 NA
ATOM     17  C   UNL     1      43.770   2.881  12.409  0.00  0.00    +0.000 A 
ATOM     18  N   UNL     1      45.083   2.749  12.783  0.00  0.00    +0.000 N 
ATOM     19  C   UNL     1      45.954   3.811  12.834  0.00  0.00    +0.000 A 
ATOM     20  O   UNL     1      47.079   3.688  13.307  0.00  0.00    +0.000 OA
ATOM     21  C   UNL     1      45.408   5.062  12.340  0.00  0.00    +0.000 A 
ATOM     22  H   UNL     1      45.437   1.865  13.117  0.00  0.00    +0.000 HD
ENDBRANCH   9  12
ENDBRANCH   7  10
ENDBRANCH   1   7
BRANCH   4  23
ATOM     23  C   UNL     1      49.867   8.392  19.551  0.00  0.00    +0.000 C 
BRANCH  23  24
ATOM     24  N   UNL     1      48.824   7.891  20.449  0.00  0.00    +0.000 NA
ATOM     25  H   UNL     1      47.929   7.918  19.966  0.00  0.00    +0.000 HD
BRANCH  24  26
ATOM     26  C   UNL     1      49.061   6.520  20.933  0.00  0.00    +0.000 C 
BRANCH  26  27
ATOM     27  C   UNL     1      47.974   5.466  20.589  0.00  0.00    +0.000 C 
BRANCH  27  28
ATOM     28  C   UNL     1      48.142   4.903  19.190  0.00  0.00    +0.000 A 
ATOM     29  C   UNL     1      49.215   4.043  18.912  0.00  0.00    +0.000 A 
ATOM     30  C   UNL     1      49.324   3.414  17.671  0.00  0.00    +0.000 A 
ATOM     31  C   UNL     1      48.367   3.651  16.686  0.00  0.00    +0.000 A 
ATOM     32  C   UNL     1      47.313   4.525  16.935  0.00  0.00    +0.000 A 
ATOM     33  C   UNL     1      47.199   5.149  18.180  0.00  0.00    +0.000 A 
ENDBRANCH  27  28
BRANCH  27  34
ATOM     34  O   UNL     1      47.993   4.412  21.556  0.00  0.00    +0.000 OA
ATOM     35  H   UNL     1      48.774   4.543  22.116  0.00  0.00    +0.000 HD
ENDBRANCH  27  34
ENDBRANCH  26  27
ENDBRANCH  24  26
ENDBRANCH  23  24
ENDBRANCH   4  23
TORSDOF 9
ENDMDL
MODEL 8
REMARK VINA RESULT:    -7.227      2.961      9.026
REMARK INTER + INTRA:         -11.927
REMARK INTER:                  -9.812
REMARK INTRA:                  -2.115
REMARK UNBOUND:                -1.109
REMARK  Name = 
REMARK  9 active torsions:
REMARK  status: ('A' for Active; 'I' for Inactive)
REMARK    1  A    between atoms: C_2  and  C_22
REMARK    2  A    between atoms: N_3  and  C_4
REMARK    3  A    between atoms: C_4  and  C_5
REMARK    4  A    between atoms: C_8  and  C_9
REMARK    5  A    between atoms: C_9  and  N_10
REMARK    6  A    between atoms: N_10  and  C_11
REMARK    7  A    between atoms: C_11  and  C_12
REMARK    8  A    between atoms: C_12  and  O_13
REMARK    9  A    between atoms: C_12  and  C_14
REMARK                            x       y       z     vdW  Elec       q    Type
REMARK                         _______ _______ _______ _____ _____    ______ ____
ROOT
ATOM      1  C   UNL     1      48.136   7.865  14.752  0.00  0.00    +0.000 A 
ATOM      2  C   UNL     1      48.130   8.823  15.774  0.00  0.00    +0.000 A 
ATOM      3  C   UNL     1      48.926   8.655  16.906  0.00  0.00    +0.000 A 
ATOM      4  C   UNL     1      49.738   7.523  17.042  0.00  0.00    +0.000 A 
ATOM      5  C   UNL     1      49.771   6.580  16.004  0.00  0.00    +0.000 A 
ATOM      6  C   UNL     1      48.981   6.755  14.865  0.00  0.00    +0.000 A 
ENDROOT
BRANCH   1   7
ATOM      7  C   UNL     1      47.264   8.052  13.539  0.00  0.00    +0.000 C 
BRANCH   7  10
ATOM      8  O   UNL     1      45.262   7.776  11.594  0.00  0.00    +0.000 OA
ATOM      9  C   UNL     1      45.625   6.780  12.215  0.00  0.00    +0.000 C 
ATOM     10  N   UNL     1      46.561   6.838  13.213  0.00  0.00    +0.000 N 
ATOM     11  H   UNL     1      46.970   5.976  13.563  0.00  0.00    +0.000 HD
BRANCH   9  12
ATOM     12  C   UNL     1      45.027   5.465  11.956  0.00  0.00    +0.000 A 
ATOM     13  C   UNL     1      44.340   4.814  12.971  0.00  0.00    +0.000 A 
ATOM     14  S   UNL     1      43.706   3.301  12.508  0.00  0.00    +0.000 S 
ATOM     15  C   UNL     1      44.291   3.481  10.921  0.00  0.00    +0.000 A 
ATOM     16  N   UNL     1      44.049   2.533   9.976  0.00  0.00    +0.000 NA
ATOM     17  C   UNL     1      44.513   2.816   8.806  0.00  0.00    +0.000 A 
ATOM     18  N   UNL     1      45.215   3.953   8.498  0.00  0.00    +0.000 N 
ATOM     19  C   UNL     1      45.551   4.899   9.437  0.00  0.00    +0.000 A 
ATOM     20  O   UNL     1      46.298   5.831   9.160  0.00  0.00    +0.000 OA
ATOM     21  C   UNL     1      44.997   4.660  10.757  0.00  0.00    +0.000 A 
ATOM     22  H   UNL     1      45.583   4.096   7.569  0.00  0.00    +0.000 HD
ENDBRANCH   9  12
ENDBRANCH   7  10
ENDBRANCH   1   7
BRANCH   4  23
ATOM     23  C   UNL     1      50.532   7.304  18.305  0.00  0.00    +0.000 C 
BRANCH  23  24
ATOM     24  N   UNL     1      49.714   7.337  19.520  0.00  0.00    +0.000 NA
ATOM     25  H   UNL     1      48.784   7.676  19.284  0.00  0.00    +0.000 HD
BRANCH  24  26
ATOM     26  C   UNL     1      49.587   6.030  20.189  0.00  0.00    +0.000 C 
BRANCH  26  27
ATOM     27  C   UNL     1      48.255   5.264  19.968  0.00  0.00    +0.000 C 
BRANCH  27  28
ATOM     28  C   UNL     1      48.234   4.519  18.646  0.00  0.00    +0.000 A 
ATOM     29  C   UNL     1      49.280   3.639  18.329  0.00  0.00    +0.000 A 
ATOM     30  C   UNL     1      49.226   2.849  17.180  0.00  0.00    +0.000 A 
ATOM     31  C   UNL     1      48.129   2.943  16.324  0.00  0.00    +0.000 A 
ATOM     32  C   UNL     1      47.098   3.833  16.608  0.00  0.00    +0.000 A 
ATOM     33  C   UNL     1      47.148   4.619  17.762  0.00  0.00    +0.000 A 
ENDBRANCH  27  28
BRANCH  27  34
ATOM     34  O   UNL     1      48.025   4.361  21.052  0.00  0.00    +0.000 OA
ATOM     35  H   UNL     1      48.696   4.540  21.730  0.00  0.00    +0.000 HD
ENDBRANCH  27  34
ENDBRANCH  26  27
ENDBRANCH  24  26
ENDBRANCH  23  24
ENDBRANCH   4  23
TORSDOF 9
ENDMDL
MODEL 9
REMARK VINA RESULT:    -7.063      3.923      9.224
REMARK INTER + INTRA:         -11.682
REMARK INTER:                  -8.739
REMARK INTRA:                  -2.942
REMARK UNBOUND:                -1.109
REMARK  Name = 
REMARK  9 active torsions:
REMARK  status: ('A' for Active; 'I' for Inactive)
REMARK    1  A    between atoms: C_2  and  C_22
REMARK    2  A    between atoms: N_3  and  C_4
REMARK    3  A    between atoms: C_4  and  C_5
REMARK    4  A    between atoms: C_8  and  C_9
REMARK    5  A    between atoms: C_9  and  N_10
REMARK    6  A    between atoms: N_10  and  C_11
REMARK    7  A    between atoms: C_11  and  C_12
REMARK    8  A    between atoms: C_12  and  O_13
REMARK    9  A    between atoms: C_12  and  C_14
REMARK                            x       y       z     vdW  Elec       q    Type
REMARK                         _______ _______ _______ _____ _____    ______ ____
ROOT
ATOM      1  C   UNL     1      48.780   8.583  15.878  0.00  0.00    +0.000 A 
ATOM      2  C   UNL     1      49.889   7.765  16.125  0.00  0.00    +0.000 A 
ATOM      3  C   UNL     1      50.323   7.536  17.429  0.00  0.00    +0.000 A 
ATOM      4  C   UNL     1      49.660   8.124  18.512  0.00  0.00    +0.000 A 
ATOM      5  C   UNL     1      48.528   8.917  18.269  0.00  0.00    +0.000 A 
ATOM      6  C   UNL     1      48.088   9.137  16.961  0.00  0.00    +0.000 A 
ENDROOT
BRANCH   1   7
ATOM      7  C   UNL     1      48.327   8.832  14.463  0.00  0.00    +0.000 C 
BRANCH   7  10
ATOM      8  O   UNL     1      48.914   6.551  12.940  0.00  0.00    +0.000 OA
ATOM      9  C   UNL     1      47.762   6.722  13.330  0.00  0.00    +0.000 C 
ATOM     10  N   UNL     1      47.383   7.832  14.037  0.00  0.00    +0.000 N 
ATOM     11  H   UNL     1      46.480   7.842  14.502  0.00  0.00    +0.000 HD
BRANCH   9  12
ATOM     12  C   UNL     1      46.702   5.759  13.009  0.00  0.00    +0.000 A 
ATOM     13  C   UNL     1      46.849   4.430  13.384  0.00  0.00    +0.000 A 
ATOM     14  S   UNL     1      45.532   3.444  12.939  0.00  0.00    +0.000 S 
ATOM     15  C   UNL     1      44.699   4.766  12.268  0.00  0.00    +0.000 A 
ATOM     16  N   UNL     1      43.455   4.612  11.739  0.00  0.00    +0.000 NA
ATOM     17  C   UNL     1      42.922   5.704  11.303  0.00  0.00    +0.000 A 
ATOM     18  N   UNL     1      43.527   6.934  11.331  0.00  0.00    +0.000 N 
ATOM     19  C   UNL     1      44.812   7.123  11.782  0.00  0.00    +0.000 A 
ATOM     20  O   UNL     1      45.375   8.206  11.663  0.00  0.00    +0.000 OA
ATOM     21  C   UNL     1      45.433   5.937  12.343  0.00  0.00    +0.000 A 
ATOM     22  H   UNL     1      43.069   7.743  10.939  0.00  0.00    +0.000 HD
ENDBRANCH   9  12
ENDBRANCH   7  10
ENDBRANCH   1   7
BRANCH   4  23
ATOM     23  C   UNL     1      50.183   7.943  19.916  0.00  0.00    +0.000 C 
BRANCH  23  24
ATOM     24  N   UNL     1      49.124   7.887  20.927  0.00  0.00    +0.000 NA
ATOM     25  H   UNL     1      48.249   8.195  20.509  0.00  0.00    +0.000 HD
BRANCH  24  26
ATOM     26  C   UNL     1      48.927   6.549  21.511  0.00  0.00    +0.000 C 
BRANCH  26  27
ATOM     27  C   UNL     1      47.743   5.716  20.951  0.00  0.00    +0.000 C 
BRANCH  27  28
ATOM     28  C   UNL     1      48.056   5.111  19.595  0.00  0.00    +0.000 A 
ATOM     29  C   UNL     1      47.211   5.374  18.506  0.00  0.00    +0.000 A 
ATOM     30  C   UNL     1      47.541   4.934  17.223  0.00  0.00    +0.000 A 
ATOM     31  C   UNL     1      48.716   4.212  17.018  0.00  0.00    +0.000 A 
ATOM     32  C   UNL     1      49.550   3.918  18.092  0.00  0.00    +0.000 A 
ATOM     33  C   UNL     1      49.224   4.363  19.375  0.00  0.00    +0.000 A 
ENDBRANCH  27  28
BRANCH  27  34
ATOM     34  O   UNL     1      47.381   4.692  21.882  0.00  0.00    +0.000 OA
ATOM     35  H   UNL     1      46.435   4.512  21.766  0.00  0.00    +0.000 HD
ENDBRANCH  27  34
ENDBRANCH  26  27
ENDBRANCH  24  26
ENDBRANCH  23  24
ENDBRANCH   4  23
TORSDOF 9
ENDMDL
