MODEL 1
REMARK VINA RESULT:    -8.842      0.000      0.000
REMARK INTER + INTRA:         -12.241
REMARK INTER:                 -11.943
REMARK INTRA:                  -0.298
REMARK UNBOUND:                -0.298
REMARK  Name = 
REMARK  6 active torsions:
REMARK  status: ('A' for Active; 'I' for Inactive)
REMARK    1  A    between atoms: C_2  and  C_26
REMARK    2  A    between atoms: N_3  and  C_4
REMARK    3  A    between atoms: C_4  and  C_5
REMARK    4  A    between atoms: C_8  and  C_9
REMARK    5  A    between atoms: C_9  and  N_10
REMARK    6  A    between atoms: C_11  and  C_13
REMARK                            x       y       z     vdW  Elec       q    Type
REMARK                         _______ _______ _______ _____ _____    ______ ____
ROOT
ATOM      1  C   UNL     1      44.925   4.935  11.104  0.00  0.00    +0.000 A 
ATOM      2  C   UNL     1      45.640   4.179  12.038  0.00  0.00    +0.000 A 
ATOM      3  C   UNL     1      46.574   4.785  12.887  0.00  0.00    +0.000 A 
ATOM      4  C   UNL     1      46.798   6.170  12.842  0.00  0.00    +0.000 A 
ATOM      5  C   UNL     1      46.075   6.923  11.905  0.00  0.00    +0.000 A 
ATOM      6  C   UNL     1      45.145   6.316  11.052  0.00  0.00    +0.000 A 
ENDROOT
BRANCH   1   7
ATOM      7  C   UNL     1      43.941   4.262  10.188  0.00  0.00    +0.000 C 
BRANCH   7  10
ATOM      8  O   UNL     1      45.784   5.073   8.255  0.00  0.00    +0.000 OA
ATOM      9  C   UNL     1      45.503   3.883   8.348  0.00  0.00    +0.000 C 
ATOM     10  N   UNL     1      44.605   3.381   9.262  0.00  0.00    +0.000 N 
ATOM     11  H   UNL     1      44.610   2.391   9.467  0.00  0.00    +0.000 HD
BRANCH   9  12
ATOM     12  C   UNL     1      46.182   2.875   7.496  0.00  0.00    +0.000 A 
ATOM     13  C   UNL     1      46.430   1.609   8.038  0.00  0.00    +0.000 A 
ATOM     14  C   UNL     1      47.010   0.616   7.248  0.00  0.00    +0.000 A 
ATOM     15  C   UNL     1      47.359   0.893   5.926  0.00  0.00    +0.000 A 
ATOM     16  C   UNL     1      47.145   2.165   5.394  0.00  0.00    +0.000 A 
ATOM     17  C   UNL     1      46.559   3.160   6.178  0.00  0.00    +0.000 A 
ENDBRANCH   9  12
ENDBRANCH   7  10
ENDBRANCH   1   7
BRANCH   4  18
ATOM     18  C   UNL     1      47.749   6.877  13.783  0.00  0.00    +0.000 C 
BRANCH  18  19
ATOM     19  N   UNL     1      47.753   6.342  15.129  0.00  0.00    +0.000 N 
ATOM     20  C   UNL     1      48.934   6.259  15.847  0.00  0.00    +0.000 C 
ATOM     21  O   UNL     1      50.023   6.607  15.438  0.00  0.00    +0.000 OA
ATOM     22  H   UNL     1      46.893   6.392  15.652  0.00  0.00    +0.000 HD
BRANCH  20  23
ATOM     23  C   UNL     1      48.777   5.737  17.229  0.00  0.00    +0.000 A 
ATOM     24  C   UNL     1      49.032   4.400  17.518  0.00  0.00    +0.000 A 
ATOM     25  N   UNL     1      48.956   3.870  18.770  0.00  0.00    +0.000 NA
ATOM     26  C   UNL     1      48.615   4.708  19.772  0.00  0.00    +0.000 A 
ATOM     27  N   UNL     1      48.605   4.226  21.074  0.00  0.00    +0.000 N 
ATOM     28  C   UNL     1      48.506   5.120  22.091  0.00  0.00    +0.000 A 
ATOM     29  N   UNL     1      48.215   6.372  21.994  0.00  0.00    +0.000 NA
ATOM     30  C   UNL     1      47.951   6.866  20.733  0.00  0.00    +0.000 A 
ATOM     31  O   UNL     1      47.442   7.962  20.535  0.00  0.00    +0.000 OA
ATOM     32  C   UNL     1      48.317   6.049  19.553  0.00  0.00    +0.000 A 
ATOM     33  C   UNL     1      48.391   6.579  18.268  0.00  0.00    +0.000 A 
ATOM     34  H   UNL     1      48.899   3.269  21.194  0.00  0.00    +0.000 HD
ENDBRANCH  20  23
ENDBRANCH  18  19
ENDBRANCH   4  18
TORSDOF 6
ENDMDL
MODEL 2
REMARK VINA RESULT:    -8.822      2.510      3.421
REMARK INTER + INTRA:         -12.215
REMARK INTER:                 -11.549
REMARK INTRA:                  -0.666
REMARK UNBOUND:                -0.298
REMARK  Name = 
REMARK  6 active torsions:
REMARK  status: ('A' for Active; 'I' for Inactive)
REMARK    1  A    between atoms: C_2  and  C_26
REMARK    2  A    between atoms: N_3  and  C_4
REMARK    3  A    between atoms: C_4  and  C_5
REMARK    4  A    between atoms: C_8  and  C_9
REMARK    5  A    between atoms: C_9  and  N_10
REMARK    6  A    between atoms: C_11  and  C_13
REMARK                            x       y       z     vdW  Elec       q    Type
REMARK                         _______ _______ _______ _____ _____    ______ ____
ROOT
ATOM      1  C   UNL     1      44.649   4.993  11.375  0.00  0.00    +0.000 A 
ATOM      2  C   UNL     1      45.344   4.002  12.074  0.00  0.00    +0.000 A 
ATOM      3  C   UNL     1      46.183   4.334  13.145  0.00  0.00    +0.000 A 
ATOM      4  C   UNL     1      46.327   5.666  13.564  0.00  0.00    +0.000 A 
ATOM      5  C   UNL     1      45.623   6.655  12.860  0.00  0.00    +0.000 A 
ATOM      6  C   UNL     1      44.789   6.324  11.786  0.00  0.00    +0.000 A 
ENDROOT
BRANCH   1   7
ATOM      7  C   UNL     1      43.769   4.619  10.216  0.00  0.00    +0.000 C 
BRANCH   7  10
ATOM      8  O   UNL     1      45.806   5.266   8.419  0.00  0.00    +0.000 OA
ATOM      9  C   UNL     1      45.425   4.103   8.495  0.00  0.00    +0.000 C 
ATOM     10  N   UNL     1      44.426   3.681   9.341  0.00  0.00    +0.000 N 
ATOM     11  H   UNL     1      44.337   2.695   9.548  0.00  0.00    +0.000 HD
BRANCH   9  12
ATOM     12  C   UNL     1      46.081   3.037   7.696  0.00  0.00    +0.000 A 
ATOM     13  C   UNL     1      46.565   3.364   6.425  0.00  0.00    +0.000 A 
ATOM     14  C   UNL     1      47.242   2.405   5.671  0.00  0.00    +0.000 A 
ATOM     15  C   UNL     1      47.419   1.118   6.177  0.00  0.00    +0.000 A 
ATOM     16  C   UNL     1      46.907   0.779   7.430  0.00  0.00    +0.000 A 
ATOM     17  C   UNL     1      46.233   1.736   8.192  0.00  0.00    +0.000 A 
ENDBRANCH   9  12
ENDBRANCH   7  10
ENDBRANCH   1   7
BRANCH   4  18
ATOM     18  C   UNL     1      47.170   6.064  14.756  0.00  0.00    +0.000 C 
BRANCH  18  19
ATOM     19  N   UNL     1      48.070   5.027  15.214  0.00  0.00    +0.000 N 
ATOM     20  C   UNL     1      48.451   4.965  16.544  0.00  0.00    +0.000 C 
ATOM     21  O   UNL     1      48.086   5.736  17.408  0.00  0.00    +0.000 OA
ATOM     22  H   UNL     1      48.105   4.173  14.679  0.00  0.00    +0.000 HD
BRANCH  20  23
ATOM     23  C   UNL     1      49.335   3.819  16.877  0.00  0.00    +0.000 A 
ATOM     24  C   UNL     1      48.971   2.518  16.543  0.00  0.00    +0.000 A 
ATOM     25  N   UNL     1      49.757   1.430  16.774  0.00  0.00    +0.000 NA
ATOM     26  C   UNL     1      50.954   1.651  17.358  0.00  0.00    +0.000 A 
ATOM     27  N   UNL     1      51.819   0.580  17.536  0.00  0.00    +0.000 N 
ATOM     28  C   UNL     1      53.103   0.842  17.890  0.00  0.00    +0.000 A 
ATOM     29  N   UNL     1      53.582   1.972  18.283  0.00  0.00    +0.000 NA
ATOM     30  C   UNL     1      52.704   3.032  18.380  0.00  0.00    +0.000 A 
ATOM     31  O   UNL     1      52.979   4.079  18.955  0.00  0.00    +0.000 OA
ATOM     32  C   UNL     1      51.372   2.920  17.745  0.00  0.00    +0.000 A 
ATOM     33  C   UNL     1      50.557   4.024  17.511  0.00  0.00    +0.000 A 
ATOM     34  H   UNL     1      51.506  -0.308  17.174  0.00  0.00    +0.000 HD
ENDBRANCH  20  23
ENDBRANCH  18  19
ENDBRANCH   4  18
TORSDOF 6
ENDMDL
MODEL 3
REMARK VINA RESULT:    -8.552      1.428      1.960
REMARK INTER + INTRA:         -11.850
REMARK INTER:                 -11.027
REMARK INTRA:                  -0.823
REMARK UNBOUND:                -0.298
REMARK  Name = 
REMARK  6 active torsions:
REMARK  status: ('A' for Active; 'I' for Inactive)
REMARK    1  A    between atoms: C_2  and  C_26
REMARK    2  A    between atoms: N_3  and  C_4
REMARK    3  A    between atoms: C_4  and  C_5
REMARK    4  A    between atoms: C_8  and  C_9
REMARK    5  A    between atoms: C_9  and  N_10
REMARK    6  A    between atoms: C_11  and  C_13
REMARK                            x       y       z     vdW  Elec       q    Type
REMARK                         _______ _______ _______ _____ _____    ______ ____
ROOT
ATOM      1  C   UNL     1      45.218   4.626  11.824  0.00  0.00    +0.000 A 
ATOM      2  C   UNL     1      45.996   4.299  12.939  0.00  0.00    +0.000 A 
ATOM      3  C   UNL     1      46.802   5.262  13.558  0.00  0.00    +0.000 A 
ATOM      4  C   UNL     1      46.829   6.587  13.094  0.00  0.00    +0.000 A 
ATOM      5  C   UNL     1      46.043   6.909  11.978  0.00  0.00    +0.000 A 
ATOM      6  C   UNL     1      45.241   5.944  11.356  0.00  0.00    +0.000 A 
ENDROOT
BRANCH   1   7
ATOM      7  C   UNL     1      44.375   3.573  11.162  0.00  0.00    +0.000 C 
BRANCH   7  10
ATOM      8  O   UNL     1      44.272   4.225   8.449  0.00  0.00    +0.000 OA
ATOM      9  C   UNL     1      44.988   3.298   8.813  0.00  0.00    +0.000 C 
ATOM     10  N   UNL     1      45.106   2.894  10.122  0.00  0.00    +0.000 N 
ATOM     11  H   UNL     1      45.890   2.315  10.393  0.00  0.00    +0.000 HD
BRANCH   9  12
ATOM     12  C   UNL     1      45.845   2.576   7.840  0.00  0.00    +0.000 A 
ATOM     13  C   UNL     1      46.229   3.242   6.671  0.00  0.00    +0.000 A 
ATOM     14  C   UNL     1      47.083   2.618   5.762  0.00  0.00    +0.000 A 
ATOM     15  C   UNL     1      47.540   1.323   6.012  0.00  0.00    +0.000 A 
ATOM     16  C   UNL     1      47.131   0.643   7.159  0.00  0.00    +0.000 A 
ATOM     17  C   UNL     1      46.280   1.265   8.074  0.00  0.00    +0.000 A 
ENDBRANCH   9  12
ENDBRANCH   7  10
ENDBRANCH   1   7
BRANCH   4  18
ATOM     18  C   UNL     1      47.633   7.676  13.771  0.00  0.00    +0.000 C 
BRANCH  18  19
ATOM     19  N   UNL     1      47.916   7.418  15.168  0.00  0.00    +0.000 N 
ATOM     20  C   UNL     1      49.187   7.037  15.568  0.00  0.00    +0.000 C 
ATOM     21  O   UNL     1      50.135   6.890  14.824  0.00  0.00    +0.000 OA
ATOM     22  H   UNL     1      47.328   7.866  15.852  0.00  0.00    +0.000 HD
BRANCH  20  23
ATOM     23  C   UNL     1      49.341   6.856  17.034  0.00  0.00    +0.000 A 
ATOM     24  C   UNL     1      49.829   7.888  17.830  0.00  0.00    +0.000 A 
ATOM     25  N   UNL     1      49.948   7.805  19.185  0.00  0.00    +0.000 NA
ATOM     26  C   UNL     1      49.560   6.650  19.765  0.00  0.00    +0.000 A 
ATOM     27  N   UNL     1      49.588   6.554  21.150  0.00  0.00    +0.000 N 
ATOM     28  C   UNL     1      48.972   5.496  21.735  0.00  0.00    +0.000 A 
ATOM     29  N   UNL     1      48.524   4.440  21.147  0.00  0.00    +0.000 NA
ATOM     30  C   UNL     1      48.702   4.352  19.781  0.00  0.00    +0.000 A 
ATOM     31  O   UNL     1      48.535   3.316  19.150  0.00  0.00    +0.000 OA
ATOM     32  C   UNL     1      49.091   5.566  19.030  0.00  0.00    +0.000 A 
ATOM     33  C   UNL     1      48.981   5.659  17.645  0.00  0.00    +0.000 A 
ATOM     34  H   UNL     1      49.865   7.388  21.646  0.00  0.00    +0.000 HD
ENDBRANCH  20  23
ENDBRANCH  18  19
ENDBRANCH   4  18
TORSDOF 6
ENDMDL
MODEL 4
REMARK VINA RESULT:    -8.471      5.271      7.561
REMARK INTER + INTRA:         -11.741
REMARK INTER:                 -10.833
REMARK INTRA:                  -0.908
REMARK UNBOUND:                -0.298
REMARK  Name = 
REMARK  6 active torsions:
REMARK  status: ('A' for Active; 'I' for Inactive)
REMARK    1  A    between atoms: C_2  and  C_26
REMARK    2  A    between atoms: N_3  and  C_4
REMARK    3  A    between atoms: C_4  and  C_5
REMARK    4  A    between atoms: C_8  and  C_9
REMARK    5  A    between atoms: C_9  and  N_10
REMARK    6  A    between atoms: C_11  and  C_13
REMARK                            x       y       z     vdW  Elec       q    Type
REMARK                         _______ _______ _______ _____ _____    ______ ____
ROOT
ATOM      1  C   UNL     1      46.945   2.539   6.995  0.00  0.00    +0.000 A 
ATOM      2  C   UNL     1      46.336   1.596   7.828  0.00  0.00    +0.000 A 
ATOM      3  C   UNL     1      45.427   1.994   8.816  0.00  0.00    +0.000 A 
ATOM      4  C   UNL     1      45.081   3.345   8.977  0.00  0.00    +0.000 A 
ATOM      5  C   UNL     1      45.693   4.285   8.134  0.00  0.00    +0.000 A 
ATOM      6  C   UNL     1      46.606   3.887   7.150  0.00  0.00    +0.000 A 
ENDROOT
BRANCH   1   7
ATOM      7  C   UNL     1      47.933   2.093   5.953  0.00  0.00    +0.000 C 
BRANCH   7  10
ATOM      8  O   UNL     1      46.515   1.538   3.613  0.00  0.00    +0.000 OA
ATOM      9  C   UNL     1      46.923   0.607   4.299  0.00  0.00    +0.000 C 
ATOM     10  N   UNL     1      47.625   0.771   5.470  0.00  0.00    +0.000 N 
ATOM     11  H   UNL     1      48.152  -0.007   5.845  0.00  0.00    +0.000 HD
BRANCH   9  12
ATOM     12  C   UNL     1      46.730  -0.798   3.860  0.00  0.00    +0.000 A 
ATOM     13  C   UNL     1      46.632  -1.057   2.488  0.00  0.00    +0.000 A 
ATOM     14  C   UNL     1      46.512  -2.371   2.035  0.00  0.00    +0.000 A 
ATOM     15  C   UNL     1      46.472  -3.423   2.950  0.00  0.00    +0.000 A 
ATOM     16  C   UNL     1      46.535  -3.165   4.320  0.00  0.00    +0.000 A 
ATOM     17  C   UNL     1      46.660  -1.853   4.779  0.00  0.00    +0.000 A 
ENDBRANCH   9  12
ENDBRANCH   7  10
ENDBRANCH   1   7
BRANCH   4  18
ATOM     18  C   UNL     1      44.056   3.814   9.987  0.00  0.00    +0.000 C 
BRANCH  18  19
ATOM     19  N   UNL     1      44.202   5.201  10.375  0.00  0.00    +0.000 N 
ATOM     20  C   UNL     1      44.957   5.543  11.485  0.00  0.00    +0.000 C 
ATOM     21  O   UNL     1      45.538   4.754  12.201  0.00  0.00    +0.000 OA
ATOM     22  H   UNL     1      44.086   5.900   9.658  0.00  0.00    +0.000 HD
BRANCH  20  23
ATOM     23  C   UNL     1      45.059   7.004  11.731  0.00  0.00    +0.000 A 
ATOM     24  C   UNL     1      46.018   7.514  12.602  0.00  0.00    +0.000 A 
ATOM     25  N   UNL     1      46.197   8.844  12.835  0.00  0.00    +0.000 NA
ATOM     26  C   UNL     1      45.391   9.697  12.169  0.00  0.00    +0.000 A 
ATOM     27  N   UNL     1      45.595  11.063  12.314  0.00  0.00    +0.000 N 
ATOM     28  C   UNL     1      44.954  11.904  11.464  0.00  0.00    +0.000 A 
ATOM     29  N   UNL     1      44.006  11.601  10.645  0.00  0.00    +0.000 NA
ATOM     30  C   UNL     1      43.569  10.292  10.638  0.00  0.00    +0.000 A 
ATOM     31  O   UNL     1      42.535   9.934  10.087  0.00  0.00    +0.000 OA
ATOM     32  C   UNL     1      44.392   9.259  11.306  0.00  0.00    +0.000 A 
ATOM     33  C   UNL     1      44.212   7.897  11.081  0.00  0.00    +0.000 A 
ATOM     34  H   UNL     1      46.377  11.335  12.891  0.00  0.00    +0.000 HD
ENDBRANCH  20  23
ENDBRANCH  18  19
ENDBRANCH   4  18
TORSDOF 6
ENDMDL
MODEL 5
REMARK VINA RESULT:    -8.162      3.072      5.440
REMARK INTER + INTRA:         -11.323
REMARK INTER:                 -10.626
REMARK INTRA:                  -0.697
REMARK UNBOUND:                -0.298
REMARK  Name = 
REMARK  6 active torsions:
REMARK  status: ('A' for Active; 'I' for Inactive)
REMARK    1  A    between atoms: C_2  and  C_26
REMARK    2  A    between atoms: N_3  and  C_4
REMARK    3  A    between atoms: C_4  and  C_5
REMARK    4  A    between atoms: C_8  and  C_9
REMARK    5  A    between atoms: C_9  and  N_10
REMARK    6  A    between atoms: C_11  and  C_13
REMARK                            x       y       z     vdW  Elec       q    Type
REMARK                         _______ _______ _______ _____ _____    ______ ____
ROOT
ATOM      1  C   UNL     1      46.627   2.417   6.487  0.00  0.00    +0.000 A 
ATOM      2  C   UNL     1      46.501   1.342   7.371  0.00  0.00    +0.000 A 
ATOM      3  C   UNL     1      45.941   1.521   8.642  0.00  0.00    +0.000 A 
ATOM      4  C   UNL     1      45.467   2.778   9.052  0.00  0.00    +0.000 A 
ATOM      5  C   UNL     1      45.593   3.851   8.157  0.00  0.00    +0.000 A 
ATOM      6  C   UNL     1      46.158   3.673   6.888  0.00  0.00    +0.000 A 
ENDROOT
BRANCH   1   7
ATOM      7  C   UNL     1      47.249   2.208   5.134  0.00  0.00    +0.000 C 
BRANCH   7  10
ATOM      8  O   UNL     1      45.966   0.928   3.011  0.00  0.00    +0.000 OA
ATOM      9  C   UNL     1      46.696   0.274   3.748  0.00  0.00    +0.000 C 
ATOM     10  N   UNL     1      47.368   0.806   4.823  0.00  0.00    +0.000 N 
ATOM     11  H   UNL     1      48.142   0.294   5.226  0.00  0.00    +0.000 HD
BRANCH   9  12
ATOM     12  C   UNL     1      46.954  -1.163   3.479  0.00  0.00    +0.000 A 
ATOM     13  C   UNL     1      46.506  -2.103   4.413  0.00  0.00    +0.000 A 
ATOM     14  C   UNL     1      46.676  -3.466   4.165  0.00  0.00    +0.000 A 
ATOM     15  C   UNL     1      47.307  -3.888   2.995  0.00  0.00    +0.000 A 
ATOM     16  C   UNL     1      47.786  -2.951   2.078  0.00  0.00    +0.000 A 
ATOM     17  C   UNL     1      47.614  -1.586   2.319  0.00  0.00    +0.000 A 
ENDBRANCH   9  12
ENDBRANCH   7  10
ENDBRANCH   1   7
BRANCH   4  18
ATOM     18  C   UNL     1      44.796   3.005  10.389  0.00  0.00    +0.000 C 
BRANCH  18  19
ATOM     19  N   UNL     1      45.689   3.485  11.423  0.00  0.00    +0.000 N 
ATOM     20  C   UNL     1      45.253   4.419  12.348  0.00  0.00    +0.000 C 
ATOM     21  O   UNL     1      44.139   4.900  12.379  0.00  0.00    +0.000 OA
ATOM     22  H   UNL     1      46.455   2.887  11.690  0.00  0.00    +0.000 HD
BRANCH  20  23
ATOM     23  C   UNL     1      46.261   4.780  13.377  0.00  0.00    +0.000 A 
ATOM     24  C   UNL     1      47.250   5.721  13.106  0.00  0.00    +0.000 A 
ATOM     25  N   UNL     1      48.173   6.133  14.019  0.00  0.00    +0.000 NA
ATOM     26  C   UNL     1      48.102   5.587  15.252  0.00  0.00    +0.000 A 
ATOM     27  N   UNL     1      48.971   6.039  16.235  0.00  0.00    +0.000 N 
ATOM     28  C   UNL     1      48.737   5.673  17.521  0.00  0.00    +0.000 A 
ATOM     29  N   UNL     1      47.905   4.776  17.929  0.00  0.00    +0.000 NA
ATOM     30  C   UNL     1      47.187   4.094  16.969  0.00  0.00    +0.000 A 
ATOM     31  O   UNL     1      46.550   3.075  17.207  0.00  0.00    +0.000 OA
ATOM     32  C   UNL     1      47.160   4.620  15.586  0.00  0.00    +0.000 A 
ATOM     33  C   UNL     1      46.226   4.200  14.642  0.00  0.00    +0.000 A 
ATOM     34  H   UNL     1      49.588   6.793  15.969  0.00  0.00    +0.000 HD
ENDBRANCH  20  23
ENDBRANCH  18  19
ENDBRANCH   4  18
TORSDOF 6
ENDMDL
MODEL 6
REMARK VINA RESULT:    -8.136      2.303      2.707
REMARK INTER + INTRA:         -11.288
REMARK INTER:                 -10.586
REMARK INTRA:                  -0.702
REMARK UNBOUND:                -0.298
REMARK  Name = 
REMARK  6 active torsions:
REMARK  status: ('A' for Active; 'I' for Inactive)
REMARK    1  A    between atoms: C_2  and  C_26
REMARK    2  A    between atoms: N_3  and  C_4
REMARK    3  A    between atoms: C_4  and  C_5
REMARK    4  A    between atoms: C_8  and  C_9
REMARK    5  A    between atoms: C_9  and  N_10
REMARK    6  A    between atoms: C_11  and  C_13
REMARK                            x       y       z     vdW  Elec       q    Type
REMARK                         _______ _______ _______ _____ _____    ______ ____
ROOT
ATOM      1  C   UNL     1      44.996   5.981  11.227  0.00  0.00    +0.000 A 
ATOM      2  C   UNL     1      46.032   5.389  11.955  0.00  0.00    +0.000 A 
ATOM      3  C   UNL     1      46.821   6.150  12.826  0.00  0.00    +0.000 A 
ATOM      4  C   UNL     1      46.575   7.520  13.013  0.00  0.00    +0.000 A 
ATOM      5  C   UNL     1      45.531   8.106  12.282  0.00  0.00    +0.000 A 
ATOM      6  C   UNL     1      44.746   7.346  11.406  0.00  0.00    +0.000 A 
ENDROOT
BRANCH   1   7
ATOM      7  C   UNL     1      44.173   5.150  10.281  0.00  0.00    +0.000 C 
BRANCH   7  10
ATOM      8  O   UNL     1      44.461   2.401   9.891  0.00  0.00    +0.000 OA
ATOM      9  C   UNL     1      45.064   3.175   9.154  0.00  0.00    +0.000 C 
ATOM     10  N   UNL     1      44.995   4.544   9.265  0.00  0.00    +0.000 N 
ATOM     11  H   UNL     1      45.293   5.119   8.488  0.00  0.00    +0.000 HD
BRANCH   9  12
ATOM     12  C   UNL     1      45.881   2.664   8.025  0.00  0.00    +0.000 A 
ATOM     13  C   UNL     1      46.366   1.354   8.096  0.00  0.00    +0.000 A 
ATOM     14  C   UNL     1      47.085   0.819   7.027  0.00  0.00    +0.000 A 
ATOM     15  C   UNL     1      47.334   1.597   5.896  0.00  0.00    +0.000 A 
ATOM     16  C   UNL     1      46.881   2.915   5.837  0.00  0.00    +0.000 A 
ATOM     17  C   UNL     1      46.157   3.454   6.901  0.00  0.00    +0.000 A 
ENDBRANCH   9  12
ENDBRANCH   7  10
ENDBRANCH   1   7
BRANCH   4  18
ATOM     18  C   UNL     1      47.359   8.367  13.992  0.00  0.00    +0.000 C 
BRANCH  18  19
ATOM     19  N   UNL     1      47.970   7.613  15.066  0.00  0.00    +0.000 N 
ATOM     20  C   UNL     1      49.287   7.197  14.971  0.00  0.00    +0.000 C 
ATOM     21  O   UNL     1      50.018   7.412  14.026  0.00  0.00    +0.000 OA
ATOM     22  H   UNL     1      47.582   7.723  15.990  0.00  0.00    +0.000 HD
BRANCH  20  23
ATOM     23  C   UNL     1      49.792   6.478  16.169  0.00  0.00    +0.000 A 
ATOM     24  C   UNL     1      48.942   5.686  16.934  0.00  0.00    +0.000 A 
ATOM     25  N   UNL     1      49.351   4.962  18.014  0.00  0.00    +0.000 NA
ATOM     26  C   UNL     1      50.659   5.030  18.338  0.00  0.00    +0.000 A 
ATOM     27  N   UNL     1      51.132   4.244  19.380  0.00  0.00    +0.000 N 
ATOM     28  C   UNL     1      52.475   4.128  19.541  0.00  0.00    +0.000 A 
ATOM     29  N   UNL     1      53.387   4.827  18.957  0.00  0.00    +0.000 NA
ATOM     30  C   UNL     1      52.970   5.818  18.092  0.00  0.00    +0.000 A 
ATOM     31  O   UNL     1      53.714   6.690  17.663  0.00  0.00    +0.000 OA
ATOM     32  C   UNL     1      51.561   5.824  17.637  0.00  0.00    +0.000 A 
ATOM     33  C   UNL     1      51.131   6.566  16.540  0.00  0.00    +0.000 A 
ATOM     34  H   UNL     1      50.459   3.629  19.812  0.00  0.00    +0.000 HD
ENDBRANCH  20  23
ENDBRANCH  18  19
ENDBRANCH   4  18
TORSDOF 6
ENDMDL
MODEL 7
REMARK VINA RESULT:    -8.081      3.880      6.273
REMARK INTER + INTRA:         -11.214
REMARK INTER:                 -10.466
REMARK INTRA:                  -0.748
REMARK UNBOUND:                -0.298
REMARK  Name = 
REMARK  6 active torsions:
REMARK  status: ('A' for Active; 'I' for Inactive)
REMARK    1  A    between atoms: C_2  and  C_26
REMARK    2  A    between atoms: N_3  and  C_4
REMARK    3  A    between atoms: C_4  and  C_5
REMARK    4  A    between atoms: C_8  and  C_9
REMARK    5  A    between atoms: C_9  and  N_10
REMARK    6  A    between atoms: C_11  and  C_13
REMARK                            x       y       z     vdW  Elec       q    Type
REMARK                         _______ _______ _______ _____ _____    ______ ____
ROOT
ATOM      1  C   UNL     1      46.808   2.297   6.305  0.00  0.00    +0.000 A 
ATOM      2  C   UNL     1      46.609   1.286   7.249  0.00  0.00    +0.000 A 
ATOM      3  C   UNL     1      45.934   1.548   8.447  0.00  0.00    +0.000 A 
ATOM      4  C   UNL     1      45.415   2.824   8.720  0.00  0.00    +0.000 A 
ATOM      5  C   UNL     1      45.616   3.833   7.766  0.00  0.00    +0.000 A 
ATOM      6  C   UNL     1      46.296   3.572   6.570  0.00  0.00    +0.000 A 
ENDROOT
BRANCH   1   7
ATOM      7  C   UNL     1      47.553   2.001   5.033  0.00  0.00    +0.000 C 
BRANCH   7  10
ATOM      8  O   UNL     1      46.088   0.740   3.019  0.00  0.00    +0.000 OA
ATOM      9  C   UNL     1      46.820   0.066   3.735  0.00  0.00    +0.000 C 
ATOM     10  N   UNL     1      47.578   0.587   4.758  0.00  0.00    +0.000 N 
ATOM     11  H   UNL     1      48.343   0.043   5.133  0.00  0.00    +0.000 HD
BRANCH   9  12
ATOM     12  C   UNL     1      46.983  -1.390   3.495  0.00  0.00    +0.000 A 
ATOM     13  C   UNL     1      47.713  -1.800   2.374  0.00  0.00    +0.000 A 
ATOM     14  C   UNL     1      47.939  -3.158   2.149  0.00  0.00    +0.000 A 
ATOM     15  C   UNL     1      47.422  -4.106   3.032  0.00  0.00    +0.000 A 
ATOM     16  C   UNL     1      46.664  -3.702   4.132  0.00  0.00    +0.000 A 
ATOM     17  C   UNL     1      46.439  -2.344   4.365  0.00  0.00    +0.000 A 
ENDBRANCH   9  12
ENDBRANCH   7  10
ENDBRANCH   1   7
BRANCH   4  18
ATOM     18  C   UNL     1      44.622   3.136   9.971  0.00  0.00    +0.000 C 
BRANCH  18  19
ATOM     19  N   UNL     1      45.274   4.072  10.863  0.00  0.00    +0.000 N 
ATOM     20  C   UNL     1      45.402   3.783  12.212  0.00  0.00    +0.000 C 
ATOM     21  O   UNL     1      45.001   2.770  12.747  0.00  0.00    +0.000 OA
ATOM     22  H   UNL     1      45.938   4.714  10.460  0.00  0.00    +0.000 HD
BRANCH  20  23
ATOM     23  C   UNL     1      46.136   4.811  12.993  0.00  0.00    +0.000 A 
ATOM     24  C   UNL     1      46.965   4.445  14.050  0.00  0.00    +0.000 A 
ATOM     25  N   UNL     1      47.703   5.331  14.774  0.00  0.00    +0.000 NA
ATOM     26  C   UNL     1      47.613   6.633  14.426  0.00  0.00    +0.000 A 
ATOM     27  N   UNL     1      48.411   7.558  15.085  0.00  0.00    +0.000 N 
ATOM     28  C   UNL     1      48.500   8.812  14.573  0.00  0.00    +0.000 A 
ATOM     29  N   UNL     1      47.767   9.321  13.644  0.00  0.00    +0.000 NA
ATOM     30  C   UNL     1      46.767   8.528  13.119  0.00  0.00    +0.000 A 
ATOM     31  O   UNL     1      45.868   8.964  12.411  0.00  0.00    +0.000 OA
ATOM     32  C   UNL     1      46.783   7.075  13.402  0.00  0.00    +0.000 A 
ATOM     33  C   UNL     1      46.027   6.161  12.673  0.00  0.00    +0.000 A 
ATOM     34  H   UNL     1      49.051   7.184  15.770  0.00  0.00    +0.000 HD
ENDBRANCH  20  23
ENDBRANCH  18  19
ENDBRANCH   4  18
TORSDOF 6
ENDMDL
MODEL 8
REMARK VINA RESULT:    -7.902      4.345      6.784
REMARK INTER + INTRA:         -10.972
REMARK INTER:                 -10.230
REMARK INTRA:                  -0.742
REMARK UNBOUND:                -0.298
REMARK  Name = 
REMARK  6 active torsions:
REMARK  status: ('A' for Active; 'I' for Inactive)
REMARK    1  A    between atoms: C_2  and  C_26
REMARK    2  A    between atoms: N_3  and  C_4
REMARK    3  A    between atoms: C_4  and  C_5
REMARK    4  A    between atoms: C_8  and  C_9
REMARK    5  A    between atoms: C_9  and  N_10
REMARK    6  A    between atoms: C_11  and  C_13
REMARK                            x       y       z     vdW  Elec       q    Type
REMARK                         _______ _______ _______ _____ _____    ______ ____
ROOT
ATOM      1  C   UNL     1      44.971   9.368  11.815  0.00  0.00    +0.000 A 
ATOM      2  C   UNL     1      46.116   9.300  12.613  0.00  0.00    +0.000 A 
ATOM      3  C   UNL     1      46.628   8.065  13.029  0.00  0.00    +0.000 A 
ATOM      4  C   UNL     1      46.021   6.862  12.634  0.00  0.00    +0.000 A 
ATOM      5  C   UNL     1      44.874   6.938  11.830  0.00  0.00    +0.000 A 
ATOM      6  C   UNL     1      44.359   8.173  11.419  0.00  0.00    +0.000 A 
ENDROOT
BRANCH   1   7
ATOM      7  C   UNL     1      44.425  10.705  11.395  0.00  0.00    +0.000 C 
BRANCH   7  10
ATOM      8  O   UNL     1      42.082  10.599   9.882  0.00  0.00    +0.000 OA
ATOM      9  C   UNL     1      42.006  10.837  11.083  0.00  0.00    +0.000 C 
ATOM     10  N   UNL     1      43.099  10.916  11.915  0.00  0.00    +0.000 N 
ATOM     11  H   UNL     1      42.964  10.853  12.916  0.00  0.00    +0.000 HD
BRANCH   9  12
ATOM     12  C   UNL     1      40.686  10.997  11.743  0.00  0.00    +0.000 A 
ATOM     13  C   UNL     1      40.578  11.907  12.799  0.00  0.00    +0.000 A 
ATOM     14  C   UNL     1      39.340  12.130  13.402  0.00  0.00    +0.000 A 
ATOM     15  C   UNL     1      38.215  11.430  12.964  0.00  0.00    +0.000 A 
ATOM     16  C   UNL     1      38.327  10.496  11.934  0.00  0.00    +0.000 A 
ATOM     17  C   UNL     1      39.562  10.273  11.323  0.00  0.00    +0.000 A 
ENDBRANCH   9  12
ENDBRANCH   7  10
ENDBRANCH   1   7
BRANCH   4  18
ATOM     18  C   UNL     1      46.576   5.504  13.005  0.00  0.00    +0.000 C 
BRANCH  18  19
ATOM     19  N   UNL     1      46.949   5.380  14.398  0.00  0.00    +0.000 N 
ATOM     20  C   UNL     1      47.304   4.148  14.923  0.00  0.00    +0.000 C 
ATOM     21  O   UNL     1      47.332   3.108  14.298  0.00  0.00    +0.000 OA
ATOM     22  H   UNL     1      47.307   6.202  14.858  0.00  0.00    +0.000 HD
BRANCH  20  23
ATOM     23  C   UNL     1      47.711   4.183  16.351  0.00  0.00    +0.000 A 
ATOM     24  C   UNL     1      47.714   3.023  17.119  0.00  0.00    +0.000 A 
ATOM     25  N   UNL     1      48.123   2.976  18.417  0.00  0.00    +0.000 NA
ATOM     26  C   UNL     1      48.547   4.133  18.968  0.00  0.00    +0.000 A 
ATOM     27  N   UNL     1      49.049   4.113  20.263  0.00  0.00    +0.000 N 
ATOM     28  C   UNL     1      49.697   5.215  20.719  0.00  0.00    +0.000 A 
ATOM     29  N   UNL     1      49.735   6.376  20.161  0.00  0.00    +0.000 NA
ATOM     30  C   UNL     1      49.029   6.538  18.987  0.00  0.00    +0.000 A 
ATOM     31  O   UNL     1      48.796   7.634  18.491  0.00  0.00    +0.000 OA
ATOM     32  C   UNL     1      48.544   5.337  18.271  0.00  0.00    +0.000 A 
ATOM     33  C   UNL     1      48.117   5.374  16.947  0.00  0.00    +0.000 A 
ATOM     34  H   UNL     1      49.101   3.207  20.704  0.00  0.00    +0.000 HD
ENDBRANCH  20  23
ENDBRANCH  18  19
ENDBRANCH   4  18
TORSDOF 6
ENDMDL
MODEL 9
REMARK VINA RESULT:    -7.514      1.512      1.985
REMARK INTER + INTRA:         -10.448
REMARK INTER:                  -9.781
REMARK INTRA:                  -0.667
REMARK UNBOUND:                -0.298
REMARK  Name = 
REMARK  6 active torsions:
REMARK  status: ('A' for Active; 'I' for Inactive)
REMARK    1  A    between atoms: C_2  and  C_26
REMARK    2  A    between atoms: N_3  and  C_4
REMARK    3  A    between atoms: C_4  and  C_5
REMARK    4  A    between atoms: C_8  and  C_9
REMARK    5  A    between atoms: C_9  and  N_10
REMARK    6  A    between atoms: C_11  and  C_13
REMARK                            x       y       z     vdW  Elec       q    Type
REMARK                         _______ _______ _______ _____ _____    ______ ____
ROOT
ATOM      1  C   UNL     1      45.420   5.797  11.835  0.00  0.00    +0.000 A 
ATOM      2  C   UNL     1      46.038   4.987  12.792  0.00  0.00    +0.000 A 
ATOM      3  C   UNL     1      47.113   5.467  13.551  0.00  0.00    +0.000 A 
ATOM      4  C   UNL     1      47.579   6.782  13.391  0.00  0.00    +0.000 A 
ATOM      5  C   UNL     1      46.951   7.590  12.432  0.00  0.00    +0.000 A 
ATOM      6  C   UNL     1      45.880   7.108  11.669  0.00  0.00    +0.000 A 
ENDROOT
BRANCH   1   7
ATOM      7  C   UNL     1      44.281   5.256  11.017  0.00  0.00    +0.000 C 
BRANCH   7  10
ATOM      8  O   UNL     1      45.809   5.670   8.718  0.00  0.00    +0.000 OA
ATOM      9  C   UNL     1      45.480   4.527   9.017  0.00  0.00    +0.000 C 
ATOM     10  N   UNL     1      44.724   4.216  10.124  0.00  0.00    +0.000 N 
ATOM     11  H   UNL     1      44.707   3.262  10.459  0.00  0.00    +0.000 HD
BRANCH   9  12
ATOM     12  C   UNL     1      45.944   3.369   8.212  0.00  0.00    +0.000 A 
ATOM     13  C   UNL     1      45.808   2.087   8.755  0.00  0.00    +0.000 A 
ATOM     14  C   UNL     1      46.176   0.971   8.004  0.00  0.00    +0.000 A 
ATOM     15  C   UNL     1      46.696   1.136   6.720  0.00  0.00    +0.000 A 
ATOM     16  C   UNL     1      46.866   2.415   6.190  0.00  0.00    +0.000 A 
ATOM     17  C   UNL     1      46.495   3.536   6.935  0.00  0.00    +0.000 A 
ENDBRANCH   9  12
ENDBRANCH   7  10
ENDBRANCH   1   7
BRANCH   4  18
ATOM     18  C   UNL     1      48.693   7.364  14.234  0.00  0.00    +0.000 C 
BRANCH  18  19
ATOM     19  N   UNL     1      48.355   7.516  15.634  0.00  0.00    +0.000 N 
ATOM     20  C   UNL     1      48.876   6.648  16.580  0.00  0.00    +0.000 C 
ATOM     21  O   UNL     1      49.626   5.725  16.338  0.00  0.00    +0.000 OA
ATOM     22  H   UNL     1      48.073   8.431  15.948  0.00  0.00    +0.000 HD
BRANCH  20  23
ATOM     23  C   UNL     1      48.483   6.956  17.979  0.00  0.00    +0.000 A 
ATOM     24  C   UNL     1      48.627   6.005  18.984  0.00  0.00    +0.000 A 
ATOM     25  N   UNL     1      48.333   6.238  20.293  0.00  0.00    +0.000 NA
ATOM     26  C   UNL     1      47.882   7.471  20.610  0.00  0.00    +0.000 A 
ATOM     27  N   UNL     1      47.649   7.775  21.945  0.00  0.00    +0.000 N 
ATOM     28  C   UNL     1      47.437   9.073  22.282  0.00  0.00    +0.000 A 
ATOM     29  N   UNL     1      47.224  10.056  21.476  0.00  0.00    +0.000 NA
ATOM     30  C   UNL     1      47.182   9.771  20.126  0.00  0.00    +0.000 A 
ATOM     31  O   UNL     1      46.762  10.560  19.288  0.00  0.00    +0.000 OA
ATOM     32  C   UNL     1      47.686   8.462  19.655  0.00  0.00    +0.000 A 
ATOM     33  C   UNL     1      47.982   8.210  18.318  0.00  0.00    +0.000 A 
ATOM     34  H   UNL     1      47.875   7.051  22.610  0.00  0.00    +0.000 HD
ENDBRANCH  20  23
ENDBRANCH  18  19
ENDBRANCH   4  18
TORSDOF 6
ENDMDL
