MODEL 1
REMARK VINA RESULT:    -7.791      0.000      0.000
REMARK INTER + INTRA:         -10.062
REMARK INTER:                  -9.385
REMARK INTRA:                  -0.677
REMARK UNBOUND:                -0.677
REMARK  Name = 
REMARK  4 active torsions:
REMARK  status: ('A' for Active; 'I' for Inactive)
REMARK    1  A    between atoms: O_1  and  C_2
REMARK    2  A    between atoms: C_2  and  C_3
REMARK    3  A    between atoms: C_7  and  O_8
REMARK    4  A    between atoms: O_8  and  C_9
REMARK                            x       y       z     vdW  Elec       q    Type
REMARK                         _______ _______ _______ _____ _____    ______ ____
ROOT
ATOM      1  C   UNL     1      45.336   5.605  12.242  0.00  0.00    +0.000 A 
ATOM      2  C   UNL     1      44.405   5.052  13.144  0.00  0.00    +0.000 A 
ATOM      3  C   UNL     1      43.373   4.221  12.708  0.00  0.00    +0.000 A 
ATOM      4  C   UNL     1      43.239   3.935  11.353  0.00  0.00    +0.000 A 
ATOM      5  C   UNL     1      44.101   4.527  10.430  0.00  0.00    +0.000 A 
ATOM      6  C   UNL     1      45.155   5.335  10.872  0.00  0.00    +0.000 A 
ENDROOT
BRANCH   1   7
ATOM      7  C   UNL     1      46.483   6.480  12.765  0.00  0.00    +0.000 C 
ATOM      8  C   UNL     1      47.434   6.891  11.621  0.00  0.00    +0.000 C 
ATOM      9  C   UNL     1      48.676   7.609  12.144  0.00  0.00    +0.000 C 
ATOM     10  N   UNL     1      49.377   6.793  13.136  0.00  0.00    +0.000 NA
ATOM     11  C   UNL     1      48.510   6.533  14.288  0.00  0.00    +0.000 C 
ATOM     12  C   UNL     1      47.263   5.754  13.876  0.00  0.00    +0.000 C 
ATOM     13  H   UNL     1      50.205   7.298  13.454  0.00  0.00    +0.000 HD
BRANCH   7  14
ATOM     14  O   UNL     1      45.958   7.690  13.337  0.00  0.00    +0.000 OA
ATOM     15  H   UNL     1      45.046   7.786  13.007  0.00  0.00    +0.000 HD
ENDBRANCH   7  14
ENDBRANCH   1   7
BRANCH   5  16
ATOM     16  O   UNL     1      44.015   4.295   9.074  0.00  0.00    +0.000 OA
BRANCH  16  17
ATOM     17  C   UNL     1      45.059   3.600   8.470  0.00  0.00    +0.000 A 
ATOM     18  C   UNL     1      45.167   2.252   8.780  0.00  0.00    +0.000 A 
ATOM     19  C   UNL     1      46.189   1.519   8.181  0.00  0.00    +0.000 A 
ATOM     20  C   UNL     1      47.063   2.157   7.307  0.00  0.00    +0.000 A 
ATOM     21  C   UNL     1      46.891   3.512   7.077  0.00  0.00    +0.000 A 
ATOM     22  N   UNL     1      45.916   4.247   7.648  0.00  0.00    +0.000 NA
ENDBRANCH  16  17
ENDBRANCH   5  16
TORSDOF 4
ENDMDL
MODEL 2
REMARK VINA RESULT:    -7.468      1.050      1.390
REMARK INTER + INTRA:          -9.673
REMARK INTER:                  -9.038
REMARK INTRA:                  -0.635
REMARK UNBOUND:                -0.677
REMARK  Name = 
REMARK  4 active torsions:
REMARK  status: ('A' for Active; 'I' for Inactive)
REMARK    1  A    between atoms: O_1  and  C_2
REMARK    2  A    between atoms: C_2  and  C_3
REMARK    3  A    between atoms: C_7  and  O_8
REMARK    4  A    between atoms: O_8  and  C_9
REMARK                            x       y       z     vdW  Elec       q    Type
REMARK                         _______ _______ _______ _____ _____    ______ ____
ROOT
ATOM      1  C   UNL     1      45.382   5.671  12.132  0.00  0.00    +0.000 A 
ATOM      2  C   UNL     1      44.465   5.165  13.073  0.00  0.00    +0.000 A 
ATOM      3  C   UNL     1      43.419   4.323  12.692  0.00  0.00    +0.000 A 
ATOM      4  C   UNL     1      43.258   3.981  11.354  0.00  0.00    +0.000 A 
ATOM      5  C   UNL     1      44.107   4.526  10.390  0.00  0.00    +0.000 A 
ATOM      6  C   UNL     1      45.174   5.344  10.778  0.00  0.00    +0.000 A 
ENDROOT
BRANCH   1   7
ATOM      7  C   UNL     1      46.545   6.559  12.596  0.00  0.00    +0.000 C 
ATOM      8  C   UNL     1      47.343   5.879  13.729  0.00  0.00    +0.000 C 
ATOM      9  C   UNL     1      48.391   6.816  14.326  0.00  0.00    +0.000 C 
ATOM     10  N   UNL     1      47.779   8.060  14.793  0.00  0.00    +0.000 NA
ATOM     11  C   UNL     1      47.150   8.771  13.677  0.00  0.00    +0.000 C 
ATOM     12  C   UNL     1      46.034   7.938  13.050  0.00  0.00    +0.000 C 
ATOM     13  H   UNL     1      48.505   8.656  15.195  0.00  0.00    +0.000 HD
BRANCH   7  14
ATOM     14  O   UNL     1      47.457   6.782  11.507  0.00  0.00    +0.000 OA
ATOM     15  H   UNL     1      46.996   6.513  10.692  0.00  0.00    +0.000 HD
ENDBRANCH   7  14
ENDBRANCH   1   7
BRANCH   5  16
ATOM     16  O   UNL     1      43.995   4.236   9.047  0.00  0.00    +0.000 OA
BRANCH  16  17
ATOM     17  C   UNL     1      45.037   3.534   8.448  0.00  0.00    +0.000 A 
ATOM     18  C   UNL     1      45.165   2.198   8.798  0.00  0.00    +0.000 A 
ATOM     19  C   UNL     1      46.186   1.458   8.206  0.00  0.00    +0.000 A 
ATOM     20  C   UNL     1      47.039   2.078   7.298  0.00  0.00    +0.000 A 
ATOM     21  C   UNL     1      46.848   3.423   7.030  0.00  0.00    +0.000 A 
ATOM     22  N   UNL     1      45.874   4.165   7.594  0.00  0.00    +0.000 NA
ENDBRANCH  16  17
ENDBRANCH   5  16
TORSDOF 4
ENDMDL
MODEL 3
REMARK VINA RESULT:    -7.070      1.834      2.435
REMARK INTER + INTRA:          -9.193
REMARK INTER:                  -8.610
REMARK INTRA:                  -0.583
REMARK UNBOUND:                -0.677
REMARK  Name = 
REMARK  4 active torsions:
REMARK  status: ('A' for Active; 'I' for Inactive)
REMARK    1  A    between atoms: O_1  and  C_2
REMARK    2  A    between atoms: C_2  and  C_3
REMARK    3  A    between atoms: C_7  and  O_8
REMARK    4  A    between atoms: O_8  and  C_9
REMARK                            x       y       z     vdW  Elec       q    Type
REMARK                         _______ _______ _______ _____ _____    ______ ____
ROOT
ATOM      1  C   UNL     1      45.470   4.497  12.924  0.00  0.00    +0.000 A 
ATOM      2  C   UNL     1      44.376   5.354  13.152  0.00  0.00    +0.000 A 
ATOM      3  C   UNL     1      43.185   5.223  12.437  0.00  0.00    +0.000 A 
ATOM      4  C   UNL     1      43.067   4.237  11.463  0.00  0.00    +0.000 A 
ATOM      5  C   UNL     1      44.159   3.422  11.165  0.00  0.00    +0.000 A 
ATOM      6  C   UNL     1      45.341   3.534  11.905  0.00  0.00    +0.000 A 
ENDROOT
BRANCH   1   7
ATOM      7  C   UNL     1      46.747   4.645  13.762  0.00  0.00    +0.000 C 
ATOM      8  C   UNL     1      46.484   4.293  15.242  0.00  0.00    +0.000 C 
ATOM      9  C   UNL     1      47.691   4.605  16.123  0.00  0.00    +0.000 C 
ATOM     10  N   UNL     1      48.098   6.003  15.984  0.00  0.00    +0.000 NA
ATOM     11  C   UNL     1      48.488   6.287  14.600  0.00  0.00    +0.000 C 
ATOM     12  C   UNL     1      47.319   6.069  13.642  0.00  0.00    +0.000 C 
ATOM     13  H   UNL     1      48.897   6.178  16.594  0.00  0.00    +0.000 HD
BRANCH   7  14
ATOM     14  O   UNL     1      47.757   3.740  13.283  0.00  0.00    +0.000 OA
ATOM     15  H   UNL     1      47.671   3.710  12.313  0.00  0.00    +0.000 HD
ENDBRANCH   7  14
ENDBRANCH   1   7
BRANCH   5  16
ATOM     16  O   UNL     1      44.112   2.434  10.204  0.00  0.00    +0.000 OA
BRANCH  16  17
ATOM     17  C   UNL     1      45.020   2.513   9.152  0.00  0.00    +0.000 A 
ATOM     18  C   UNL     1      45.126   3.740   8.515  0.00  0.00    +0.000 A 
ATOM     19  C   UNL     1      46.037   3.862   7.468  0.00  0.00    +0.000 A 
ATOM     20  C   UNL     1      46.797   2.758   7.095  0.00  0.00    +0.000 A 
ATOM     21  C   UNL     1      46.604   1.567   7.774  0.00  0.00    +0.000 A 
ATOM     22  N   UNL     1      45.725   1.419   8.785  0.00  0.00    +0.000 NA
ENDBRANCH  16  17
ENDBRANCH   5  16
TORSDOF 4
ENDMDL
MODEL 4
REMARK VINA RESULT:    -6.650      1.967      2.432
REMARK INTER + INTRA:          -8.688
REMARK INTER:                  -8.182
REMARK INTRA:                  -0.506
REMARK UNBOUND:                -0.677
REMARK  Name = 
REMARK  4 active torsions:
REMARK  status: ('A' for Active; 'I' for Inactive)
REMARK    1  A    between atoms: O_1  and  C_2
REMARK    2  A    between atoms: C_2  and  C_3
REMARK    3  A    between atoms: C_7  and  O_8
REMARK    4  A    between atoms: O_8  and  C_9
REMARK                            x       y       z     vdW  Elec       q    Type
REMARK                         _______ _______ _______ _____ _____    ______ ____
ROOT
ATOM      1  C   UNL     1      46.133   6.929  12.535  0.00  0.00    +0.000 A 
ATOM      2  C   UNL     1      46.450   6.037  13.578  0.00  0.00    +0.000 A 
ATOM      3  C   UNL     1      46.126   4.682  13.503  0.00  0.00    +0.000 A 
ATOM      4  C   UNL     1      45.461   4.190  12.385  0.00  0.00    +0.000 A 
ATOM      5  C   UNL     1      45.069   5.063  11.370  0.00  0.00    +0.000 A 
ATOM      6  C   UNL     1      45.423   6.416  11.432  0.00  0.00    +0.000 A 
ENDROOT
BRANCH   1   7
ATOM      7  C   UNL     1      46.545   8.403  12.636  0.00  0.00    +0.000 C 
ATOM      8  C   UNL     1      45.510   9.317  11.945  0.00  0.00    +0.000 C 
ATOM      9  C   UNL     1      45.987  10.766  11.878  0.00  0.00    +0.000 C 
ATOM     10  N   UNL     1      47.289  10.861  11.217  0.00  0.00    +0.000 NA
ATOM     11  C   UNL     1      48.298  10.108  11.966  0.00  0.00    +0.000 C 
ATOM     12  C   UNL     1      47.943   8.624  12.033  0.00  0.00    +0.000 C 
ATOM     13  H   UNL     1      47.570  11.842  11.179  0.00  0.00    +0.000 HD
BRANCH   7  14
ATOM     14  O   UNL     1      46.611   8.802  14.016  0.00  0.00    +0.000 OA
ATOM     15  H   UNL     1      47.504   9.163  14.163  0.00  0.00    +0.000 HD
ENDBRANCH   7  14
ENDBRANCH   1   7
BRANCH   5  16
ATOM     16  O   UNL     1      44.399   4.642  10.241  0.00  0.00    +0.000 OA
BRANCH  16  17
ATOM     17  C   UNL     1      45.121   3.932   9.287  0.00  0.00    +0.000 A 
ATOM     18  C   UNL     1      45.078   2.548   9.380  0.00  0.00    +0.000 A 
ATOM     19  C   UNL     1      45.775   1.803   8.431  0.00  0.00    +0.000 A 
ATOM     20  C   UNL     1      46.490   2.464   7.437  0.00  0.00    +0.000 A 
ATOM     21  C   UNL     1      46.494   3.849   7.440  0.00  0.00    +0.000 A 
ATOM     22  N   UNL     1      45.835   4.594   8.349  0.00  0.00    +0.000 NA
ENDBRANCH  16  17
ENDBRANCH   5  16
TORSDOF 4
ENDMDL
MODEL 5
REMARK VINA RESULT:    -6.431      2.907      3.421
REMARK INTER + INTRA:          -8.424
REMARK INTER:                  -7.826
REMARK INTRA:                  -0.598
REMARK UNBOUND:                -0.677
REMARK  Name = 
REMARK  4 active torsions:
REMARK  status: ('A' for Active; 'I' for Inactive)
REMARK    1  A    between atoms: O_1  and  C_2
REMARK    2  A    between atoms: C_2  and  C_3
REMARK    3  A    between atoms: C_7  and  O_8
REMARK    4  A    between atoms: O_8  and  C_9
REMARK                            x       y       z     vdW  Elec       q    Type
REMARK                         _______ _______ _______ _____ _____    ______ ____
ROOT
ATOM      1  C   UNL     1      45.274   7.900  11.925  0.00  0.00    +0.000 A 
ATOM      2  C   UNL     1      46.157   7.362  12.881  0.00  0.00    +0.000 A 
ATOM      3  C   UNL     1      46.397   5.990  12.961  0.00  0.00    +0.000 A 
ATOM      4  C   UNL     1      45.743   5.121  12.093  0.00  0.00    +0.000 A 
ATOM      5  C   UNL     1      44.808   5.618  11.186  0.00  0.00    +0.000 A 
ATOM      6  C   UNL     1      44.593   6.998  11.085  0.00  0.00    +0.000 A 
ENDROOT
BRANCH   1   7
ATOM      7  C   UNL     1      45.070   9.419  11.839  0.00  0.00    +0.000 C 
ATOM      8  C   UNL     1      44.256   9.800  10.584  0.00  0.00    +0.000 C 
ATOM      9  C   UNL     1      44.195  11.313  10.384  0.00  0.00    +0.000 C 
ATOM     10  N   UNL     1      45.537  11.891  10.330  0.00  0.00    +0.000 NA
ATOM     11  C   UNL     1      46.249  11.650  11.588  0.00  0.00    +0.000 C 
ATOM     12  C   UNL     1      46.422  10.155  11.846  0.00  0.00    +0.000 C 
ATOM     13  H   UNL     1      45.458  12.898  10.184  0.00  0.00    +0.000 HD
BRANCH   7  14
ATOM     14  O   UNL     1      44.330   9.881  12.983  0.00  0.00    +0.000 OA
ATOM     15  H   UNL     1      43.389   9.715  12.795  0.00  0.00    +0.000 HD
ENDBRANCH   7  14
ENDBRANCH   1   7
BRANCH   5  16
ATOM     16  O   UNL     1      44.118   4.811  10.307  0.00  0.00    +0.000 OA
BRANCH  16  17
ATOM     17  C   UNL     1      44.861   4.042   9.417  0.00  0.00    +0.000 A 
ATOM     18  C   UNL     1      44.806   2.666   9.589  0.00  0.00    +0.000 A 
ATOM     19  C   UNL     1      45.524   1.863   8.706  0.00  0.00    +0.000 A 
ATOM     20  C   UNL     1      46.270   2.460   7.695  0.00  0.00    +0.000 A 
ATOM     21  C   UNL     1      46.283   3.842   7.616  0.00  0.00    +0.000 A 
ATOM     22  N   UNL     1      45.605   4.644   8.461  0.00  0.00    +0.000 NA
ENDBRANCH  16  17
ENDBRANCH   5  16
TORSDOF 4
ENDMDL
MODEL 6
REMARK VINA RESULT:    -6.261      3.918      6.682
REMARK INTER + INTRA:          -8.219
REMARK INTER:                  -7.738
REMARK INTRA:                  -0.482
REMARK UNBOUND:                -0.677
REMARK  Name = 
REMARK  4 active torsions:
REMARK  status: ('A' for Active; 'I' for Inactive)
REMARK    1  A    between atoms: O_1  and  C_2
REMARK    2  A    between atoms: C_2  and  C_3
REMARK    3  A    between atoms: C_7  and  O_8
REMARK    4  A    between atoms: O_8  and  C_9
REMARK                            x       y       z     vdW  Elec       q    Type
REMARK                         _______ _______ _______ _____ _____    ______ ____
ROOT
ATOM      1  C   UNL     1      45.207   6.580  11.411  0.00  0.00    +0.000 A 
ATOM      2  C   UNL     1      46.607   6.483  11.533  0.00  0.00    +0.000 A 
ATOM      3  C   UNL     1      47.376   7.560  11.975  0.00  0.00    +0.000 A 
ATOM      4  C   UNL     1      46.761   8.767  12.290  0.00  0.00    +0.000 A 
ATOM      5  C   UNL     1      45.386   8.915  12.108  0.00  0.00    +0.000 A 
ATOM      6  C   UNL     1      44.612   7.824  11.696  0.00  0.00    +0.000 A 
ENDROOT
BRANCH   1   7
ATOM      7  C   UNL     1      44.391   5.360  10.963  0.00  0.00    +0.000 C 
ATOM      8  C   UNL     1      44.162   4.384  12.138  0.00  0.00    +0.000 C 
ATOM      9  C   UNL     1      43.510   3.083  11.676  0.00  0.00    +0.000 C 
ATOM     10  N   UNL     1      44.293   2.448  10.617  0.00  0.00    +0.000 NA
ATOM     11  C   UNL     1      44.378   3.327   9.447  0.00  0.00    +0.000 C 
ATOM     12  C   UNL     1      45.081   4.638   9.792  0.00  0.00    +0.000 C 
ATOM     13  H   UNL     1      43.835   1.578  10.342  0.00  0.00    +0.000 HD
BRANCH   7  14
ATOM     14  O   UNL     1      43.096   5.778  10.499  0.00  0.00    +0.000 OA
ATOM     15  H   UNL     1      43.090   5.657   9.532  0.00  0.00    +0.000 HD
ENDBRANCH   7  14
ENDBRANCH   1   7
BRANCH   5  16
ATOM     16  O   UNL     1      44.717  10.086  12.391  0.00  0.00    +0.000 OA
BRANCH  16  17
ATOM     17  C   UNL     1      43.822  10.565  11.438  0.00  0.00    +0.000 A 
ATOM     18  C   UNL     1      44.276  10.611  10.128  0.00  0.00    +0.000 A 
ATOM     19  C   UNL     1      43.402  11.068   9.145  0.00  0.00    +0.000 A 
ATOM     20  C   UNL     1      42.119  11.467   9.505  0.00  0.00    +0.000 A 
ATOM     21  C   UNL     1      41.764  11.409  10.842  0.00  0.00    +0.000 A 
ATOM     22  N   UNL     1      42.591  10.978  11.815  0.00  0.00    +0.000 NA
ENDBRANCH  16  17
ENDBRANCH   5  16
TORSDOF 4
ENDMDL
MODEL 7
REMARK VINA RESULT:    -6.253      2.253      6.744
REMARK INTER + INTRA:          -8.210
REMARK INTER:                  -7.689
REMARK INTRA:                  -0.521
REMARK UNBOUND:                -0.677
REMARK  Name = 
REMARK  4 active torsions:
REMARK  status: ('A' for Active; 'I' for Inactive)
REMARK    1  A    between atoms: O_1  and  C_2
REMARK    2  A    between atoms: C_2  and  C_3
REMARK    3  A    between atoms: C_7  and  O_8
REMARK    4  A    between atoms: O_8  and  C_9
REMARK                            x       y       z     vdW  Elec       q    Type
REMARK                         _______ _______ _______ _____ _____    ______ ____
ROOT
ATOM      1  C   UNL     1      45.575   6.155  11.779  0.00  0.00    +0.000 A 
ATOM      2  C   UNL     1      45.192   7.506  11.895  0.00  0.00    +0.000 A 
ATOM      3  C   UNL     1      45.901   8.398  12.700  0.00  0.00    +0.000 A 
ATOM      4  C   UNL     1      47.003   7.953  13.423  0.00  0.00    +0.000 A 
ATOM      5  C   UNL     1      47.361   6.605  13.385  0.00  0.00    +0.000 A 
ATOM      6  C   UNL     1      46.668   5.719  12.551  0.00  0.00    +0.000 A 
ENDROOT
BRANCH   1   7
ATOM      7  C   UNL     1      44.796   5.216  10.849  0.00  0.00    +0.000 C 
ATOM      8  C   UNL     1      44.589   3.833  11.503  0.00  0.00    +0.000 C 
ATOM      9  C   UNL     1      43.976   2.829  10.529  0.00  0.00    +0.000 C 
ATOM     10  N   UNL     1      44.782   2.716   9.313  0.00  0.00    +0.000 NA
ATOM     11  C   UNL     1      44.849   4.005   8.621  0.00  0.00    +0.000 C 
ATOM     12  C   UNL     1      45.512   5.068   9.494  0.00  0.00    +0.000 C 
ATOM     13  H   UNL     1      44.351   2.030   8.692  0.00  0.00    +0.000 HD
BRANCH   7  14
ATOM     14  O   UNL     1      43.492   5.759  10.581  0.00  0.00    +0.000 OA
ATOM     15  H   UNL     1      42.862   5.017  10.626  0.00  0.00    +0.000 HD
ENDBRANCH   7  14
ENDBRANCH   1   7
BRANCH   5  16
ATOM     16  O   UNL     1      48.434   6.098  14.085  0.00  0.00    +0.000 OA
BRANCH  16  17
ATOM     17  C   UNL     1      48.202   5.634  15.377  0.00  0.00    +0.000 A 
ATOM     18  C   UNL     1      48.684   6.420  16.413  0.00  0.00    +0.000 A 
ATOM     19  C   UNL     1      48.456   5.997  17.721  0.00  0.00    +0.000 A 
ATOM     20  C   UNL     1      47.766   4.809  17.942  0.00  0.00    +0.000 A 
ATOM     21  C   UNL     1      47.343   4.080  16.843  0.00  0.00    +0.000 A 
ATOM     22  N   UNL     1      47.557   4.461  15.568  0.00  0.00    +0.000 NA
ENDBRANCH  16  17
ENDBRANCH   5  16
TORSDOF 4
ENDMDL
MODEL 8
REMARK VINA RESULT:    -6.173      3.499      7.115
REMARK INTER + INTRA:          -8.113
REMARK INTER:                  -7.856
REMARK INTRA:                  -0.257
REMARK UNBOUND:                -0.677
REMARK  Name = 
REMARK  4 active torsions:
REMARK  status: ('A' for Active; 'I' for Inactive)
REMARK    1  A    between atoms: O_1  and  C_2
REMARK    2  A    between atoms: C_2  and  C_3
REMARK    3  A    between atoms: C_7  and  O_8
REMARK    4  A    between atoms: O_8  and  C_9
REMARK                            x       y       z     vdW  Elec       q    Type
REMARK                         _______ _______ _______ _____ _____    ______ ____
ROOT
ATOM      1  C   UNL     1      46.308   5.196  13.325  0.00  0.00    +0.000 A 
ATOM      2  C   UNL     1      47.125   6.343  13.277  0.00  0.00    +0.000 A 
ATOM      3  C   UNL     1      48.084   6.597  14.258  0.00  0.00    +0.000 A 
ATOM      4  C   UNL     1      48.236   5.714  15.322  0.00  0.00    +0.000 A 
ATOM      5  C   UNL     1      47.392   4.609  15.435  0.00  0.00    +0.000 A 
ATOM      6  C   UNL     1      46.453   4.339  14.433  0.00  0.00    +0.000 A 
ENDROOT
BRANCH   1   7
ATOM      7  C   UNL     1      45.296   4.929  12.203  0.00  0.00    +0.000 C 
ATOM      8  C   UNL     1      43.930   5.572  12.525  0.00  0.00    +0.000 C 
ATOM      9  C   UNL     1      42.860   5.170  11.511  0.00  0.00    +0.000 C 
ATOM     10  N   UNL     1      42.742   3.714  11.420  0.00  0.00    +0.000 NA
ATOM     11  C   UNL     1      44.007   3.126  10.970  0.00  0.00    +0.000 C 
ATOM     12  C   UNL     1      45.134   3.418  11.959  0.00  0.00    +0.000 C 
ATOM     13  H   UNL     1      42.013   3.483  10.745  0.00  0.00    +0.000 HD
BRANCH   7  14
ATOM     14  O   UNL     1      45.761   5.510  10.973  0.00  0.00    +0.000 OA
ATOM     15  H   UNL     1      45.166   6.255  10.770  0.00  0.00    +0.000 HD
ENDBRANCH   7  14
ENDBRANCH   1   7
BRANCH   5  16
ATOM     16  O   UNL     1      47.483   3.703  16.469  0.00  0.00    +0.000 OA
BRANCH  16  17
ATOM     17  C   UNL     1      48.748   3.230  16.805  0.00  0.00    +0.000 A 
ATOM     18  C   UNL     1      49.500   4.024  17.658  0.00  0.00    +0.000 A 
ATOM     19  C   UNL     1      50.766   3.575  18.030  0.00  0.00    +0.000 A 
ATOM     20  C   UNL     1      51.231   2.361  17.534  0.00  0.00    +0.000 A 
ATOM     21  C   UNL     1      50.417   1.649  16.669  0.00  0.00    +0.000 A 
ATOM     22  N   UNL     1      49.193   2.063  16.286  0.00  0.00    +0.000 NA
ENDBRANCH  16  17
ENDBRANCH   5  16
TORSDOF 4
ENDMDL
MODEL 9
REMARK VINA RESULT:    -5.966      2.599      3.770
REMARK INTER + INTRA:          -7.864
REMARK INTER:                  -7.603
REMARK INTRA:                  -0.262
REMARK UNBOUND:                -0.677
REMARK  Name = 
REMARK  4 active torsions:
REMARK  status: ('A' for Active; 'I' for Inactive)
REMARK    1  A    between atoms: O_1  and  C_2
REMARK    2  A    between atoms: C_2  and  C_3
REMARK    3  A    between atoms: C_7  and  O_8
REMARK    4  A    between atoms: O_8  and  C_9
REMARK                            x       y       z     vdW  Elec       q    Type
REMARK                         _______ _______ _______ _____ _____    ______ ____
ROOT
ATOM      1  C   UNL     1      46.986   5.106  14.296  0.00  0.00    +0.000 A 
ATOM      2  C   UNL     1      47.692   6.220  13.801  0.00  0.00    +0.000 A 
ATOM      3  C   UNL     1      47.314   6.856  12.618  0.00  0.00    +0.000 A 
ATOM      4  C   UNL     1      46.227   6.378  11.892  0.00  0.00    +0.000 A 
ATOM      5  C   UNL     1      45.555   5.233  12.319  0.00  0.00    +0.000 A 
ATOM      6  C   UNL     1      45.916   4.616  13.523  0.00  0.00    +0.000 A 
ENDROOT
BRANCH   1   7
ATOM      7  C   UNL     1      47.406   4.462  15.624  0.00  0.00    +0.000 C 
ATOM      8  C   UNL     1      48.418   5.351  16.377  0.00  0.00    +0.000 C 
ATOM      9  C   UNL     1      48.984   4.650  17.610  0.00  0.00    +0.000 C 
ATOM     10  N   UNL     1      49.583   3.364  17.256  0.00  0.00    +0.000 NA
ATOM     11  C   UNL     1      48.575   2.472  16.676  0.00  0.00    +0.000 C 
ATOM     12  C   UNL     1      47.993   3.058  15.391  0.00  0.00    +0.000 C 
ATOM     13  H   UNL     1      49.959   2.930  18.100  0.00  0.00    +0.000 HD
BRANCH   7  14
ATOM     14  O   UNL     1      46.260   4.305  16.478  0.00  0.00    +0.000 OA
ATOM     15  H   UNL     1      45.694   3.625  16.070  0.00  0.00    +0.000 HD
ENDBRANCH   7  14
ENDBRANCH   1   7
BRANCH   5  16
ATOM     16  O   UNL     1      44.479   4.702  11.641  0.00  0.00    +0.000 OA
BRANCH  16  17
ATOM     17  C   UNL     1      44.736   4.006  10.464  0.00  0.00    +0.000 A 
ATOM     18  C   UNL     1      45.269   4.739   9.414  0.00  0.00    +0.000 A 
ATOM     19  C   UNL     1      45.555   4.072   8.224  0.00  0.00    +0.000 A 
ATOM     20  C   UNL     1      45.295   2.709   8.128  0.00  0.00    +0.000 A 
ATOM     21  C   UNL     1      44.740   2.067   9.222  0.00  0.00    +0.000 A 
ATOM     22  N   UNL     1      44.445   2.688  10.381  0.00  0.00    +0.000 NA
ENDBRANCH  16  17
ENDBRANCH   5  16
TORSDOF 4
ENDMDL
