MODEL 1
REMARK VINA RESULT:    -7.676      0.000      0.000
REMARK INTER + INTRA:         -12.344
REMARK INTER:                 -11.042
REMARK INTRA:                  -1.302
REMARK UNBOUND:                -1.302
REMARK  Name = 
REMARK  8 active torsions:
REMARK  status: ('A' for Active; 'I' for Inactive)
REMARK    1  A    between atoms: N_1  and  C_2
REMARK    2  A    between atoms: C_9  and  C_10
REMARK    3  A    between atoms: N_12  and  C_13
REMARK    4  A    between atoms: C_13  and  C_14
REMARK    5  A    between atoms: C_17  and  N_18
REMARK    6  A    between atoms: N_18  and  C_19
REMARK    7  A    between atoms: C_19  and  C_20
REMARK    8  A    between atoms: C_20  and  C_21
REMARK                            x       y       z     vdW  Elec       q    Type
REMARK                         _______ _______ _______ _____ _____    ______ ____
ROOT
ATOM      1  C   UNL     1      48.095   7.374  13.493  0.00  0.00    +0.000 C 
ENDROOT
BRANCH   1   2
ATOM      2  C   UNL     1      46.904   6.479  13.296  0.00  0.00    +0.000 A 
ATOM      3  C   UNL     1      47.024   5.097  13.457  0.00  0.00    +0.000 A 
ATOM      4  C   UNL     1      45.919   4.258  13.269  0.00  0.00    +0.000 A 
ATOM      5  C   UNL     1      44.662   4.769  12.929  0.00  0.00    +0.000 A 
ATOM      6  C   UNL     1      44.566   6.152  12.716  0.00  0.00    +0.000 A 
ATOM      7  C   UNL     1      45.665   7.000  12.911  0.00  0.00    +0.000 A 
BRANCH   5   8
ATOM      8  N   UNL     1      43.549   3.955  12.659  0.00  0.00    +0.000 N 
ATOM      9  H   UNL     1      43.265   3.436  13.487  0.00  0.00    +0.000 HD
BRANCH   8  10
ATOM     10  C   UNL     1      43.591   3.120  11.454  0.00  0.00    +0.000 C 
BRANCH  10  11
ATOM     11  C   UNL     1      43.719   3.985  10.195  0.00  0.00    +0.000 C 
BRANCH  11  12
ATOM     12  C   UNL     1      44.753   3.432   9.241  0.00  0.00    +0.000 A 
ATOM     13  C   UNL     1      45.031   2.058   9.206  0.00  0.00    +0.000 A 
ATOM     14  C   UNL     1      46.004   1.552   8.339  0.00  0.00    +0.000 A 
ATOM     15  C   UNL     1      46.714   2.418   7.513  0.00  0.00    +0.000 A 
ATOM     16 CL   UNL     1      47.919   1.796   6.453  0.00  0.00    +0.000 Cl
ATOM     17  C   UNL     1      46.455   3.788   7.541  0.00  0.00    +0.000 A 
ATOM     18  C   UNL     1      45.477   4.293   8.401  0.00  0.00    +0.000 A 
ENDBRANCH  11  12
ENDBRANCH  10  11
ENDBRANCH   8  10
ENDBRANCH   5   8
ENDBRANCH   1   2
BRANCH   1  21
ATOM     19  C   UNL     1      48.890   7.355  15.803  0.00  0.00    +0.000 C 
ATOM     20  O   UNL     1      49.575   6.362  15.580  0.00  0.00    +0.000 OA
ATOM     21  N   UNL     1      48.126   7.944  14.819  0.00  0.00    +0.000 N 
ATOM     22  H   UNL     1      47.461   8.670  15.047  0.00  0.00    +0.000 HD
BRANCH  19  30
ATOM     23  C   UNL     1      47.666   6.128  18.583  0.00  0.00    +0.000 A 
ATOM     24  N   UNL     1      47.302   5.776  19.837  0.00  0.00    +0.000 NA
ATOM     25  C   UNL     1      47.504   6.619  20.863  0.00  0.00    +0.000 A 
ATOM     26  C   UNL     1      48.079   7.863  20.737  0.00  0.00    +0.000 A 
ATOM     27  C   UNL     1      48.486   8.224  19.448  0.00  0.00    +0.000 A 
ATOM     28  S   UNL     1      49.227   9.710  19.009  0.00  0.00    +0.000 S 
ATOM     29  C   UNL     1      49.351   9.251  17.379  0.00  0.00    +0.000 A 
ATOM     30  C   UNL     1      48.839   7.990  17.126  0.00  0.00    +0.000 A 
ATOM     31  C   UNL     1      48.311   7.375  18.347  0.00  0.00    +0.000 A 
BRANCH  23  32
ATOM     32  N   UNL     1      47.333   5.214  17.596  0.00  0.00    +0.000 N 
ATOM     33  H   UNL     1      48.014   5.226  16.848  0.00  0.00    +0.000 HD
ATOM     34  H   UNL     1      46.354   5.227  17.309  0.00  0.00    +0.000 HD
ENDBRANCH  23  32
ENDBRANCH  19  30
ENDBRANCH   1  21
TORSDOF 8
ENDMDL
MODEL 2
REMARK VINA RESULT:    -7.572      2.230      2.596
REMARK INTER + INTRA:         -12.194
REMARK INTER:                 -10.711
REMARK INTRA:                  -1.483
REMARK UNBOUND:                -1.302
REMARK  Name = 
REMARK  8 active torsions:
REMARK  status: ('A' for Active; 'I' for Inactive)
REMARK    1  A    between atoms: N_1  and  C_2
REMARK    2  A    between atoms: C_9  and  C_10
REMARK    3  A    between atoms: N_12  and  C_13
REMARK    4  A    between atoms: C_13  and  C_14
REMARK    5  A    between atoms: C_17  and  N_18
REMARK    6  A    between atoms: N_18  and  C_19
REMARK    7  A    between atoms: C_19  and  C_20
REMARK    8  A    between atoms: C_20  and  C_21
REMARK                            x       y       z     vdW  Elec       q    Type
REMARK                         _______ _______ _______ _____ _____    ______ ____
ROOT
ATOM      1  C   UNL     1      48.808   7.429  12.410  0.00  0.00    +0.000 C 
ENDROOT
BRANCH   1   2
ATOM      2  C   UNL     1      47.381   6.977  12.556  0.00  0.00    +0.000 A 
ATOM      3  C   UNL     1      47.090   5.714  13.077  0.00  0.00    +0.000 A 
ATOM      4  C   UNL     1      45.764   5.285  13.210  0.00  0.00    +0.000 A 
ATOM      5  C   UNL     1      44.691   6.103  12.839  0.00  0.00    +0.000 A 
ATOM      6  C   UNL     1      44.996   7.346  12.266  0.00  0.00    +0.000 A 
ATOM      7  C   UNL     1      46.321   7.787  12.139  0.00  0.00    +0.000 A 
BRANCH   5   8
ATOM      8  N   UNL     1      43.351   5.681  12.886  0.00  0.00    +0.000 N 
ATOM      9  H   UNL     1      43.177   5.105  13.708  0.00  0.00    +0.000 HD
BRANCH   8  10
ATOM     10  C   UNL     1      42.771   5.113  11.665  0.00  0.00    +0.000 C 
BRANCH  10  11
ATOM     11  C   UNL     1      43.206   3.654  11.482  0.00  0.00    +0.000 C 
BRANCH  11  12
ATOM     12  C   UNL     1      44.125   3.490  10.293  0.00  0.00    +0.000 A 
ATOM     13  C   UNL     1      44.643   4.612   9.631  0.00  0.00    +0.000 A 
ATOM     14  C   UNL     1      45.475   4.458   8.518  0.00  0.00    +0.000 A 
ATOM     15  C   UNL     1      45.781   3.182   8.053  0.00  0.00    +0.000 A 
ATOM     16 CL   UNL     1      46.797   2.993   6.677  0.00  0.00    +0.000 Cl
ATOM     17  C   UNL     1      45.269   2.057   8.696  0.00  0.00    +0.000 A 
ATOM     18  C   UNL     1      44.444   2.210   9.813  0.00  0.00    +0.000 A 
ENDBRANCH  11  12
ENDBRANCH  10  11
ENDBRANCH   8  10
ENDBRANCH   5   8
ENDBRANCH   1   2
BRANCH   1  21
ATOM     19  C   UNL     1      49.780   7.614  14.644  0.00  0.00    +0.000 C 
ATOM     20  O   UNL     1      49.182   8.667  14.839  0.00  0.00    +0.000 OA
ATOM     21  N   UNL     1      49.646   6.912  13.466  0.00  0.00    +0.000 N 
ATOM     22  H   UNL     1      50.248   6.126  13.262  0.00  0.00    +0.000 HD
BRANCH  19  30
ATOM     23  C   UNL     1      49.025   5.454  16.988  0.00  0.00    +0.000 A 
ATOM     24  N   UNL     1      48.943   4.508  17.951  0.00  0.00    +0.000 NA
ATOM     25  C   UNL     1      50.039   4.137  18.632  0.00  0.00    +0.000 A 
ATOM     26  C   UNL     1      51.294   4.659  18.416  0.00  0.00    +0.000 A 
ATOM     27  C   UNL     1      51.395   5.615  17.401  0.00  0.00    +0.000 A 
ATOM     28  S   UNL     1      52.833   6.426  16.925  0.00  0.00    +0.000 S 
ATOM     29  C   UNL     1      52.025   7.305  15.718  0.00  0.00    +0.000 A 
ATOM     30  C   UNL     1      50.672   7.022  15.649  0.00  0.00    +0.000 A 
ATOM     31  C   UNL     1      50.285   6.027  16.652  0.00  0.00    +0.000 A 
BRANCH  23  32
ATOM     32  N   UNL     1      47.817   5.814  16.413  0.00  0.00    +0.000 N 
ATOM     33  H   UNL     1      47.041   5.411  16.922  0.00  0.00    +0.000 HD
ATOM     34  H   UNL     1      47.779   5.726  15.398  0.00  0.00    +0.000 HD
ENDBRANCH  23  32
ENDBRANCH  19  30
ENDBRANCH   1  21
TORSDOF 8
ENDMDL
MODEL 3
REMARK VINA RESULT:    -7.471      2.119      2.692
REMARK INTER + INTRA:         -12.049
REMARK INTER:                 -11.147
REMARK INTRA:                  -0.902
REMARK UNBOUND:                -1.302
REMARK  Name = 
REMARK  8 active torsions:
REMARK  status: ('A' for Active; 'I' for Inactive)
REMARK    1  A    between atoms: N_1  and  C_2
REMARK    2  A    between atoms: C_9  and  C_10
REMARK    3  A    between atoms: N_12  and  C_13
REMARK    4  A    between atoms: C_13  and  C_14
REMARK    5  A    between atoms: C_17  and  N_18
REMARK    6  A    between atoms: N_18  and  C_19
REMARK    7  A    between atoms: C_19  and  C_20
REMARK    8  A    between atoms: C_20  and  C_21
REMARK                            x       y       z     vdW  Elec       q    Type
REMARK                         _______ _______ _______ _____ _____    ______ ____
ROOT
ATOM      1  C   UNL     1      48.111   8.940  14.254  0.00  0.00    +0.000 C 
ENDROOT
BRANCH   1   2
ATOM      2  C   UNL     1      47.242   8.234  13.250  0.00  0.00    +0.000 A 
ATOM      3  C   UNL     1      45.870   8.491  13.198  0.00  0.00    +0.000 A 
ATOM      4  C   UNL     1      45.056   7.832  12.268  0.00  0.00    +0.000 A 
ATOM      5  C   UNL     1      45.583   6.909  11.359  0.00  0.00    +0.000 A 
ATOM      6  C   UNL     1      46.951   6.618  11.457  0.00  0.00    +0.000 A 
ATOM      7  C   UNL     1      47.775   7.280  12.378  0.00  0.00    +0.000 A 
BRANCH   5   8
ATOM      8  N   UNL     1      44.789   6.173  10.463  0.00  0.00    +0.000 N 
ATOM      9  H   UNL     1      43.946   6.688  10.214  0.00  0.00    +0.000 HD
BRANCH   8  10
ATOM     10  C   UNL     1      44.519   4.769  10.787  0.00  0.00    +0.000 C 
BRANCH  10  11
ATOM     11  C   UNL     1      43.891   4.044   9.590  0.00  0.00    +0.000 C 
BRANCH  11  12
ATOM     12  C   UNL     1      44.938   3.367   8.735  0.00  0.00    +0.000 A 
ATOM     13  C   UNL     1      45.612   4.080   7.732  0.00  0.00    +0.000 A 
ATOM     14  C   UNL     1      46.564   3.446   6.929  0.00  0.00    +0.000 A 
ATOM     15  C   UNL     1      46.836   2.093   7.113  0.00  0.00    +0.000 A 
ATOM     16 CL   UNL     1      48.001   1.311   6.117  0.00  0.00    +0.000 Cl
ATOM     17  C   UNL     1      46.170   1.370   8.100  0.00  0.00    +0.000 A 
ATOM     18  C   UNL     1      45.225   2.005   8.909  0.00  0.00    +0.000 A 
ENDBRANCH  11  12
ENDBRANCH  10  11
ENDBRANCH   8  10
ENDBRANCH   5   8
ENDBRANCH   1   2
BRANCH   1  21
ATOM     19  C   UNL     1      49.306   7.246  15.548  0.00  0.00    +0.000 C 
ATOM     20  O   UNL     1      50.108   7.085  14.634  0.00  0.00    +0.000 OA
ATOM     21  N   UNL     1      48.279   8.162  15.459  0.00  0.00    +0.000 N 
ATOM     22  H   UNL     1      47.546   8.185  16.154  0.00  0.00    +0.000 HD
BRANCH  19  30
ATOM     23  C   UNL     1      47.725   4.486  16.329  0.00  0.00    +0.000 A 
ATOM     24  N   UNL     1      47.247   3.314  16.807  0.00  0.00    +0.000 NA
ATOM     25  C   UNL     1      47.630   2.868  18.014  0.00  0.00    +0.000 A 
ATOM     26  C   UNL     1      48.511   3.531  18.837  0.00  0.00    +0.000 A 
ATOM     27  C   UNL     1      49.035   4.728  18.339  0.00  0.00    +0.000 A 
ATOM     28  S   UNL     1      50.148   5.752  19.153  0.00  0.00    +0.000 S 
ATOM     29  C   UNL     1      50.196   6.850  17.859  0.00  0.00    +0.000 A 
ATOM     30  C   UNL     1      49.382   6.485  16.801  0.00  0.00    +0.000 A 
ATOM     31  C   UNL     1      48.679   5.230  17.080  0.00  0.00    +0.000 A 
BRANCH  23  32
ATOM     32  N   UNL     1      47.195   4.884  15.112  0.00  0.00    +0.000 N 
ATOM     33  H   UNL     1      46.407   5.504  15.247  0.00  0.00    +0.000 HD
ATOM     34  H   UNL     1      47.062   4.134  14.434  0.00  0.00    +0.000 HD
ENDBRANCH  23  32
ENDBRANCH  19  30
ENDBRANCH   1  21
TORSDOF 8
ENDMDL
MODEL 4
REMARK VINA RESULT:    -7.307      1.760      2.318
REMARK INTER + INTRA:         -11.813
REMARK INTER:                 -10.729
REMARK INTRA:                  -1.083
REMARK UNBOUND:                -1.302
REMARK  Name = 
REMARK  8 active torsions:
REMARK  status: ('A' for Active; 'I' for Inactive)
REMARK    1  A    between atoms: N_1  and  C_2
REMARK    2  A    between atoms: C_9  and  C_10
REMARK    3  A    between atoms: N_12  and  C_13
REMARK    4  A    between atoms: C_13  and  C_14
REMARK    5  A    between atoms: C_17  and  N_18
REMARK    6  A    between atoms: N_18  and  C_19
REMARK    7  A    between atoms: C_19  and  C_20
REMARK    8  A    between atoms: C_20  and  C_21
REMARK                            x       y       z     vdW  Elec       q    Type
REMARK                         _______ _______ _______ _____ _____    ______ ____
ROOT
ATOM      1  C   UNL     1      47.960   6.591  13.817  0.00  0.00    +0.000 C 
ENDROOT
BRANCH   1   2
ATOM      2  C   UNL     1      46.811   6.034  13.024  0.00  0.00    +0.000 A 
ATOM      3  C   UNL     1      46.011   5.020  13.555  0.00  0.00    +0.000 A 
ATOM      4  C   UNL     1      44.943   4.493  12.817  0.00  0.00    +0.000 A 
ATOM      5  C   UNL     1      44.634   4.968  11.538  0.00  0.00    +0.000 A 
ATOM      6  C   UNL     1      45.476   5.947  10.993  0.00  0.00    +0.000 A 
ATOM      7  C   UNL     1      46.542   6.486  11.728  0.00  0.00    +0.000 A 
BRANCH   5   8
ATOM      8  N   UNL     1      43.619   4.415  10.738  0.00  0.00    +0.000 N 
ATOM      9  H   UNL     1      43.025   3.790  11.280  0.00  0.00    +0.000 HD
BRANCH   8  10
ATOM     10  C   UNL     1      44.006   3.846   9.443  0.00  0.00    +0.000 C 
BRANCH  10  11
ATOM     11  C   UNL     1      45.027   2.716   9.627  0.00  0.00    +0.000 C 
BRANCH  11  12
ATOM     12  C   UNL     1      45.780   2.430   8.348  0.00  0.00    +0.000 A 
ATOM     13  C   UNL     1      45.878   3.405   7.344  0.00  0.00    +0.000 A 
ATOM     14  C   UNL     1      46.556   3.130   6.152  0.00  0.00    +0.000 A 
ATOM     15  C   UNL     1      47.126   1.876   5.952  0.00  0.00    +0.000 A 
ATOM     16 CL   UNL     1      47.951   1.535   4.481  0.00  0.00    +0.000 Cl
ATOM     17  C   UNL     1      47.030   0.895   6.937  0.00  0.00    +0.000 A 
ATOM     18  C   UNL     1      46.360   1.171   8.131  0.00  0.00    +0.000 A 
ENDBRANCH  11  12
ENDBRANCH  10  11
ENDBRANCH   8  10
ENDBRANCH   5   8
ENDBRANCH   1   2
BRANCH   1  21
ATOM     19  C   UNL     1      48.899   6.569  16.073  0.00  0.00    +0.000 C 
ATOM     20  O   UNL     1      49.740   7.402  15.753  0.00  0.00    +0.000 OA
ATOM     21  N   UNL     1      47.954   6.111  15.179  0.00  0.00    +0.000 N 
ATOM     22  H   UNL     1      47.361   5.327  15.411  0.00  0.00    +0.000 HD
BRANCH  19  30
ATOM     23  C   UNL     1      47.782   8.002  18.798  0.00  0.00    +0.000 A 
ATOM     24  N   UNL     1      47.289   8.374  20.001  0.00  0.00    +0.000 NA
ATOM     25  C   UNL     1      47.312   7.519  21.037  0.00  0.00    +0.000 A 
ATOM     26  C   UNL     1      47.812   6.239  20.968  0.00  0.00    +0.000 A 
ATOM     27  C   UNL     1      48.296   5.835  19.720  0.00  0.00    +0.000 A 
ATOM     28  S   UNL     1      48.973   4.298  19.356  0.00  0.00    +0.000 S 
ATOM     29  C   UNL     1      49.232   4.716  17.731  0.00  0.00    +0.000 A 
ATOM     30  C   UNL     1      48.830   6.005  17.427  0.00  0.00    +0.000 A 
ATOM     31  C   UNL     1      48.282   6.683  18.605  0.00  0.00    +0.000 A 
BRANCH  23  32
ATOM     32  N   UNL     1      47.781   8.995  17.831  0.00  0.00    +0.000 N 
ATOM     33  H   UNL     1      48.389   9.758  18.096  0.00  0.00    +0.000 HD
ATOM     34  H   UNL     1      46.858   9.258  17.485  0.00  0.00    +0.000 HD
ENDBRANCH  23  32
ENDBRANCH  19  30
ENDBRANCH   1  21
TORSDOF 8
ENDMDL
MODEL 5
REMARK VINA RESULT:    -7.209      3.526      5.274
REMARK INTER + INTRA:         -11.671
REMARK INTER:                 -10.581
REMARK INTRA:                  -1.091
REMARK UNBOUND:                -1.302
REMARK  Name = 
REMARK  8 active torsions:
REMARK  status: ('A' for Active; 'I' for Inactive)
REMARK    1  A    between atoms: N_1  and  C_2
REMARK    2  A    between atoms: C_9  and  C_10
REMARK    3  A    between atoms: N_12  and  C_13
REMARK    4  A    between atoms: C_13  and  C_14
REMARK    5  A    between atoms: C_17  and  N_18
REMARK    6  A    between atoms: N_18  and  C_19
REMARK    7  A    between atoms: C_19  and  C_20
REMARK    8  A    between atoms: C_20  and  C_21
REMARK                            x       y       z     vdW  Elec       q    Type
REMARK                         _______ _______ _______ _____ _____    ______ ____
ROOT
ATOM      1  C   UNL     1      47.693   6.611  13.909  0.00  0.00    +0.000 C 
ENDROOT
BRANCH   1   2
ATOM      2  C   UNL     1      46.666   5.591  13.503  0.00  0.00    +0.000 A 
ATOM      3  C   UNL     1      45.328   5.958  13.348  0.00  0.00    +0.000 A 
ATOM      4  C   UNL     1      44.367   5.010  12.976  0.00  0.00    +0.000 A 
ATOM      5  C   UNL     1      44.711   3.675  12.736  0.00  0.00    +0.000 A 
ATOM      6  C   UNL     1      46.046   3.306  12.948  0.00  0.00    +0.000 A 
ATOM      7  C   UNL     1      47.017   4.251  13.311  0.00  0.00    +0.000 A 
BRANCH   5   8
ATOM      8  N   UNL     1      43.765   2.680  12.435  0.00  0.00    +0.000 N 
ATOM      9  H   UNL     1      43.870   1.876  13.051  0.00  0.00    +0.000 HD
BRANCH   8  10
ATOM     10  C   UNL     1      43.602   2.297  11.028  0.00  0.00    +0.000 C 
BRANCH  10  11
ATOM     11  C   UNL     1      43.914   3.479  10.102  0.00  0.00    +0.000 C 
BRANCH  11  12
ATOM     12  C   UNL     1      44.942   3.112   9.056  0.00  0.00    +0.000 A 
ATOM     13  C   UNL     1      45.380   1.787   8.919  0.00  0.00    +0.000 A 
ATOM     14  C   UNL     1      46.347   1.455   7.966  0.00  0.00    +0.000 A 
ATOM     15  C   UNL     1      46.892   2.447   7.156  0.00  0.00    +0.000 A 
ATOM     16 CL   UNL     1      48.091   2.039   5.990  0.00  0.00    +0.000 Cl
ATOM     17  C   UNL     1      46.473   3.770   7.285  0.00  0.00    +0.000 A 
ATOM     18  C   UNL     1      45.500   4.102   8.232  0.00  0.00    +0.000 A 
ENDBRANCH  11  12
ENDBRANCH  10  11
ENDBRANCH   8  10
ENDBRANCH   5   8
ENDBRANCH   1   2
BRANCH   1  21
ATOM     19  C   UNL     1      47.569   8.517  12.384  0.00  0.00    +0.000 C 
ATOM     20  O   UNL     1      48.182   7.894  11.524  0.00  0.00    +0.000 OA
ATOM     21  N   UNL     1      47.262   7.956  13.605  0.00  0.00    +0.000 N 
ATOM     22  H   UNL     1      46.885   8.521  14.353  0.00  0.00    +0.000 HD
BRANCH  19  30
ATOM     23  C   UNL     1      44.657   9.530  11.278  0.00  0.00    +0.000 A 
ATOM     24  N   UNL     1      43.506  10.149  10.932  0.00  0.00    +0.000 NA
ATOM     25  C   UNL     1      43.426  11.490  10.949  0.00  0.00    +0.000 A 
ATOM     26  C   UNL     1      44.463  12.319  11.312  0.00  0.00    +0.000 A 
ATOM     27  C   UNL     1      45.648  11.686  11.701  0.00  0.00    +0.000 A 
ATOM     28  S   UNL     1      47.091  12.476  12.197  0.00  0.00    +0.000 S 
ATOM     29  C   UNL     1      47.893  11.003  12.459  0.00  0.00    +0.000 A 
ATOM     30  C   UNL     1      47.112   9.896  12.176  0.00  0.00    +0.000 A 
ATOM     31  C   UNL     1      45.778  10.292  11.714  0.00  0.00    +0.000 A 
BRANCH  23  32
ATOM     32  N   UNL     1      44.646   8.150  11.142  0.00  0.00    +0.000 N 
ATOM     33  H   UNL     1      43.871   7.851  10.565  0.00  0.00    +0.000 HD
ATOM     34  H   UNL     1      44.785   7.631  12.008  0.00  0.00    +0.000 HD
ENDBRANCH  23  32
ENDBRANCH  19  30
ENDBRANCH   1  21
TORSDOF 8
ENDMDL
MODEL 6
REMARK VINA RESULT:    -7.029      2.012      2.438
REMARK INTER + INTRA:         -11.413
REMARK INTER:                 -10.494
REMARK INTRA:                  -0.919
REMARK UNBOUND:                -1.302
REMARK  Name = 
REMARK  8 active torsions:
REMARK  status: ('A' for Active; 'I' for Inactive)
REMARK    1  A    between atoms: N_1  and  C_2
REMARK    2  A    between atoms: C_9  and  C_10
REMARK    3  A    between atoms: N_12  and  C_13
REMARK    4  A    between atoms: C_13  and  C_14
REMARK    5  A    between atoms: C_17  and  N_18
REMARK    6  A    between atoms: N_18  and  C_19
REMARK    7  A    between atoms: C_19  and  C_20
REMARK    8  A    between atoms: C_20  and  C_21
REMARK                            x       y       z     vdW  Elec       q    Type
REMARK                         _______ _______ _______ _____ _____    ______ ____
ROOT
ATOM      1  C   UNL     1      48.634   6.454  14.597  0.00  0.00    +0.000 C 
ENDROOT
BRANCH   1   2
ATOM      2  C   UNL     1      47.375   6.035  13.890  0.00  0.00    +0.000 A 
ATOM      3  C   UNL     1      46.594   6.978  13.219  0.00  0.00    +0.000 A 
ATOM      4  C   UNL     1      45.417   6.594  12.565  0.00  0.00    +0.000 A 
ATOM      5  C   UNL     1      44.990   5.262  12.549  0.00  0.00    +0.000 A 
ATOM      6  C   UNL     1      45.752   4.333  13.272  0.00  0.00    +0.000 A 
ATOM      7  C   UNL     1      46.937   4.707  13.922  0.00  0.00    +0.000 A 
BRANCH   5   8
ATOM      8  N   UNL     1      43.778   4.850  11.969  0.00  0.00    +0.000 N 
ATOM      9  H   UNL     1      43.345   4.107  12.514  0.00  0.00    +0.000 HD
BRANCH   8  10
ATOM     10  C   UNL     1      43.772   4.572  10.529  0.00  0.00    +0.000 C 
BRANCH  10  11
ATOM     11  C   UNL     1      44.051   3.089  10.258  0.00  0.00    +0.000 C 
BRANCH  11  12
ATOM     12  C   UNL     1      45.032   2.904   9.124  0.00  0.00    +0.000 A 
ATOM     13  C   UNL     1      45.536   1.632   8.815  0.00  0.00    +0.000 A 
ATOM     14  C   UNL     1      46.460   1.466   7.779  0.00  0.00    +0.000 A 
ATOM     15  C   UNL     1      46.897   2.573   7.057  0.00  0.00    +0.000 A 
ATOM     16 CL   UNL     1      48.043   2.371   5.789  0.00  0.00    +0.000 Cl
ATOM     17  C   UNL     1      46.412   3.845   7.357  0.00  0.00    +0.000 A 
ATOM     18  C   UNL     1      45.482   4.010   8.386  0.00  0.00    +0.000 A 
ENDBRANCH  11  12
ENDBRANCH  10  11
ENDBRANCH   8  10
ENDBRANCH   5   8
ENDBRANCH   1   2
BRANCH   1  21
ATOM     19  C   UNL     1      48.712   5.401  16.800  0.00  0.00    +0.000 C 
ATOM     20  O   UNL     1      49.122   4.355  16.308  0.00  0.00    +0.000 OA
ATOM     21  N   UNL     1      48.453   6.513  16.028  0.00  0.00    +0.000 N 
ATOM     22  H   UNL     1      47.985   7.317  16.422  0.00  0.00    +0.000 HD
BRANCH  19  30
ATOM     23  C   UNL     1      50.805   4.834  19.255  0.00  0.00    +0.000 A 
ATOM     24  N   UNL     1      51.532   4.747  20.392  0.00  0.00    +0.000 NA
ATOM     25  C   UNL     1      50.982   5.068  21.575  0.00  0.00    +0.000 A 
ATOM     26  C   UNL     1      49.685   5.502  21.729  0.00  0.00    +0.000 A 
ATOM     27  C   UNL     1      48.935   5.625  20.556  0.00  0.00    +0.000 A 
ATOM     28  S   UNL     1      47.299   6.142  20.460  0.00  0.00    +0.000 S 
ATOM     29  C   UNL     1      47.275   5.992  18.769  0.00  0.00    +0.000 A 
ATOM     30  C   UNL     1      48.475   5.549  18.242  0.00  0.00    +0.000 A 
ATOM     31  C   UNL     1      49.466   5.317  19.297  0.00  0.00    +0.000 A 
BRANCH  23  32
ATOM     32  N   UNL     1      51.451   4.398  18.110  0.00  0.00    +0.000 N 
ATOM     33  H   UNL     1      51.051   3.530  17.778  0.00  0.00    +0.000 HD
ATOM     34  H   UNL     1      52.470   4.433  18.150  0.00  0.00    +0.000 HD
ENDBRANCH  23  32
ENDBRANCH  19  30
ENDBRANCH   1  21
TORSDOF 8
ENDMDL
MODEL 7
REMARK VINA RESULT:    -6.999      1.821      2.449
REMARK INTER + INTRA:         -11.369
REMARK INTER:                 -10.311
REMARK INTRA:                  -1.058
REMARK UNBOUND:                -1.302
REMARK  Name = 
REMARK  8 active torsions:
REMARK  status: ('A' for Active; 'I' for Inactive)
REMARK    1  A    between atoms: N_1  and  C_2
REMARK    2  A    between atoms: C_9  and  C_10
REMARK    3  A    between atoms: N_12  and  C_13
REMARK    4  A    between atoms: C_13  and  C_14
REMARK    5  A    between atoms: C_17  and  N_18
REMARK    6  A    between atoms: N_18  and  C_19
REMARK    7  A    between atoms: C_19  and  C_20
REMARK    8  A    between atoms: C_20  and  C_21
REMARK                            x       y       z     vdW  Elec       q    Type
REMARK                         _______ _______ _______ _____ _____    ______ ____
ROOT
ATOM      1  C   UNL     1      48.493   6.508  14.668  0.00  0.00    +0.000 C 
ENDROOT
BRANCH   1   2
ATOM      2  C   UNL     1      47.297   6.078  13.864  0.00  0.00    +0.000 A 
ATOM      3  C   UNL     1      46.686   6.967  12.977  0.00  0.00    +0.000 A 
ATOM      4  C   UNL     1      45.568   6.574  12.231  0.00  0.00    +0.000 A 
ATOM      5  C   UNL     1      45.035   5.285  12.336  0.00  0.00    +0.000 A 
ATOM      6  C   UNL     1      45.622   4.419  13.270  0.00  0.00    +0.000 A 
ATOM      7  C   UNL     1      46.747   4.802  14.015  0.00  0.00    +0.000 A 
BRANCH   5   8
ATOM      8  N   UNL     1      43.871   4.877  11.662  0.00  0.00    +0.000 N 
ATOM      9  H   UNL     1      43.374   4.162  12.189  0.00  0.00    +0.000 HD
BRANCH   8  10
ATOM     10  C   UNL     1      43.988   4.550  10.237  0.00  0.00    +0.000 C 
BRANCH  10  11
ATOM     11  C   UNL     1      44.258   3.054  10.041  0.00  0.00    +0.000 C 
BRANCH  11  12
ATOM     12  C   UNL     1      45.182   2.801   8.872  0.00  0.00    +0.000 A 
ATOM     13  C   UNL     1      45.758   1.538   8.676  0.00  0.00    +0.000 A 
ATOM     14  C   UNL     1      46.630   1.313   7.606  0.00  0.00    +0.000 A 
ATOM     15  C   UNL     1      46.942   2.354   6.736  0.00  0.00    +0.000 A 
ATOM     16 CL   UNL     1      48.023   2.080   5.425  0.00  0.00    +0.000 Cl
ATOM     17  C   UNL     1      46.383   3.618   6.921  0.00  0.00    +0.000 A 
ATOM     18  C   UNL     1      45.506   3.840   7.985  0.00  0.00    +0.000 A 
ENDBRANCH  11  12
ENDBRANCH  10  11
ENDBRANCH   8  10
ENDBRANCH   5   8
ENDBRANCH   1   2
BRANCH   1  21
ATOM     19  C   UNL     1      48.864   7.694  16.772  0.00  0.00    +0.000 C 
ATOM     20  O   UNL     1      49.779   8.338  16.270  0.00  0.00    +0.000 OA
ATOM     21  N   UNL     1      48.149   6.765  16.047  0.00  0.00    +0.000 N 
ATOM     22  H   UNL     1      47.496   6.144  16.505  0.00  0.00    +0.000 HD
BRANCH  19  30
ATOM     23  C   UNL     1      47.612  10.369  18.188  0.00  0.00    +0.000 A 
ATOM     24  N   UNL     1      47.008  11.323  18.932  0.00  0.00    +0.000 NA
ATOM     25  C   UNL     1      46.686  11.081  20.213  0.00  0.00    +0.000 A 
ATOM     26  C   UNL     1      46.926   9.889  20.856  0.00  0.00    +0.000 A 
ATOM     27  C   UNL     1      47.523   8.886  20.086  0.00  0.00    +0.000 A 
ATOM     28  S   UNL     1      47.933   7.310  20.635  0.00  0.00    +0.000 S 
ATOM     29  C   UNL     1      48.540   6.859  19.114  0.00  0.00    +0.000 A 
ATOM     30  C   UNL     1      48.458   7.869  18.172  0.00  0.00    +0.000 A 
ATOM     31  C   UNL     1      47.865   9.082  18.742  0.00  0.00    +0.000 A 
BRANCH  23  32
ATOM     32  N   UNL     1      47.971  10.761  16.908  0.00  0.00    +0.000 N 
ATOM     33  H   UNL     1      48.123   9.956  16.314  0.00  0.00    +0.000 HD
ATOM     34  H   UNL     1      48.683  11.490  16.864  0.00  0.00    +0.000 HD
ENDBRANCH  23  32
ENDBRANCH  19  30
ENDBRANCH   1  21
TORSDOF 8
ENDMDL
MODEL 8
REMARK VINA RESULT:    -6.956      3.559      4.150
REMARK INTER + INTRA:         -11.308
REMARK INTER:                 -10.257
REMARK INTRA:                  -1.051
REMARK UNBOUND:                -1.302
REMARK  Name = 
REMARK  8 active torsions:
REMARK  status: ('A' for Active; 'I' for Inactive)
REMARK    1  A    between atoms: N_1  and  C_2
REMARK    2  A    between atoms: C_9  and  C_10
REMARK    3  A    between atoms: N_12  and  C_13
REMARK    4  A    between atoms: C_13  and  C_14
REMARK    5  A    between atoms: C_17  and  N_18
REMARK    6  A    between atoms: N_18  and  C_19
REMARK    7  A    between atoms: C_19  and  C_20
REMARK    8  A    between atoms: C_20  and  C_21
REMARK                            x       y       z     vdW  Elec       q    Type
REMARK                         _______ _______ _______ _____ _____    ______ ____
ROOT
ATOM      1  C   UNL     1      48.786   6.828  16.263  0.00  0.00    +0.000 C 
ENDROOT
BRANCH   1   2
ATOM      2  C   UNL     1      48.022   6.184  15.140  0.00  0.00    +0.000 A 
ATOM      3  C   UNL     1      47.970   6.790  13.883  0.00  0.00    +0.000 A 
ATOM      4  C   UNL     1      47.254   6.198  12.835  0.00  0.00    +0.000 A 
ATOM      5  C   UNL     1      46.581   4.983  13.003  0.00  0.00    +0.000 A 
ATOM      6  C   UNL     1      46.595   4.412  14.284  0.00  0.00    +0.000 A 
ATOM      7  C   UNL     1      47.316   4.993  15.336  0.00  0.00    +0.000 A 
BRANCH   5   8
ATOM      8  N   UNL     1      45.792   4.396  12.000  0.00  0.00    +0.000 N 
ATOM      9  H   UNL     1      46.369   3.894  11.327  0.00  0.00    +0.000 HD
BRANCH   8  10
ATOM     10  C   UNL     1      44.772   5.232  11.358  0.00  0.00    +0.000 C 
BRANCH  10  11
ATOM     11  C   UNL     1      43.973   4.423  10.329  0.00  0.00    +0.000 C 
BRANCH  11  12
ATOM     12  C   UNL     1      44.880   3.697   9.362  0.00  0.00    +0.000 A 
ATOM     13  C   UNL     1      45.633   4.410   8.417  0.00  0.00    +0.000 A 
ATOM     14  C   UNL     1      46.454   3.735   7.509  0.00  0.00    +0.000 A 
ATOM     15  C   UNL     1      46.515   2.344   7.531  0.00  0.00    +0.000 A 
ATOM     16 CL   UNL     1      47.518   1.514   6.406  0.00  0.00    +0.000 Cl
ATOM     17  C   UNL     1      45.767   1.622   8.459  0.00  0.00    +0.000 A 
ATOM     18  C   UNL     1      44.953   2.296   9.372  0.00  0.00    +0.000 A 
ENDBRANCH  11  12
ENDBRANCH  10  11
ENDBRANCH   8  10
ENDBRANCH   5   8
ENDBRANCH   1   2
BRANCH   1  21
ATOM     19  C   UNL     1      50.182   5.482  17.751  0.00  0.00    +0.000 C 
ATOM     20  O   UNL     1      49.293   5.459  18.597  0.00  0.00    +0.000 OA
ATOM     21  N   UNL     1      50.018   6.128  16.545  0.00  0.00    +0.000 N 
ATOM     22  H   UNL     1      50.801   6.261  15.920  0.00  0.00    +0.000 HD
BRANCH  19  30
ATOM     23  C   UNL     1      50.889   2.299  17.448  0.00  0.00    +0.000 A 
ATOM     24  N   UNL     1      51.402   1.057  17.291  0.00  0.00    +0.000 NA
ATOM     25  C   UNL     1      52.713   0.837  17.483  0.00  0.00    +0.000 A 
ATOM     26  C   UNL     1      53.615   1.814  17.837  0.00  0.00    +0.000 A 
ATOM     27  C   UNL     1      53.099   3.106  17.972  0.00  0.00    +0.000 A 
ATOM     28  S   UNL     1      53.997   4.506  18.403  0.00  0.00    +0.000 S 
ATOM     29  C   UNL     1      52.628   5.505  18.304  0.00  0.00    +0.000 A 
ATOM     30  C   UNL     1      51.476   4.821  17.957  0.00  0.00    +0.000 A 
ATOM     31  C   UNL     1      51.742   3.392  17.768  0.00  0.00    +0.000 A 
BRANCH  23  32
ATOM     32  N   UNL     1      49.513   2.388  17.305  0.00  0.00    +0.000 N 
ATOM     33  H   UNL     1      49.245   2.309  16.332  0.00  0.00    +0.000 HD
ATOM     34  H   UNL     1      49.073   3.145  17.829  0.00  0.00    +0.000 HD
ENDBRANCH  23  32
ENDBRANCH  19  30
ENDBRANCH   1  21
TORSDOF 8
ENDMDL
MODEL 9
REMARK VINA RESULT:    -6.933      1.783      2.006
REMARK INTER + INTRA:         -11.275
REMARK INTER:                  -9.843
REMARK INTRA:                  -1.432
REMARK UNBOUND:                -1.302
REMARK  Name = 
REMARK  8 active torsions:
REMARK  status: ('A' for Active; 'I' for Inactive)
REMARK    1  A    between atoms: N_1  and  C_2
REMARK    2  A    between atoms: C_9  and  C_10
REMARK    3  A    between atoms: N_12  and  C_13
REMARK    4  A    between atoms: C_13  and  C_14
REMARK    5  A    between atoms: C_17  and  N_18
REMARK    6  A    between atoms: N_18  and  C_19
REMARK    7  A    between atoms: C_19  and  C_20
REMARK    8  A    between atoms: C_20  and  C_21
REMARK                            x       y       z     vdW  Elec       q    Type
REMARK                         _______ _______ _______ _____ _____    ______ ____
ROOT
ATOM      1  C   UNL     1      49.382   7.260  12.846  0.00  0.00    +0.000 C 
ENDROOT
BRANCH   1   2
ATOM      2  C   UNL     1      48.019   6.655  12.656  0.00  0.00    +0.000 A 
ATOM      3  C   UNL     1      47.500   5.771  13.605  0.00  0.00    +0.000 A 
ATOM      4  C   UNL     1      46.234   5.199  13.431  0.00  0.00    +0.000 A 
ATOM      5  C   UNL     1      45.444   5.499  12.315  0.00  0.00    +0.000 A 
ATOM      6  C   UNL     1      45.997   6.344  11.343  0.00  0.00    +0.000 A 
ATOM      7  C   UNL     1      47.260   6.928  11.514  0.00  0.00    +0.000 A 
BRANCH   5   8
ATOM      8  N   UNL     1      44.202   4.890  12.067  0.00  0.00    +0.000 N 
ATOM      9  H   UNL     1      44.087   4.050  12.631  0.00  0.00    +0.000 HD
BRANCH   8  10
ATOM     10  C   UNL     1      43.808   4.690  10.669  0.00  0.00    +0.000 C 
BRANCH  10  11
ATOM     11  C   UNL     1      43.925   3.212  10.275  0.00  0.00    +0.000 C 
BRANCH  11  12
ATOM     12  C   UNL     1      44.948   3.004   9.183  0.00  0.00    +0.000 A 
ATOM     13  C   UNL     1      45.444   1.723   8.902  0.00  0.00    +0.000 A 
ATOM     14  C   UNL     1      46.406   1.537   7.906  0.00  0.00    +0.000 A 
ATOM     15  C   UNL     1      46.890   2.632   7.196  0.00  0.00    +0.000 A 
ATOM     16 CL   UNL     1      48.084   2.404   5.977  0.00  0.00    +0.000 Cl
ATOM     17  C   UNL     1      46.414   3.913   7.468  0.00  0.00    +0.000 A 
ATOM     18  C   UNL     1      45.445   4.099   8.458  0.00  0.00    +0.000 A 
ENDBRANCH  11  12
ENDBRANCH  10  11
ENDBRANCH   8  10
ENDBRANCH   5   8
ENDBRANCH   1   2
BRANCH   1  21
ATOM     19  C   UNL     1      49.917   8.307  14.989  0.00  0.00    +0.000 C 
ATOM     20  O   UNL     1      49.607   9.410  14.550  0.00  0.00    +0.000 OA
ATOM     21  N   UNL     1      49.824   7.168  14.218  0.00  0.00    +0.000 N 
ATOM     22  H   UNL     1      50.213   6.293  14.540  0.00  0.00    +0.000 HD
BRANCH  19  30
ATOM     23  C   UNL     1      48.341   8.952  17.786  0.00  0.00    +0.000 A 
ATOM     24  N   UNL     1      47.838   9.061  19.037  0.00  0.00    +0.000 NA
ATOM     25  C   UNL     1      48.570   8.685  20.098  0.00  0.00    +0.000 A 
ATOM     26  C   UNL     1      49.843   8.169  20.011  0.00  0.00    +0.000 A 
ATOM     27  C   UNL     1      50.361   8.024  18.720  0.00  0.00    +0.000 A 
ATOM     28  S   UNL     1      51.916   7.411  18.326  0.00  0.00    +0.000 S 
ATOM     29  C   UNL     1      51.645   7.591  16.659  0.00  0.00    +0.000 A 
ATOM     30  C   UNL     1      50.400   8.117  16.362  0.00  0.00    +0.000 A 
ATOM     31  C   UNL     1      49.632   8.388  17.580  0.00  0.00    +0.000 A 
BRANCH  23  32
ATOM     32  N   UNL     1      47.528   9.449  16.780  0.00  0.00    +0.000 N 
ATOM     33  H   UNL     1      47.781   9.054  15.884  0.00  0.00    +0.000 HD
ATOM     34  H   UNL     1      47.387  10.459  16.799  0.00  0.00    +0.000 HD
ENDBRANCH  23  32
ENDBRANCH  19  30
ENDBRANCH   1  21
TORSDOF 8
ENDMDL
