MODEL 1
REMARK VINA RESULT:    -8.118      0.000      0.000
REMARK INTER + INTRA:         -12.354
REMARK INTER:                 -11.441
REMARK INTRA:                  -0.914
REMARK UNBOUND:                -0.914
REMARK  Name = 
REMARK  10 active torsions:
REMARK  status: ('A' for Active; 'I' for Inactive)
REMARK    1  A    between atoms: C_1  and  C_2
REMARK    2  A    between atoms: C_4  and  C_5
REMARK    3  A    between atoms: C_5  and  C_6
REMARK    4  A    between atoms: C_5  and  C_7
REMARK    5  A    between atoms: C_7  and  O_8
REMARK    6  A    between atoms: O_8  and  C_9
REMARK    7  A    between atoms: C_12  and  C_13
REMARK    8  A    between atoms: C_19  and  C_20
REMARK    9  A    between atoms: C_21  and  O_22
REMARK   10  A    between atoms: O_22  and  C_23
REMARK                            x       y       z     vdW  Elec       q    Type
REMARK                         _______ _______ _______ _____ _____    ______ ____
ROOT
ATOM      1  C   UNL     1      43.684   4.917  12.026  0.00  0.00    +0.000 C 
ATOM      2  C   UNL     1      42.991   6.159  11.442  0.00  0.00    +0.000 C 
ENDROOT
BRANCH   1   6
ATOM      3  C   UNL     1      47.251   4.074  15.421  0.00  0.00    +0.000 C 
ATOM      4  C   UNL     1      46.874   4.843  14.190  0.00  0.00    +0.000 A 
ATOM      5  C   UNL     1      45.597   4.575  13.646  0.00  0.00    +0.000 A 
ATOM      6  C   UNL     1      45.084   5.260  12.533  0.00  0.00    +0.000 A 
ATOM      7  C   UNL     1      45.910   6.208  11.928  0.00  0.00    +0.000 A 
ATOM      8  C   UNL     1      47.195   6.481  12.423  0.00  0.00    +0.000 A 
ATOM      9  C   UNL     1      48.051   7.486  11.698  0.00  0.00    +0.000 C 
ATOM     10  C   UNL     1      47.674   5.814  13.573  0.00  0.00    +0.000 A 
BRANCH  10  11
ATOM     11  O   UNL     1      48.863   6.322  14.039  0.00  0.00    +0.000 OA
BRANCH  11  12
ATOM     12  C   UNL     1      48.978   7.035  15.286  0.00  0.00    +0.000 C 
ATOM     13  C   UNL     1      49.244   8.545  15.110  0.00  0.00    +0.000 C 
ATOM     14  N   UNL     1      50.428   8.463  15.971  0.00  0.00    +0.000 NA
ATOM     15  C   UNL     1      50.309   7.001  16.057  0.00  0.00    +0.000 C 
ATOM     16  H   UNL     1      50.329   8.953  16.860  0.00  0.00    +0.000 HD
ENDBRANCH  11  12
ENDBRANCH  10  11
ENDBRANCH   1   6
BRANCH   1  17
ATOM     17  C   UNL     1      43.599   3.804  10.962  0.00  0.00    +0.000 C 
BRANCH  17  18
ATOM     18  O   UNL     1      43.726   4.335   9.639  0.00  0.00    +0.000 OA
BRANCH  18  19
ATOM     19  C   UNL     1      44.728   3.702   8.929  0.00  0.00    +0.000 A 
ATOM     20  C   UNL     1      44.902   2.343   9.145  0.00  0.00    +0.000 A 
ATOM     21  C   UNL     1      45.875   1.669   8.398  0.00  0.00    +0.000 A 
ATOM     22  C   UNL     1      46.630   2.385   7.462  0.00  0.00    +0.000 A 
ATOM     23  C   UNL     1      46.384   3.743   7.326  0.00  0.00    +0.000 A 
ATOM     24  N   UNL     1      45.457   4.415   8.045  0.00  0.00    +0.000 NA
BRANCH  22  25
ATOM     25  C   UNL     1      47.643   1.777   6.576  0.00  0.00    +0.000 C 
ATOM     26  N   UNL     1      48.783   2.490   6.334  0.00  0.00    +0.000 N 
ATOM     27  O   UNL     1      47.464   0.686   6.054  0.00  0.00    +0.000 OA
ATOM     28  H   UNL     1      48.882   3.472   6.552  0.00  0.00    +0.000 HD
ATOM     29  H   UNL     1      49.424   2.091   5.658  0.00  0.00    +0.000 HD
ENDBRANCH  22  25
ENDBRANCH  18  19
ENDBRANCH  17  18
ENDBRANCH   1  17
TORSDOF 7
ENDMDL
MODEL 2
REMARK VINA RESULT:    -8.096      0.443      1.758
REMARK INTER + INTRA:         -12.323
REMARK INTER:                 -11.374
REMARK INTRA:                  -0.949
REMARK UNBOUND:                -0.914
REMARK  Name = 
REMARK  10 active torsions:
REMARK  status: ('A' for Active; 'I' for Inactive)
REMARK    1  A    between atoms: C_1  and  C_2
REMARK    2  A    between atoms: C_4  and  C_5
REMARK    3  A    between atoms: C_5  and  C_6
REMARK    4  A    between atoms: C_5  and  C_7
REMARK    5  A    between atoms: C_7  and  O_8
REMARK    6  A    between atoms: O_8  and  C_9
REMARK    7  A    between atoms: C_12  and  C_13
REMARK    8  A    between atoms: C_19  and  C_20
REMARK    9  A    between atoms: C_21  and  O_22
REMARK   10  A    between atoms: O_22  and  C_23
REMARK                            x       y       z     vdW  Elec       q    Type
REMARK                         _______ _______ _______ _____ _____    ______ ____
ROOT
ATOM      1  C   UNL     1      43.613   5.000  12.014  0.00  0.00    +0.000 C 
ATOM      2  C   UNL     1      42.966   6.259  11.414  0.00  0.00    +0.000 C 
ENDROOT
BRANCH   1   6
ATOM      3  C   UNL     1      47.728   7.823  11.777  0.00  0.00    +0.000 C 
ATOM      4  C   UNL     1      47.026   6.720  12.513  0.00  0.00    +0.000 A 
ATOM      5  C   UNL     1      45.739   6.371  12.047  0.00  0.00    +0.000 A 
ATOM      6  C   UNL     1      44.989   5.318  12.596  0.00  0.00    +0.000 A 
ATOM      7  C   UNL     1      45.543   4.636  13.680  0.00  0.00    +0.000 A 
ATOM      8  C   UNL     1      46.807   4.974  14.188  0.00  0.00    +0.000 A 
ATOM      9  C   UNL     1      47.328   4.224  15.387  0.00  0.00    +0.000 C 
ATOM     10  C   UNL     1      47.565   6.005  13.590  0.00  0.00    +0.000 A 
BRANCH  10  11
ATOM     11  O   UNL     1      48.848   6.087  14.079  0.00  0.00    +0.000 OA
BRANCH  11  12
ATOM     12  C   UNL     1      49.308   7.181  14.896  0.00  0.00    +0.000 C 
ATOM     13  C   UNL     1      50.524   7.924  14.300  0.00  0.00    +0.000 C 
ATOM     14  N   UNL     1      51.282   7.732  15.540  0.00  0.00    +0.000 NA
ATOM     15  C   UNL     1      50.216   6.893  16.105  0.00  0.00    +0.000 C 
ATOM     16  H   UNL     1      51.464   8.594  16.053  0.00  0.00    +0.000 HD
ENDBRANCH  11  12
ENDBRANCH  10  11
ENDBRANCH   1   6
BRANCH   1  17
ATOM     17  C   UNL     1      43.569   3.904  10.930  0.00  0.00    +0.000 C 
BRANCH  17  18
ATOM     18  O   UNL     1      43.758   4.455   9.623  0.00  0.00    +0.000 OA
BRANCH  18  19
ATOM     19  C   UNL     1      44.742   3.782   8.923  0.00  0.00    +0.000 A 
ATOM     20  C   UNL     1      44.867   2.419   9.150  0.00  0.00    +0.000 A 
ATOM     21  C   UNL     1      45.820   1.707   8.413  0.00  0.00    +0.000 A 
ATOM     22  C   UNL     1      46.606   2.388   7.477  0.00  0.00    +0.000 A 
ATOM     23  C   UNL     1      46.408   3.754   7.330  0.00  0.00    +0.000 A 
ATOM     24  N   UNL     1      45.501   4.463   8.039  0.00  0.00    +0.000 NA
BRANCH  22  25
ATOM     25  C   UNL     1      47.602   1.740   6.602  0.00  0.00    +0.000 C 
ATOM     26  N   UNL     1      48.733   2.443   6.299  0.00  0.00    +0.000 N 
ATOM     27  O   UNL     1      47.417   0.622   6.141  0.00  0.00    +0.000 OA
ATOM     28  H   UNL     1      48.833   3.435   6.465  0.00  0.00    +0.000 HD
ATOM     29  H   UNL     1      49.362   2.012   5.631  0.00  0.00    +0.000 HD
ENDBRANCH  22  25
ENDBRANCH  18  19
ENDBRANCH  17  18
ENDBRANCH   1  17
TORSDOF 7
ENDMDL
MODEL 3
REMARK VINA RESULT:    -7.285      2.115      2.739
REMARK INTER + INTRA:         -11.180
REMARK INTER:                 -10.448
REMARK INTRA:                  -0.732
REMARK UNBOUND:                -0.914
REMARK  Name = 
REMARK  10 active torsions:
REMARK  status: ('A' for Active; 'I' for Inactive)
REMARK    1  A    between atoms: C_1  and  C_2
REMARK    2  A    between atoms: C_4  and  C_5
REMARK    3  A    between atoms: C_5  and  C_6
REMARK    4  A    between atoms: C_5  and  C_7
REMARK    5  A    between atoms: C_7  and  O_8
REMARK    6  A    between atoms: O_8  and  C_9
REMARK    7  A    between atoms: C_12  and  C_13
REMARK    8  A    between atoms: C_19  and  C_20
REMARK    9  A    between atoms: C_21  and  O_22
REMARK   10  A    between atoms: O_22  and  C_23
REMARK                            x       y       z     vdW  Elec       q    Type
REMARK                         _______ _______ _______ _____ _____    ______ ____
ROOT
ATOM      1  C   UNL     1      45.200   4.473  11.486  0.00  0.00    +0.000 C 
ATOM      2  C   UNL     1      45.343   3.431  12.608  0.00  0.00    +0.000 C 
ENDROOT
BRANCH   1   6
ATOM      3  C   UNL     1      48.792   6.991  13.876  0.00  0.00    +0.000 C 
ATOM      4  C   UNL     1      47.520   7.100  13.089  0.00  0.00    +0.000 A 
ATOM      5  C   UNL     1      46.958   5.889  12.627  0.00  0.00    +0.000 A 
ATOM      6  C   UNL     1      45.740   5.830  11.930  0.00  0.00    +0.000 A 
ATOM      7  C   UNL     1      45.102   7.040  11.654  0.00  0.00    +0.000 A 
ATOM      8  C   UNL     1      45.645   8.265  12.073  0.00  0.00    +0.000 A 
ATOM      9  C   UNL     1      44.926   9.538  11.705  0.00  0.00    +0.000 C 
ATOM     10  C   UNL     1      46.847   8.298  12.814  0.00  0.00    +0.000 A 
BRANCH  10  11
ATOM     11  O   UNL     1      47.146   9.546  13.308  0.00  0.00    +0.000 OA
BRANCH  11  12
ATOM     12  C   UNL     1      48.239  10.345  12.815  0.00  0.00    +0.000 C 
ATOM     13  C   UNL     1      47.795  11.710  12.245  0.00  0.00    +0.000 C 
ATOM     14  N   UNL     1      48.481  11.433  10.979  0.00  0.00    +0.000 NA
ATOM     15  C   UNL     1      48.808  10.068  11.413  0.00  0.00    +0.000 C 
ATOM     16  H   UNL     1      49.288  12.031  10.805  0.00  0.00    +0.000 HD
ENDBRANCH  11  12
ENDBRANCH  10  11
ENDBRANCH   1   6
BRANCH   1  17
ATOM     17  C   UNL     1      43.730   4.443  11.021  0.00  0.00    +0.000 C 
BRANCH  17  18
ATOM     18  O   UNL     1      43.629   4.573   9.599  0.00  0.00    +0.000 OA
BRANCH  18  19
ATOM     19  C   UNL     1      44.629   3.874   8.951  0.00  0.00    +0.000 A 
ATOM     20  C   UNL     1      44.638   2.494   9.093  0.00  0.00    +0.000 A 
ATOM     21  C   UNL     1      45.608   1.759   8.402  0.00  0.00    +0.000 A 
ATOM     22  C   UNL     1      46.526   2.438   7.593  0.00  0.00    +0.000 A 
ATOM     23  C   UNL     1      46.438   3.820   7.522  0.00  0.00    +0.000 A 
ATOM     24  N   UNL     1      45.516   4.550   8.190  0.00  0.00    +0.000 NA
BRANCH  22  25
ATOM     25  C   UNL     1      47.558   1.772   6.772  0.00  0.00    +0.000 C 
ATOM     26  N   UNL     1      48.656   2.503   6.419  0.00  0.00    +0.000 N 
ATOM     27  O   UNL     1      47.429   0.615   6.398  0.00  0.00    +0.000 OA
ATOM     28  H   UNL     1      48.708   3.508   6.508  0.00  0.00    +0.000 HD
ATOM     29  H   UNL     1      49.308   2.053   5.788  0.00  0.00    +0.000 HD
ENDBRANCH  22  25
ENDBRANCH  18  19
ENDBRANCH  17  18
ENDBRANCH   1  17
TORSDOF 7
ENDMDL
MODEL 4
REMARK VINA RESULT:    -6.975      2.044      2.876
REMARK INTER + INTRA:         -10.744
REMARK INTER:                  -9.898
REMARK INTRA:                  -0.846
REMARK UNBOUND:                -0.914
REMARK  Name = 
REMARK  10 active torsions:
REMARK  status: ('A' for Active; 'I' for Inactive)
REMARK    1  A    between atoms: C_1  and  C_2
REMARK    2  A    between atoms: C_4  and  C_5
REMARK    3  A    between atoms: C_5  and  C_6
REMARK    4  A    between atoms: C_5  and  C_7
REMARK    5  A    between atoms: C_7  and  O_8
REMARK    6  A    between atoms: O_8  and  C_9
REMARK    7  A    between atoms: C_12  and  C_13
REMARK    8  A    between atoms: C_19  and  C_20
REMARK    9  A    between atoms: C_21  and  O_22
REMARK   10  A    between atoms: O_22  and  C_23
REMARK                            x       y       z     vdW  Elec       q    Type
REMARK                         _______ _______ _______ _____ _____    ______ ____
ROOT
ATOM      1  C   UNL     1      44.662   4.764  11.985  0.00  0.00    +0.000 C 
ATOM      2  C   UNL     1      43.658   4.738  13.149  0.00  0.00    +0.000 C 
ENDROOT
BRANCH   1   6
ATOM      3  C   UNL     1      44.841   9.756  11.898  0.00  0.00    +0.000 C 
ATOM      4  C   UNL     1      45.640   8.492  12.022  0.00  0.00    +0.000 A 
ATOM      5  C   UNL     1      44.913   7.281  11.995  0.00  0.00    +0.000 A 
ATOM      6  C   UNL     1      45.529   6.020  12.040  0.00  0.00    +0.000 A 
ATOM      7  C   UNL     1      46.918   5.991  12.164  0.00  0.00    +0.000 A 
ATOM      8  C   UNL     1      47.672   7.174  12.224  0.00  0.00    +0.000 A 
ATOM      9  C   UNL     1      49.165   7.072  12.401  0.00  0.00    +0.000 C 
ATOM     10  C   UNL     1      47.036   8.432  12.129  0.00  0.00    +0.000 A 
BRANCH  10  11
ATOM     11  O   UNL     1      47.919   9.479  12.014  0.00  0.00    +0.000 OA
BRANCH  11  12
ATOM     12  C   UNL     1      48.092  10.478  13.037  0.00  0.00    +0.000 C 
ATOM     13  C   UNL     1      48.720  11.789  12.518  0.00  0.00    +0.000 C 
ATOM     14  N   UNL     1      49.774  11.718  13.535  0.00  0.00    +0.000 NA
ATOM     15  C   UNL     1      49.308  10.396  13.978  0.00  0.00    +0.000 C 
ATOM     16  H   UNL     1      49.718  12.449  14.243  0.00  0.00    +0.000 HD
ENDBRANCH  11  12
ENDBRANCH  10  11
ENDBRANCH   1   6
BRANCH   1  17
ATOM     17  C   UNL     1      43.860   4.545  10.686  0.00  0.00    +0.000 C 
BRANCH  17  18
ATOM     18  O   UNL     1      43.897   3.175  10.273  0.00  0.00    +0.000 OA
BRANCH  18  19
ATOM     19  C   UNL     1      44.756   2.987   9.207  0.00  0.00    +0.000 A 
ATOM     20  C   UNL     1      45.005   4.078   8.388  0.00  0.00    +0.000 A 
ATOM     21  C   UNL     1      45.913   3.927   7.334  0.00  0.00    +0.000 A 
ATOM     22  C   UNL     1      46.539   2.689   7.148  0.00  0.00    +0.000 A 
ATOM     23  C   UNL     1      46.217   1.657   8.018  0.00  0.00    +0.000 A 
ATOM     24  N   UNL     1      45.334   1.779   9.035  0.00  0.00    +0.000 NA
BRANCH  22  25
ATOM     25  C   UNL     1      47.555   2.421   6.111  0.00  0.00    +0.000 C 
ATOM     26  N   UNL     1      48.869   2.498   6.476  0.00  0.00    +0.000 N 
ATOM     27  O   UNL     1      47.239   2.162   4.958  0.00  0.00    +0.000 OA
ATOM     28  H   UNL     1      49.183   2.919   7.339  0.00  0.00    +0.000 HD
ATOM     29  H   UNL     1      49.546   2.393   5.730  0.00  0.00    +0.000 HD
ENDBRANCH  22  25
ENDBRANCH  18  19
ENDBRANCH  17  18
ENDBRANCH   1  17
TORSDOF 7
ENDMDL
MODEL 5
REMARK VINA RESULT:    -6.597      4.356      7.074
REMARK INTER + INTRA:         -10.211
REMARK INTER:                  -9.608
REMARK INTRA:                  -0.603
REMARK UNBOUND:                -0.914
REMARK  Name = 
REMARK  10 active torsions:
REMARK  status: ('A' for Active; 'I' for Inactive)
REMARK    1  A    between atoms: C_1  and  C_2
REMARK    2  A    between atoms: C_4  and  C_5
REMARK    3  A    between atoms: C_5  and  C_6
REMARK    4  A    between atoms: C_5  and  C_7
REMARK    5  A    between atoms: C_7  and  O_8
REMARK    6  A    between atoms: O_8  and  C_9
REMARK    7  A    between atoms: C_12  and  C_13
REMARK    8  A    between atoms: C_19  and  C_20
REMARK    9  A    between atoms: C_21  and  O_22
REMARK   10  A    between atoms: O_22  and  C_23
REMARK                            x       y       z     vdW  Elec       q    Type
REMARK                         _______ _______ _______ _____ _____    ______ ____
ROOT
ATOM      1  C   UNL     1      48.171   2.756  16.734  0.00  0.00    +0.000 C 
ATOM      2  C   UNL     1      47.261   2.796  17.973  0.00  0.00    +0.000 C 
ENDROOT
BRANCH   1   6
ATOM      3  C   UNL     1      51.840   5.879  18.054  0.00  0.00    +0.000 C 
ATOM      4  C   UNL     1      51.464   4.448  17.807  0.00  0.00    +0.000 A 
ATOM      5  C   UNL     1      50.119   4.202  17.449  0.00  0.00    +0.000 A 
ATOM      6  C   UNL     1      49.637   2.923  17.129  0.00  0.00    +0.000 A 
ATOM      7  C   UNL     1      50.534   1.859  17.222  0.00  0.00    +0.000 A 
ATOM      8  C   UNL     1      51.871   2.061  17.602  0.00  0.00    +0.000 A 
ATOM      9  C   UNL     1      52.777   0.863  17.724  0.00  0.00    +0.000 C 
ATOM     10  C   UNL     1      52.347   3.363  17.874  0.00  0.00    +0.000 A 
BRANCH  10  11
ATOM     11  O   UNL     1      53.711   3.416  18.045  0.00  0.00    +0.000 OA
BRANCH  11  12
ATOM     12  C   UNL     1      54.333   3.641  19.325  0.00  0.00    +0.000 C 
ATOM     13  C   UNL     1      54.948   2.367  19.943  0.00  0.00    +0.000 C 
ATOM     14  N   UNL     1      54.185   2.565  21.178  0.00  0.00    +0.000 NA
ATOM     15  C   UNL     1      53.460   3.700  20.592  0.00  0.00    +0.000 C 
ATOM     16  H   UNL     1      54.760   2.798  21.988  0.00  0.00    +0.000 HD
ENDBRANCH  11  12
ENDBRANCH  10  11
ENDBRANCH   1   6
BRANCH   1  17
ATOM     17  C   UNL     1      47.615   3.783  15.727  0.00  0.00    +0.000 C 
BRANCH  17  18
ATOM     18  O   UNL     1      47.575   3.245  14.401  0.00  0.00    +0.000 OA
BRANCH  18  19
ATOM     19  C   UNL     1      46.588   3.840  13.639  0.00  0.00    +0.000 A 
ATOM     20  C   UNL     1      46.516   5.226  13.658  0.00  0.00    +0.000 A 
ATOM     21  C   UNL     1      45.560   5.854  12.851  0.00  0.00    +0.000 A 
ATOM     22  C   UNL     1      44.719   5.067  12.055  0.00  0.00    +0.000 A 
ATOM     23  C   UNL     1      44.867   3.689  12.113  0.00  0.00    +0.000 A 
ATOM     24  N   UNL     1      45.777   3.062  12.893  0.00  0.00    +0.000 NA
BRANCH  22  25
ATOM     25  C   UNL     1      43.713   5.613  11.123  0.00  0.00    +0.000 C 
ATOM     26  N   UNL     1      43.324   6.911  11.297  0.00  0.00    +0.000 N 
ATOM     27  O   UNL     1      43.222   4.926  10.238  0.00  0.00    +0.000 OA
ATOM     28  H   UNL     1      43.525   7.444  12.131  0.00  0.00    +0.000 HD
ATOM     29  H   UNL     1      42.574   7.236  10.699  0.00  0.00    +0.000 HD
ENDBRANCH  22  25
ENDBRANCH  18  19
ENDBRANCH  17  18
ENDBRANCH   1  17
TORSDOF 7
ENDMDL
MODEL 6
REMARK VINA RESULT:    -6.556      1.475      2.550
REMARK INTER + INTRA:         -10.152
REMARK INTER:                  -9.482
REMARK INTRA:                  -0.671
REMARK UNBOUND:                -0.914
REMARK  Name = 
REMARK  10 active torsions:
REMARK  status: ('A' for Active; 'I' for Inactive)
REMARK    1  A    between atoms: C_1  and  C_2
REMARK    2  A    between atoms: C_4  and  C_5
REMARK    3  A    between atoms: C_5  and  C_6
REMARK    4  A    between atoms: C_5  and  C_7
REMARK    5  A    between atoms: C_7  and  O_8
REMARK    6  A    between atoms: O_8  and  C_9
REMARK    7  A    between atoms: C_12  and  C_13
REMARK    8  A    between atoms: C_19  and  C_20
REMARK    9  A    between atoms: C_21  and  O_22
REMARK   10  A    between atoms: O_22  and  C_23
REMARK                            x       y       z     vdW  Elec       q    Type
REMARK                         _______ _______ _______ _____ _____    ______ ____
ROOT
ATOM      1  C   UNL     1      45.072   6.122  11.921  0.00  0.00    +0.000 C 
ATOM      2  C   UNL     1      44.551   7.559  11.755  0.00  0.00    +0.000 C 
ENDROOT
BRANCH   1   6
ATOM      3  C   UNL     1      49.028   8.313  14.043  0.00  0.00    +0.000 C 
ATOM      4  C   UNL     1      48.103   7.132  14.076  0.00  0.00    +0.000 A 
ATOM      5  C   UNL     1      47.060   7.122  13.123  0.00  0.00    +0.000 A 
ATOM      6  C   UNL     1      46.156   6.055  12.994  0.00  0.00    +0.000 A 
ATOM      7  C   UNL     1      46.287   4.994  13.890  0.00  0.00    +0.000 A 
ATOM      8  C   UNL     1      47.294   4.983  14.869  0.00  0.00    +0.000 A 
ATOM      9  C   UNL     1      47.353   3.825  15.832  0.00  0.00    +0.000 C 
ATOM     10  C   UNL     1      48.222   6.044  14.951  0.00  0.00    +0.000 A 
BRANCH  10  11
ATOM     11  O   UNL     1      49.251   5.798  15.829  0.00  0.00    +0.000 OA
BRANCH  11  12
ATOM     12  C   UNL     1      49.392   6.488  17.086  0.00  0.00    +0.000 C 
ATOM     13  C   UNL     1      50.859   6.797  17.457  0.00  0.00    +0.000 C 
ATOM     14  N   UNL     1      50.698   6.135  18.754  0.00  0.00    +0.000 NA
ATOM     15  C   UNL     1      49.344   5.687  18.399  0.00  0.00    +0.000 C 
ATOM     16  H   UNL     1      50.743   6.768  19.552  0.00  0.00    +0.000 HD
ENDBRANCH  11  12
ENDBRANCH  10  11
ENDBRANCH   1   6
BRANCH   1  17
ATOM     17  C   UNL     1      45.469   5.617  10.518  0.00  0.00    +0.000 C 
BRANCH  17  18
ATOM     18  O   UNL     1      44.641   4.525  10.103  0.00  0.00    +0.000 OA
BRANCH  18  19
ATOM     19  C   UNL     1      45.276   3.732   9.166  0.00  0.00    +0.000 A 
ATOM     20  C   UNL     1      45.918   4.374   8.118  0.00  0.00    +0.000 A 
ATOM     21  C   UNL     1      46.614   3.594   7.186  0.00  0.00    +0.000 A 
ATOM     22  C   UNL     1      46.641   2.204   7.347  0.00  0.00    +0.000 A 
ATOM     23  C   UNL     1      45.961   1.659   8.426  0.00  0.00    +0.000 A 
ATOM     24  N   UNL     1      45.274   2.393   9.331  0.00  0.00    +0.000 NA
BRANCH  22  25
ATOM     25  C   UNL     1      47.385   1.282   6.467  0.00  0.00    +0.000 C 
ATOM     26  N   UNL     1      48.482   1.773   5.816  0.00  0.00    +0.000 N 
ATOM     27  O   UNL     1      47.026   0.125   6.302  0.00  0.00    +0.000 OA
ATOM     28  H   UNL     1      48.688   2.759   5.741  0.00  0.00    +0.000 HD
ATOM     29  H   UNL     1      48.926   1.147   5.155  0.00  0.00    +0.000 HD
ENDBRANCH  22  25
ENDBRANCH  18  19
ENDBRANCH  17  18
ENDBRANCH   1  17
TORSDOF 7
ENDMDL
MODEL 7
REMARK VINA RESULT:    -6.209      3.633      8.421
REMARK INTER + INTRA:          -9.664
REMARK INTER:                  -8.410
REMARK INTRA:                  -1.254
REMARK UNBOUND:                -0.914
REMARK  Name = 
REMARK  10 active torsions:
REMARK  status: ('A' for Active; 'I' for Inactive)
REMARK    1  A    between atoms: C_1  and  C_2
REMARK    2  A    between atoms: C_4  and  C_5
REMARK    3  A    between atoms: C_5  and  C_6
REMARK    4  A    between atoms: C_5  and  C_7
REMARK    5  A    between atoms: C_7  and  O_8
REMARK    6  A    between atoms: O_8  and  C_9
REMARK    7  A    between atoms: C_12  and  C_13
REMARK    8  A    between atoms: C_19  and  C_20
REMARK    9  A    between atoms: C_21  and  O_22
REMARK   10  A    between atoms: O_22  and  C_23
REMARK                            x       y       z     vdW  Elec       q    Type
REMARK                         _______ _______ _______ _____ _____    ______ ____
ROOT
ATOM      1  C   UNL     1      49.875   8.072  12.743  0.00  0.00    +0.000 C 
ATOM      2  C   UNL     1      49.979   9.099  11.603  0.00  0.00    +0.000 C 
ENDROOT
BRANCH   1   6
ATOM      3  C   UNL     1      46.997   4.352  14.427  0.00  0.00    +0.000 C 
ATOM      4  C   UNL     1      47.037   5.617  13.621  0.00  0.00    +0.000 A 
ATOM      5  C   UNL     1      48.283   6.278  13.546  0.00  0.00    +0.000 A 
ATOM      6  C   UNL     1      48.487   7.437  12.780  0.00  0.00    +0.000 A 
ATOM      7  C   UNL     1      47.381   7.964  12.113  0.00  0.00    +0.000 A 
ATOM      8  C   UNL     1      46.121   7.351  12.187  0.00  0.00    +0.000 A 
ATOM      9  C   UNL     1      44.959   7.997  11.476  0.00  0.00    +0.000 C 
ATOM     10  C   UNL     1      45.949   6.159  12.925  0.00  0.00    +0.000 A 
BRANCH  10  11
ATOM     11  O   UNL     1      44.712   5.585  12.746  0.00  0.00    +0.000 OA
BRANCH  11  12
ATOM     12  C   UNL     1      44.464   4.536  11.790  0.00  0.00    +0.000 C 
ATOM     13  C   UNL     1      43.069   4.621  11.132  0.00  0.00    +0.000 C 
ATOM     14  N   UNL     1      42.773   3.239  11.521  0.00  0.00    +0.000 NA
ATOM     15  C   UNL     1      44.024   3.147  12.287  0.00  0.00    +0.000 C 
ATOM     16  H   UNL     1      42.705   2.592  10.736  0.00  0.00    +0.000 HD
ENDBRANCH  11  12
ENDBRANCH  10  11
ENDBRANCH   1   6
BRANCH   1  17
ATOM     17  C   UNL     1      50.337   8.777  14.035  0.00  0.00    +0.000 C 
BRANCH  17  18
ATOM     18  O   UNL     1      51.121   7.904  14.855  0.00  0.00    +0.000 OA
BRANCH  18  19
ATOM     19  C   UNL     1      50.376   7.372  15.891  0.00  0.00    +0.000 A 
ATOM     20  C   UNL     1      49.426   8.193  16.480  0.00  0.00    +0.000 A 
ATOM     21  C   UNL     1      48.622   7.661  17.494  0.00  0.00    +0.000 A 
ATOM     22  C   UNL     1      48.801   6.326  17.873  0.00  0.00    +0.000 A 
ATOM     23  C   UNL     1      49.784   5.590  17.228  0.00  0.00    +0.000 A 
ATOM     24  N   UNL     1      50.578   6.088  16.253  0.00  0.00    +0.000 NA
BRANCH  22  25
ATOM     25  C   UNL     1      47.980   5.635  18.887  0.00  0.00    +0.000 C 
ATOM     26  N   UNL     1      46.672   5.383  18.581  0.00  0.00    +0.000 N 
ATOM     27  O   UNL     1      48.440   5.317  19.975  0.00  0.00    +0.000 OA
ATOM     28  H   UNL     1      46.190   5.814  17.805  0.00  0.00    +0.000 HD
ATOM     29  H   UNL     1      46.109   4.984  19.322  0.00  0.00    +0.000 HD
ENDBRANCH  22  25
ENDBRANCH  18  19
ENDBRANCH  17  18
ENDBRANCH   1  17
TORSDOF 7
ENDMDL
MODEL 8
REMARK VINA RESULT:    -6.076      3.025      8.271
REMARK INTER + INTRA:          -9.476
REMARK INTER:                  -7.990
REMARK INTRA:                  -1.486
REMARK UNBOUND:                -0.914
REMARK  Name = 
REMARK  10 active torsions:
REMARK  status: ('A' for Active; 'I' for Inactive)
REMARK    1  A    between atoms: C_1  and  C_2
REMARK    2  A    between atoms: C_4  and  C_5
REMARK    3  A    between atoms: C_5  and  C_6
REMARK    4  A    between atoms: C_5  and  C_7
REMARK    5  A    between atoms: C_7  and  O_8
REMARK    6  A    between atoms: O_8  and  C_9
REMARK    7  A    between atoms: C_12  and  C_13
REMARK    8  A    between atoms: C_19  and  C_20
REMARK    9  A    between atoms: C_21  and  O_22
REMARK   10  A    between atoms: O_22  and  C_23
REMARK                            x       y       z     vdW  Elec       q    Type
REMARK                         _______ _______ _______ _____ _____    ______ ____
ROOT
ATOM      1  C   UNL     1      49.312   8.109  13.493  0.00  0.00    +0.000 C 
ATOM      2  C   UNL     1      49.515   9.182  12.410  0.00  0.00    +0.000 C 
ENDROOT
BRANCH   1   6
ATOM      3  C   UNL     1      44.721   8.047  11.525  0.00  0.00    +0.000 C 
ATOM      4  C   UNL     1      45.764   7.253  12.253  0.00  0.00    +0.000 A 
ATOM      5  C   UNL     1      46.987   7.910  12.516  0.00  0.00    +0.000 A 
ATOM      6  C   UNL     1      48.032   7.315  13.241  0.00  0.00    +0.000 A 
ATOM      7  C   UNL     1      47.846   6.000  13.668  0.00  0.00    +0.000 A 
ATOM      8  C   UNL     1      46.656   5.305  13.401  0.00  0.00    +0.000 A 
ATOM      9  C   UNL     1      46.537   3.873  13.855  0.00  0.00    +0.000 C 
ATOM     10  C   UNL     1      45.598   5.939  12.711  0.00  0.00    +0.000 A 
BRANCH  10  11
ATOM     11  O   UNL     1      44.441   5.198  12.694  0.00  0.00    +0.000 OA
BRANCH  11  12
ATOM     12  C   UNL     1      43.932   4.563  11.506  0.00  0.00    +0.000 C 
ATOM     13  C   UNL     1      43.530   3.087  11.720  0.00  0.00    +0.000 C 
ATOM     14  N   UNL     1      44.388   2.664  10.610  0.00  0.00    +0.000 NA
ATOM     15  C   UNL     1      44.917   4.026  10.453  0.00  0.00    +0.000 C 
ATOM     16  H   UNL     1      43.877   2.309   9.803  0.00  0.00    +0.000 HD
ENDBRANCH  11  12
ENDBRANCH  10  11
ENDBRANCH   1   6
BRANCH   1  17
ATOM     17  C   UNL     1      49.418   8.815  14.860  0.00  0.00    +0.000 C 
BRANCH  17  18
ATOM     18  O   UNL     1      50.394   8.188  15.698  0.00  0.00    +0.000 OA
BRANCH  18  19
ATOM     19  C   UNL     1      49.858   7.124  16.398  0.00  0.00    +0.000 A 
ATOM     20  C   UNL     1      48.679   7.347  17.093  0.00  0.00    +0.000 A 
ATOM     21  C   UNL     1      48.088   6.271  17.764  0.00  0.00    +0.000 A 
ATOM     22  C   UNL     1      48.701   5.014  17.707  0.00  0.00    +0.000 A 
ATOM     23  C   UNL     1      49.882   4.896  16.990  0.00  0.00    +0.000 A 
ATOM     24  N   UNL     1      50.476   5.925  16.343  0.00  0.00    +0.000 NA
BRANCH  22  25
ATOM     25  C   UNL     1      48.146   3.793  18.324  0.00  0.00    +0.000 C 
ATOM     26  N   UNL     1      48.489   3.525  19.619  0.00  0.00    +0.000 N 
ATOM     27  O   UNL     1      47.424   3.030  17.697  0.00  0.00    +0.000 OA
ATOM     28  H   UNL     1      49.245   3.991  20.102  0.00  0.00    +0.000 HD
ATOM     29  H   UNL     1      48.165   2.641  19.993  0.00  0.00    +0.000 HD
ENDBRANCH  22  25
ENDBRANCH  18  19
ENDBRANCH  17  18
ENDBRANCH   1  17
TORSDOF 7
ENDMDL
MODEL 9
REMARK VINA RESULT:    -6.071      1.666      2.053
REMARK INTER + INTRA:          -9.470
REMARK INTER:                  -9.126
REMARK INTRA:                  -0.344
REMARK UNBOUND:                -0.914
REMARK  Name = 
REMARK  10 active torsions:
REMARK  status: ('A' for Active; 'I' for Inactive)
REMARK    1  A    between atoms: C_1  and  C_2
REMARK    2  A    between atoms: C_4  and  C_5
REMARK    3  A    between atoms: C_5  and  C_6
REMARK    4  A    between atoms: C_5  and  C_7
REMARK    5  A    between atoms: C_7  and  O_8
REMARK    6  A    between atoms: O_8  and  C_9
REMARK    7  A    between atoms: C_12  and  C_13
REMARK    8  A    between atoms: C_19  and  C_20
REMARK    9  A    between atoms: C_21  and  O_22
REMARK   10  A    between atoms: O_22  and  C_23
REMARK                            x       y       z     vdW  Elec       q    Type
REMARK                         _______ _______ _______ _____ _____    ______ ____
ROOT
ATOM      1  C   UNL     1      45.099   4.710  12.471  0.00  0.00    +0.000 C 
ATOM      2  C   UNL     1      43.794   5.379  12.931  0.00  0.00    +0.000 C 
ENDROOT
BRANCH   1   6
ATOM      3  C   UNL     1      47.948   2.927  16.167  0.00  0.00    +0.000 C 
ATOM      4  C   UNL     1      47.666   4.105  15.282  0.00  0.00    +0.000 A 
ATOM      5  C   UNL     1      46.643   3.941  14.321  0.00  0.00    +0.000 A 
ATOM      6  C   UNL     1      46.228   4.974  13.465  0.00  0.00    +0.000 A 
ATOM      7  C   UNL     1      46.904   6.190  13.557  0.00  0.00    +0.000 A 
ATOM      8  C   UNL     1      47.945   6.381  14.479  0.00  0.00    +0.000 A 
ATOM      9  C   UNL     1      48.661   7.707  14.497  0.00  0.00    +0.000 C 
ATOM     10  C   UNL     1      48.315   5.344  15.363  0.00  0.00    +0.000 A 
BRANCH  10  11
ATOM     11  O   UNL     1      49.213   5.745  16.324  0.00  0.00    +0.000 OA
BRANCH  11  12
ATOM     12  C   UNL     1      48.855   5.925  17.708  0.00  0.00    +0.000 C 
ATOM     13  C   UNL     1      47.337   5.815  17.970  0.00  0.00    +0.000 C 
ATOM     14  N   UNL     1      47.330   7.124  18.630  0.00  0.00    +0.000 NA
ATOM     15  C   UNL     1      48.740   7.348  18.282  0.00  0.00    +0.000 C 
ATOM     16  H   UNL     1      47.139   7.083  19.631  0.00  0.00    +0.000 HD
ENDBRANCH  11  12
ENDBRANCH  10  11
ENDBRANCH   1   6
BRANCH   1  17
ATOM     17  C   UNL     1      45.353   5.157  11.017  0.00  0.00    +0.000 C 
BRANCH  17  18
ATOM     18  O   UNL     1      44.521   4.443  10.098  0.00  0.00    +0.000 OA
BRANCH  18  19
ATOM     19  C   UNL     1      45.265   3.822   9.112  0.00  0.00    +0.000 A 
ATOM     20  C   UNL     1      45.276   2.435   9.101  0.00  0.00    +0.000 A 
ATOM     21  C   UNL     1      45.978   1.783   8.080  0.00  0.00    +0.000 A 
ATOM     22  C   UNL     1      46.636   2.549   7.111  0.00  0.00    +0.000 A 
ATOM     23  C   UNL     1      46.570   3.930   7.215  0.00  0.00    +0.000 A 
ATOM     24  N   UNL     1      45.907   4.580   8.199  0.00  0.00    +0.000 NA
BRANCH  22  25
ATOM     25  C   UNL     1      47.360   1.980   5.957  0.00  0.00    +0.000 C 
ATOM     26  N   UNL     1      46.696   1.908   4.765  0.00  0.00    +0.000 N 
ATOM     27  O   UNL     1      48.505   1.565   6.061  0.00  0.00    +0.000 OA
ATOM     28  H   UNL     1      45.696   2.025   4.677  0.00  0.00    +0.000 HD
ATOM     29  H   UNL     1      47.183   1.439   4.010  0.00  0.00    +0.000 HD
ENDBRANCH  22  25
ENDBRANCH  18  19
ENDBRANCH  17  18
ENDBRANCH   1  17
TORSDOF 7
ENDMDL
