MODEL 1
REMARK VINA RESULT:    -7.341      0.000      0.000
REMARK INTER + INTRA:          -9.547
REMARK INTER:                  -9.058
REMARK INTRA:                  -0.490
REMARK UNBOUND:                -0.490
REMARK  Name = 
REMARK  4 active torsions:
REMARK  status: ('A' for Active; 'I' for Inactive)
REMARK    1  A    between atoms: C_2  and  C_4
REMARK    2  A    between atoms: C_8  and  S_9
REMARK    3  A    between atoms: S_9  and  C_10
REMARK    4  A    between atoms: C_10  and  C_11
REMARK                            x       y       z     vdW  Elec       q    Type
REMARK                         _______ _______ _______ _____ _____    ______ ____
ROOT
ATOM      1  C   UNL     1      44.873   3.545  12.207  0.00  0.00    +0.000 C 
ENDROOT
BRANCH   1   2
ATOM      2  C   UNL     1      45.111   5.043  12.190  0.00  0.00    +0.000 A 
ATOM      3  C   UNL     1      44.146   5.912  11.692  0.00  0.00    +0.000 A 
ATOM      4  C   UNL     1      44.403   7.272  11.743  0.00  0.00    +0.000 A 
ATOM      5  N   UNL     1      45.529   7.815  12.260  0.00  0.00    +0.000 NA
ATOM      6  C   UNL     1      46.491   6.989  12.723  0.00  0.00    +0.000 A 
ATOM      7  N   UNL     1      47.586   7.515  13.376  0.00  0.00    +0.000 N 
ATOM      8  C   UNL     1      48.920   6.908  13.317  0.00  0.00    +0.000 C 
ATOM      9  C   UNL     1      49.637   7.166  14.653  0.00  0.00    +0.000 C 
ATOM     10  O   UNL     1      49.697   8.570  14.957  0.00  0.00    +0.000 OA
ATOM     11  C   UNL     1      48.370   9.125  15.023  0.00  0.00    +0.000 C 
ATOM     12  C   UNL     1      47.609   8.947  13.696  0.00  0.00    +0.000 C 
ATOM     13  C   UNL     1      46.308   5.608  12.656  0.00  0.00    +0.000 A 
ENDBRANCH   1   2
BRANCH   1  14
ATOM     14  S   UNL     1      43.944   2.957  10.742  0.00  0.00    +0.000 S 
BRANCH  14  19
ATOM     15  C   UNL     1      46.453   2.010   7.738  0.00  0.00    +0.000 A 
ATOM     16  C   UNL     1      46.749   3.230   7.125  0.00  0.00    +0.000 A 
ATOM     17  C   UNL     1      46.213   4.411   7.640  0.00  0.00    +0.000 A 
ATOM     18  C   UNL     1      45.371   4.379   8.758  0.00  0.00    +0.000 A 
ATOM     19  C   UNL     1      45.053   3.165   9.368  0.00  0.00    +0.000 A 
ATOM     20  C   UNL     1      45.608   1.984   8.851  0.00  0.00    +0.000 A 
BRANCH  15  22
ATOM     21  N   UNL     1      47.678   0.739   6.055  0.00  0.00    +0.000 N 
ATOM     22  C   UNL     1      46.969   0.714   7.222  0.00  0.00    +0.000 C 
ATOM     23  O   UNL     1      46.801  -0.334   7.830  0.00  0.00    +0.000 OA
ATOM     24  H   UNL     1      48.110  -0.135   5.782  0.00  0.00    +0.000 HD
ATOM     25  H   UNL     1      48.059   1.589   5.669  0.00  0.00    +0.000 HD
ENDBRANCH  15  22
ENDBRANCH  14  19
ENDBRANCH   1  14
TORSDOF 4
ENDMDL
MODEL 2
REMARK VINA RESULT:    -7.162      2.517      2.840
REMARK INTER + INTRA:          -9.327
REMARK INTER:                  -8.920
REMARK INTRA:                  -0.407
REMARK UNBOUND:                -0.490
REMARK  Name = 
REMARK  4 active torsions:
REMARK  status: ('A' for Active; 'I' for Inactive)
REMARK    1  A    between atoms: C_2  and  C_4
REMARK    2  A    between atoms: C_8  and  S_9
REMARK    3  A    between atoms: S_9  and  C_10
REMARK    4  A    between atoms: C_10  and  C_11
REMARK                            x       y       z     vdW  Elec       q    Type
REMARK                         _______ _______ _______ _____ _____    ______ ____
ROOT
ATOM      1  C   UNL     1      44.709   3.037  11.825  0.00  0.00    +0.000 C 
ENDROOT
BRANCH   1   2
ATOM      2  C   UNL     1      45.619   4.034  12.518  0.00  0.00    +0.000 A 
ATOM      3  C   UNL     1      45.836   5.296  11.976  0.00  0.00    +0.000 A 
ATOM      4  C   UNL     1      46.643   6.177  12.677  0.00  0.00    +0.000 A 
ATOM      5  N   UNL     1      47.225   5.896  13.865  0.00  0.00    +0.000 NA
ATOM      6  C   UNL     1      47.049   4.667  14.396  0.00  0.00    +0.000 A 
ATOM      7  N   UNL     1      47.517   4.399  15.666  0.00  0.00    +0.000 N 
ATOM      8  C   UNL     1      48.002   3.077  16.076  0.00  0.00    +0.000 C 
ATOM      9  C   UNL     1      47.677   2.875  17.566  0.00  0.00    +0.000 C 
ATOM     10  O   UNL     1      48.231   3.928  18.374  0.00  0.00    +0.000 OA
ATOM     11  C   UNL     1      47.718   5.206  17.952  0.00  0.00    +0.000 C 
ATOM     12  C   UNL     1      48.054   5.497  16.477  0.00  0.00    +0.000 C 
ATOM     13  C   UNL     1      46.285   3.722  13.713  0.00  0.00    +0.000 A 
ENDBRANCH   1   2
BRANCH   1  14
ATOM     14  S   UNL     1      43.948   3.710  10.302  0.00  0.00    +0.000 S 
BRANCH  14  19
ATOM     15  C   UNL     1      46.500   2.054   7.663  0.00  0.00    +0.000 A 
ATOM     16  C   UNL     1      47.097   3.140   7.018  0.00  0.00    +0.000 A 
ATOM     17  C   UNL     1      46.763   4.441   7.400  0.00  0.00    +0.000 A 
ATOM     18  C   UNL     1      45.824   4.663   8.414  0.00  0.00    +0.000 A 
ATOM     19  C   UNL     1      45.207   3.588   9.053  0.00  0.00    +0.000 A 
ATOM     20  C   UNL     1      45.560   2.283   8.673  0.00  0.00    +0.000 A 
BRANCH  15  22
ATOM     21  N   UNL     1      47.270   0.417   6.028  0.00  0.00    +0.000 N 
ATOM     22  C   UNL     1      46.791   0.645   7.286  0.00  0.00    +0.000 C 
ATOM     23  O   UNL     1      46.644  -0.277   8.076  0.00  0.00    +0.000 OA
ATOM     24  H   UNL     1      47.563  -0.532   5.832  0.00  0.00    +0.000 HD
ATOM     25  H   UNL     1      47.649   1.152   5.450  0.00  0.00    +0.000 HD
ENDBRANCH  15  22
ENDBRANCH  14  19
ENDBRANCH   1  14
TORSDOF 4
ENDMDL
MODEL 3
REMARK VINA RESULT:    -7.072      1.411      2.127
REMARK INTER + INTRA:          -9.215
REMARK INTER:                  -8.601
REMARK INTRA:                  -0.614
REMARK UNBOUND:                -0.490
REMARK  Name = 
REMARK  4 active torsions:
REMARK  status: ('A' for Active; 'I' for Inactive)
REMARK    1  A    between atoms: C_2  and  C_4
REMARK    2  A    between atoms: C_8  and  S_9
REMARK    3  A    between atoms: S_9  and  C_10
REMARK    4  A    between atoms: C_10  and  C_11
REMARK                            x       y       z     vdW  Elec       q    Type
REMARK                         _______ _______ _______ _____ _____    ______ ____
ROOT
ATOM      1  C   UNL     1      44.105   4.738  11.109  0.00  0.00    +0.000 C 
ENDROOT
BRANCH   1   2
ATOM      2  C   UNL     1      45.300   4.902  12.029  0.00  0.00    +0.000 A 
ATOM      3  C   UNL     1      45.720   3.857  12.845  0.00  0.00    +0.000 A 
ATOM      4  C   UNL     1      46.843   4.054  13.630  0.00  0.00    +0.000 A 
ATOM      5  N   UNL     1      47.572   5.194  13.647  0.00  0.00    +0.000 NA
ATOM      6  C   UNL     1      47.166   6.230  12.883  0.00  0.00    +0.000 A 
ATOM      7  N   UNL     1      47.962   7.352  12.776  0.00  0.00    +0.000 N 
ATOM      8  C   UNL     1      47.419   8.703  12.597  0.00  0.00    +0.000 C 
ATOM      9  C   UNL     1      48.407   9.521  11.748  0.00  0.00    +0.000 C 
ATOM     10  O   UNL     1      49.719   9.541  12.337  0.00  0.00    +0.000 OA
ATOM     11  C   UNL     1      50.223   8.199  12.481  0.00  0.00    +0.000 C 
ATOM     12  C   UNL     1      49.305   7.335  13.366  0.00  0.00    +0.000 C 
ATOM     13  C   UNL     1      46.015   6.108  12.105  0.00  0.00    +0.000 A 
ENDBRANCH   1   2
BRANCH   1  14
ATOM     14  S   UNL     1      44.066   3.105  10.281  0.00  0.00    +0.000 S 
BRANCH  14  19
ATOM     15  C   UNL     1      46.627   1.922   7.406  0.00  0.00    +0.000 A 
ATOM     16  C   UNL     1      47.116   3.110   6.857  0.00  0.00    +0.000 A 
ATOM     17  C   UNL     1      46.702   4.337   7.379  0.00  0.00    +0.000 A 
ATOM     18  C   UNL     1      45.790   4.384   8.440  0.00  0.00    +0.000 A 
ATOM     19  C   UNL     1      45.281   3.205   8.986  0.00  0.00    +0.000 A 
ATOM     20  C   UNL     1      45.714   1.976   8.464  0.00  0.00    +0.000 A 
BRANCH  15  22
ATOM     21  N   UNL     1      46.845  -0.488   7.708  0.00  0.00    +0.000 N 
ATOM     22  C   UNL     1      47.007   0.585   6.878  0.00  0.00    +0.000 C 
ATOM     23  O   UNL     1      47.414   0.435   5.735  0.00  0.00    +0.000 OA
ATOM     24  H   UNL     1      47.006  -1.397   7.292  0.00  0.00    +0.000 HD
ATOM     25  H   UNL     1      46.278  -0.449   8.542  0.00  0.00    +0.000 HD
ENDBRANCH  15  22
ENDBRANCH  14  19
ENDBRANCH   1  14
TORSDOF 4
ENDMDL
MODEL 4
REMARK VINA RESULT:    -6.665      3.788      7.747
REMARK INTER + INTRA:          -8.713
REMARK INTER:                  -8.052
REMARK INTRA:                  -0.661
REMARK UNBOUND:                -0.490
REMARK  Name = 
REMARK  4 active torsions:
REMARK  status: ('A' for Active; 'I' for Inactive)
REMARK    1  A    between atoms: C_2  and  C_4
REMARK    2  A    between atoms: C_8  and  S_9
REMARK    3  A    between atoms: S_9  and  C_10
REMARK    4  A    between atoms: C_10  and  C_11
REMARK                            x       y       z     vdW  Elec       q    Type
REMARK                         _______ _______ _______ _____ _____    ______ ____
ROOT
ATOM      1  C   UNL     1      49.262   7.157  13.866  0.00  0.00    +0.000 C 
ENDROOT
BRANCH   1   2
ATOM      2  C   UNL     1      47.814   7.364  13.464  0.00  0.00    +0.000 A 
ATOM      3  C   UNL     1      47.251   8.635  13.460  0.00  0.00    +0.000 A 
ATOM      4  C   UNL     1      45.938   8.766  13.042  0.00  0.00    +0.000 A 
ATOM      5  N   UNL     1      45.167   7.738  12.620  0.00  0.00    +0.000 NA
ATOM      6  C   UNL     1      45.684   6.491  12.642  0.00  0.00    +0.000 A 
ATOM      7  N   UNL     1      44.970   5.446  12.092  0.00  0.00    +0.000 N 
ATOM      8  C   UNL     1      45.040   4.074  12.606  0.00  0.00    +0.000 C 
ATOM      9  C   UNL     1      44.858   3.099  11.430  0.00  0.00    +0.000 C 
ATOM     10  O   UNL     1      43.631   3.349  10.723  0.00  0.00    +0.000 OA
ATOM     11  C   UNL     1      43.608   4.698  10.221  0.00  0.00    +0.000 C 
ATOM     12  C   UNL     1      43.735   5.733  11.355  0.00  0.00    +0.000 C 
ATOM     13  C   UNL     1      46.987   6.291  13.097  0.00  0.00    +0.000 A 
ENDBRANCH   1   2
BRANCH   1  14
ATOM     14  S   UNL     1      49.683   7.974  15.450  0.00  0.00    +0.000 S 
BRANCH  14  19
ATOM     15  C   UNL     1      47.890   4.876  17.298  0.00  0.00    +0.000 A 
ATOM     16  C   UNL     1      47.540   5.370  18.558  0.00  0.00    +0.000 A 
ATOM     17  C   UNL     1      47.809   6.702  18.879  0.00  0.00    +0.000 A 
ATOM     18  C   UNL     1      48.440   7.541  17.953  0.00  0.00    +0.000 A 
ATOM     19  C   UNL     1      48.812   7.055  16.699  0.00  0.00    +0.000 A 
ATOM     20  C   UNL     1      48.525   5.718  16.380  0.00  0.00    +0.000 A 
BRANCH  15  22
ATOM     21  N   UNL     1      46.883   2.698  17.730  0.00  0.00    +0.000 N 
ATOM     22  C   UNL     1      47.657   3.462  16.904  0.00  0.00    +0.000 C 
ATOM     23  O   UNL     1      48.106   3.000  15.864  0.00  0.00    +0.000 OA
ATOM     24  H   UNL     1      46.649   1.774  17.387  0.00  0.00    +0.000 HD
ATOM     25  H   UNL     1      46.289   3.098  18.441  0.00  0.00    +0.000 HD
ENDBRANCH  15  22
ENDBRANCH  14  19
ENDBRANCH   1  14
TORSDOF 4
ENDMDL
MODEL 5
REMARK VINA RESULT:    -6.544      4.182      7.675
REMARK INTER + INTRA:          -8.564
REMARK INTER:                  -7.987
REMARK INTRA:                  -0.578
REMARK UNBOUND:                -0.490
REMARK  Name = 
REMARK  4 active torsions:
REMARK  status: ('A' for Active; 'I' for Inactive)
REMARK    1  A    between atoms: C_2  and  C_4
REMARK    2  A    between atoms: C_8  and  S_9
REMARK    3  A    between atoms: S_9  and  C_10
REMARK    4  A    between atoms: C_10  and  C_11
REMARK                            x       y       z     vdW  Elec       q    Type
REMARK                         _______ _______ _______ _____ _____    ______ ____
ROOT
ATOM      1  C   UNL     1      49.015   6.961  14.397  0.00  0.00    +0.000 C 
ENDROOT
BRANCH   1   2
ATOM      2  C   UNL     1      47.664   7.277  13.783  0.00  0.00    +0.000 A 
ATOM      3  C   UNL     1      47.282   8.592  13.542  0.00  0.00    +0.000 A 
ATOM      4  C   UNL     1      46.055   8.815  12.940  0.00  0.00    +0.000 A 
ATOM      5  N   UNL     1      45.206   7.834  12.555  0.00  0.00    +0.000 NA
ATOM      6  C   UNL     1      45.545   6.552  12.805  0.00  0.00    +0.000 A 
ATOM      7  N   UNL     1      44.765   5.530  12.304  0.00  0.00    +0.000 N 
ATOM      8  C   UNL     1      44.589   4.247  12.994  0.00  0.00    +0.000 C 
ATOM      9  C   UNL     1      44.414   3.142  11.939  0.00  0.00    +0.000 C 
ATOM     10  O   UNL     1      43.322   3.430  11.050  0.00  0.00    +0.000 OA
ATOM     11  C   UNL     1      43.539   4.686  10.380  0.00  0.00    +0.000 C 
ATOM     12  C   UNL     1      43.673   5.850  11.379  0.00  0.00    +0.000 C 
ATOM     13  C   UNL     1      46.748   6.268  13.450  0.00  0.00    +0.000 A 
ENDBRANCH   1   2
BRANCH   1  14
ATOM     14  S   UNL     1      48.982   6.969  16.228  0.00  0.00    +0.000 S 
BRANCH  14  19
ATOM     15  C   UNL     1      49.613   3.135  17.290  0.00  0.00    +0.000 A 
ATOM     16  C   UNL     1      48.338   2.625  17.548  0.00  0.00    +0.000 A 
ATOM     17  C   UNL     1      47.217   3.437  17.367  0.00  0.00    +0.000 A 
ATOM     18  C   UNL     1      47.364   4.763  16.942  0.00  0.00    +0.000 A 
ATOM     19  C   UNL     1      48.632   5.290  16.699  0.00  0.00    +0.000 A 
ATOM     20  C   UNL     1      49.753   4.462  16.870  0.00  0.00    +0.000 A 
BRANCH  15  22
ATOM     21  N   UNL     1      51.802   2.843  18.323  0.00  0.00    +0.000 N 
ATOM     22  C   UNL     1      50.848   2.332  17.490  0.00  0.00    +0.000 C 
ATOM     23  O   UNL     1      50.998   1.239  16.962  0.00  0.00    +0.000 OA
ATOM     24  H   UNL     1      52.583   2.231  18.529  0.00  0.00    +0.000 HD
ATOM     25  H   UNL     1      51.613   3.593  18.970  0.00  0.00    +0.000 HD
ENDBRANCH  15  22
ENDBRANCH  14  19
ENDBRANCH   1  14
TORSDOF 4
ENDMDL
MODEL 6
REMARK VINA RESULT:    -6.464      2.870      4.459
REMARK INTER + INTRA:          -8.465
REMARK INTER:                  -7.953
REMARK INTRA:                  -0.511
REMARK UNBOUND:                -0.490
REMARK  Name = 
REMARK  4 active torsions:
REMARK  status: ('A' for Active; 'I' for Inactive)
REMARK    1  A    between atoms: C_2  and  C_4
REMARK    2  A    between atoms: C_8  and  S_9
REMARK    3  A    between atoms: S_9  and  C_10
REMARK    4  A    between atoms: C_10  and  C_11
REMARK                            x       y       z     vdW  Elec       q    Type
REMARK                         _______ _______ _______ _____ _____    ______ ____
ROOT
ATOM      1  C   UNL     1      47.002   6.916  11.681  0.00  0.00    +0.000 C 
ENDROOT
BRANCH   1   2
ATOM      2  C   UNL     1      48.049   7.050  12.771  0.00  0.00    +0.000 A 
ATOM      3  C   UNL     1      49.161   7.868  12.594  0.00  0.00    +0.000 A 
ATOM      4  C   UNL     1      50.059   7.983  13.642  0.00  0.00    +0.000 A 
ATOM      5  N   UNL     1      49.920   7.362  14.836  0.00  0.00    +0.000 NA
ATOM      6  C   UNL     1      48.863   6.542  15.019  0.00  0.00    +0.000 A 
ATOM      7  N   UNL     1      48.625   6.005  16.266  0.00  0.00    +0.000 N 
ATOM      8  C   UNL     1      48.022   4.682  16.465  0.00  0.00    +0.000 C 
ATOM      9  C   UNL     1      47.185   4.712  17.756  0.00  0.00    +0.000 C 
ATOM     10  O   UNL     1      47.974   5.120  18.886  0.00  0.00    +0.000 OA
ATOM     11  C   UNL     1      48.534   6.428  18.660  0.00  0.00    +0.000 C 
ATOM     12  C   UNL     1      49.428   6.458  17.407  0.00  0.00    +0.000 C 
ATOM     13  C   UNL     1      47.949   6.351  13.983  0.00  0.00    +0.000 A 
ENDBRANCH   1   2
BRANCH   1  14
ATOM     14  S   UNL     1      45.291   7.044  12.320  0.00  0.00    +0.000 S 
BRANCH  14  19
ATOM     15  C   UNL     1      44.342   3.590  10.478  0.00  0.00    +0.000 A 
ATOM     16  C   UNL     1      43.620   2.867  11.431  0.00  0.00    +0.000 A 
ATOM     17  C   UNL     1      43.360   3.435  12.680  0.00  0.00    +0.000 A 
ATOM     18  C   UNL     1      43.830   4.717  12.987  0.00  0.00    +0.000 A 
ATOM     19  C   UNL     1      44.568   5.442  12.051  0.00  0.00    +0.000 A 
ATOM     20  C   UNL     1      44.812   4.869  10.793  0.00  0.00    +0.000 A 
BRANCH  15  22
ATOM     21  N   UNL     1      45.027   1.714   9.079  0.00  0.00    +0.000 N 
ATOM     22  C   UNL     1      44.677   3.033   9.141  0.00  0.00    +0.000 C 
ATOM     23  O   UNL     1      44.610   3.710   8.125  0.00  0.00    +0.000 OA
ATOM     24  H   UNL     1      45.144   1.331   8.149  0.00  0.00    +0.000 HD
ATOM     25  H   UNL     1      44.843   1.067   9.831  0.00  0.00    +0.000 HD
ENDBRANCH  15  22
ENDBRANCH  14  19
ENDBRANCH   1  14
TORSDOF 4
ENDMDL
MODEL 7
REMARK VINA RESULT:    -6.365      2.436      3.223
REMARK INTER + INTRA:          -8.343
REMARK INTER:                  -7.928
REMARK INTRA:                  -0.415
REMARK UNBOUND:                -0.490
REMARK  Name = 
REMARK  4 active torsions:
REMARK  status: ('A' for Active; 'I' for Inactive)
REMARK    1  A    between atoms: C_2  and  C_4
REMARK    2  A    between atoms: C_8  and  S_9
REMARK    3  A    between atoms: S_9  and  C_10
REMARK    4  A    between atoms: C_10  and  C_11
REMARK                            x       y       z     vdW  Elec       q    Type
REMARK                         _______ _______ _______ _____ _____    ______ ____
ROOT
ATOM      1  C   UNL     1      45.316   6.065  11.643  0.00  0.00    +0.000 C 
ENDROOT
BRANCH   1   2
ATOM      2  C   UNL     1      46.623   6.238  12.393  0.00  0.00    +0.000 A 
ATOM      3  C   UNL     1      47.664   6.983  11.848  0.00  0.00    +0.000 A 
ATOM      4  C   UNL     1      48.816   7.142  12.598  0.00  0.00    +0.000 A 
ATOM      5  N   UNL     1      48.994   6.630  13.838  0.00  0.00    +0.000 NA
ATOM      6  C   UNL     1      48.008   5.881  14.375  0.00  0.00    +0.000 A 
ATOM      7  N   UNL     1      48.106   5.462  15.685  0.00  0.00    +0.000 N 
ATOM      8  C   UNL     1      47.549   4.191  16.162  0.00  0.00    +0.000 C 
ATOM      9  C   UNL     1      47.098   4.369  17.622  0.00  0.00    +0.000 C 
ATOM     10  O   UNL     1      48.175   4.831  18.454  0.00  0.00    +0.000 OA
ATOM     11  C   UNL     1      48.683   6.087  17.965  0.00  0.00    +0.000 C 
ATOM     12  C   UNL     1      49.201   5.969  16.519  0.00  0.00    +0.000 C 
ATOM     13  C   UNL     1      46.842   5.648  13.647  0.00  0.00    +0.000 A 
ENDBRANCH   1   2
BRANCH   1  14
ATOM     14  S   UNL     1      45.535   6.058   9.825  0.00  0.00    +0.000 S 
BRANCH  14  19
ATOM     15  C   UNL     1      46.101   2.645   7.764  0.00  0.00    +0.000 A 
ATOM     16  C   UNL     1      45.333   1.692   8.439  0.00  0.00    +0.000 A 
ATOM     17  C   UNL     1      44.572   2.074   9.545  0.00  0.00    +0.000 A 
ATOM     18  C   UNL     1      44.584   3.401   9.990  0.00  0.00    +0.000 A 
ATOM     19  C   UNL     1      45.361   4.358   9.336  0.00  0.00    +0.000 A 
ATOM     20  C   UNL     1      46.111   3.968   8.216  0.00  0.00    +0.000 A 
BRANCH  15  22
ATOM     21  N   UNL     1      47.093   3.241   5.618  0.00  0.00    +0.000 N 
ATOM     22  C   UNL     1      46.955   2.299   6.597  0.00  0.00    +0.000 C 
ATOM     23  O   UNL     1      47.544   1.229   6.524  0.00  0.00    +0.000 OA
ATOM     24  H   UNL     1      47.763   3.026   4.889  0.00  0.00    +0.000 HD
ATOM     25  H   UNL     1      46.849   4.209   5.758  0.00  0.00    +0.000 HD
ENDBRANCH  15  22
ENDBRANCH  14  19
ENDBRANCH   1  14
TORSDOF 4
ENDMDL
MODEL 8
REMARK VINA RESULT:    -6.194      4.241      7.579
REMARK INTER + INTRA:          -8.132
REMARK INTER:                  -7.399
REMARK INTRA:                  -0.733
REMARK UNBOUND:                -0.490
REMARK  Name = 
REMARK  4 active torsions:
REMARK  status: ('A' for Active; 'I' for Inactive)
REMARK    1  A    between atoms: C_2  and  C_4
REMARK    2  A    between atoms: C_8  and  S_9
REMARK    3  A    between atoms: S_9  and  C_10
REMARK    4  A    between atoms: C_10  and  C_11
REMARK                            x       y       z     vdW  Elec       q    Type
REMARK                         _______ _______ _______ _____ _____    ______ ____
ROOT
ATOM      1  C   UNL     1      48.884   8.779  11.606  0.00  0.00    +0.000 C 
ENDROOT
BRANCH   1   2
ATOM      2  C   UNL     1      48.251   7.653  12.401  0.00  0.00    +0.000 A 
ATOM      3  C   UNL     1      48.755   7.288  13.645  0.00  0.00    +0.000 A 
ATOM      4  C   UNL     1      48.108   6.282  14.342  0.00  0.00    +0.000 A 
ATOM      5  N   UNL     1      47.005   5.636  13.899  0.00  0.00    +0.000 NA
ATOM      6  C   UNL     1      46.515   5.955  12.682  0.00  0.00    +0.000 A 
ATOM      7  N   UNL     1      45.318   5.411  12.265  0.00  0.00    +0.000 N 
ATOM      8  C   UNL     1      45.024   5.109  10.859  0.00  0.00    +0.000 C 
ATOM      9  C   UNL     1      43.518   5.311  10.618  0.00  0.00    +0.000 C 
ATOM     10  O   UNL     1      42.729   4.513  11.517  0.00  0.00    +0.000 OA
ATOM     11  C   UNL     1      43.033   4.850  12.884  0.00  0.00    +0.000 C 
ATOM     12  C   UNL     1      44.521   4.623  13.210  0.00  0.00    +0.000 C 
ATOM     13  C   UNL     1      47.151   6.929  11.914  0.00  0.00    +0.000 A 
ENDBRANCH   1   2
BRANCH   1  14
ATOM     14  S   UNL     1      48.523  10.433  12.306  0.00  0.00    +0.000 S 
BRANCH  14  19
ATOM     15  C   UNL     1      44.787  11.003  10.914  0.00  0.00    +0.000 A 
ATOM     16  C   UNL     1      44.914  12.024   9.968  0.00  0.00    +0.000 A 
ATOM     17  C   UNL     1      46.173  12.558   9.690  0.00  0.00    +0.000 A 
ATOM     18  C   UNL     1      47.307  12.087  10.362  0.00  0.00    +0.000 A 
ATOM     19  C   UNL     1      47.192  11.081  11.322  0.00  0.00    +0.000 A 
ATOM     20  C   UNL     1      45.924  10.539  11.585  0.00  0.00    +0.000 A 
BRANCH  15  22
ATOM     21  N   UNL     1      43.235   9.123  10.889  0.00  0.00    +0.000 N 
ATOM     22  C   UNL     1      43.473  10.411  11.276  0.00  0.00    +0.000 C 
ATOM     23  O   UNL     1      42.643  11.032  11.927  0.00  0.00    +0.000 OA
ATOM     24  H   UNL     1      42.380   8.706  11.240  0.00  0.00    +0.000 HD
ATOM     25  H   UNL     1      43.970   8.500  10.592  0.00  0.00    +0.000 HD
ENDBRANCH  15  22
ENDBRANCH  14  19
ENDBRANCH   1  14
TORSDOF 4
ENDMDL
MODEL 9
REMARK VINA RESULT:    -6.087      4.336      6.176
REMARK INTER + INTRA:          -8.000
REMARK INTER:                  -7.596
REMARK INTRA:                  -0.403
REMARK UNBOUND:                -0.490
REMARK  Name = 
REMARK  4 active torsions:
REMARK  status: ('A' for Active; 'I' for Inactive)
REMARK    1  A    between atoms: C_2  and  C_4
REMARK    2  A    between atoms: C_8  and  S_9
REMARK    3  A    between atoms: S_9  and  C_10
REMARK    4  A    between atoms: C_10  and  C_11
REMARK                            x       y       z     vdW  Elec       q    Type
REMARK                         _______ _______ _______ _____ _____    ______ ____
ROOT
ATOM      1  C   UNL     1      45.678   7.783  12.726  0.00  0.00    +0.000 C 
ENDROOT
BRANCH   1   2
ATOM      2  C   UNL     1      45.543   9.212  12.233  0.00  0.00    +0.000 A 
ATOM      3  C   UNL     1      46.655  10.043  12.146  0.00  0.00    +0.000 A 
ATOM      4  C   UNL     1      46.476  11.322  11.648  0.00  0.00    +0.000 A 
ATOM      5  N   UNL     1      45.290  11.816  11.226  0.00  0.00    +0.000 NA
ATOM      6  C   UNL     1      44.192  11.036  11.327  0.00  0.00    +0.000 A 
ATOM      7  N   UNL     1      43.000  11.462  10.781  0.00  0.00    +0.000 N 
ATOM      8  C   UNL     1      41.692  11.122  11.353  0.00  0.00    +0.000 C 
ATOM      9  C   UNL     1      40.671  11.006  10.208  0.00  0.00    +0.000 C 
ATOM     10  O   UNL     1      40.619  12.209   9.423  0.00  0.00    +0.000 OA
ATOM     11  C   UNL     1      41.915  12.499   8.866  0.00  0.00    +0.000 C 
ATOM     12  C   UNL     1      42.981  12.680   9.963  0.00  0.00    +0.000 C 
ATOM     13  C   UNL     1      44.302   9.754  11.864  0.00  0.00    +0.000 A 
ENDBRANCH   1   2
BRANCH   1  14
ATOM     14  S   UNL     1      46.922   6.822  11.788  0.00  0.00    +0.000 S 
BRANCH  14  19
ATOM     15  C   UNL     1      44.389   3.773  11.078  0.00  0.00    +0.000 A 
ATOM     16  C   UNL     1      44.353   3.659   9.686  0.00  0.00    +0.000 A 
ATOM     17  C   UNL     1      45.145   4.500   8.902  0.00  0.00    +0.000 A 
ATOM     18  C   UNL     1      45.963   5.465   9.500  0.00  0.00    +0.000 A 
ATOM     19  C   UNL     1      45.994   5.601  10.889  0.00  0.00    +0.000 A 
ATOM     20  C   UNL     1      45.206   4.742  11.670  0.00  0.00    +0.000 A 
BRANCH  15  22
ATOM     21  N   UNL     1      43.541   3.234  13.299  0.00  0.00    +0.000 N 
ATOM     22  C   UNL     1      43.551   2.928  11.968  0.00  0.00    +0.000 C 
ATOM     23  O   UNL     1      42.864   2.014  11.531  0.00  0.00    +0.000 OA
ATOM     24  H   UNL     1      42.881   2.716  13.867  0.00  0.00    +0.000 HD
ATOM     25  H   UNL     1      43.872   4.117  13.656  0.00  0.00    +0.000 HD
ENDBRANCH  15  22
ENDBRANCH  14  19
ENDBRANCH   1  14
TORSDOF 4
ENDMDL
