MODEL 1
REMARK VINA RESULT:    -7.633      0.000      0.000
REMARK INTER + INTRA:          -9.378
REMARK INTER:                  -8.972
REMARK INTRA:                  -0.406
REMARK UNBOUND:                -0.406
REMARK  Name = 
REMARK  3 active torsions:
REMARK  status: ('A' for Active; 'I' for Inactive)
REMARK    1  A    between atoms: N_6  and  C_7
REMARK    2  A    between atoms: C_7  and  C_8
REMARK    3  A    between atoms: C_12  and  C_13
REMARK                            x       y       z     vdW  Elec       q    Type
REMARK                         _______ _______ _______ _____ _____    ______ ____
ROOT
ATOM      1  C   UNL     1      44.025   4.709  11.741  0.00  0.00    +0.000 C 
ATOM      2  C   UNL     1      42.846   5.022  12.659  0.00  0.00    +0.000 C 
ATOM      3  C   UNL     1      43.008   5.781  11.382  0.00  0.00    +0.000 C 
ENDROOT
BRANCH   1   9
ATOM      4  F   UNL     1      46.816   2.668   6.432  0.00  0.00    +0.000 F 
ATOM      5  C   UNL     1      46.106   2.859   7.549  0.00  0.00    +0.000 A 
ATOM      6  C   UNL     1      45.833   1.842   8.425  0.00  0.00    +0.000 A 
ATOM      7  N   UNL     1      45.135   2.011   9.570  0.00  0.00    +0.000 NA
ATOM      8  C   UNL     1      44.703   3.254   9.841  0.00  0.00    +0.000 A 
ATOM      9  N   UNL     1      44.012   3.414  11.046  0.00  0.00    +0.000 N 
ATOM     10  N   UNL     1      44.915   4.308   9.028  0.00  0.00    +0.000 NA
ATOM     11  C   UNL     1      45.614   4.087   7.895  0.00  0.00    +0.000 A 
ATOM     12  H   UNL     1      44.177   2.575  11.587  0.00  0.00    +0.000 HD
ENDBRANCH   1   9
BRANCH   1  13
ATOM     13  C   UNL     1      45.405   5.198  12.183  0.00  0.00    +0.000 A 
ATOM     14  C   UNL     1      46.042   6.269  11.542  0.00  0.00    +0.000 A 
ATOM     15  C   UNL     1      47.193   6.843  12.072  0.00  0.00    +0.000 A 
ATOM     16  C   UNL     1      47.720   6.369  13.274  0.00  0.00    +0.000 A 
ATOM     17  C   UNL     1      47.136   5.277  13.936  0.00  0.00    +0.000 A 
ATOM     18  C   UNL     1      46.019   4.674  13.336  0.00  0.00    +0.000 A 
BRANCH  17  19
ATOM     19  C   UNL     1      47.588   4.841  15.271  0.00  0.00    +0.000 A 
ATOM     20  C   UNL     1      47.310   3.569  15.786  0.00  0.00    +0.000 A 
ATOM     21  C   UNL     1      47.681   3.235  17.090  0.00  0.00    +0.000 A 
ATOM     22  C   UNL     1      48.341   4.186  17.849  0.00  0.00    +0.000 A 
ATOM     23  N   UNL     1      48.641   5.420  17.401  0.00  0.00    +0.000 NA
ATOM     24  C   UNL     1      48.255   5.717  16.137  0.00  0.00    +0.000 A 
ENDBRANCH  17  19
ENDBRANCH   1  13
TORSDOF 3
ENDMDL
MODEL 2
REMARK VINA RESULT:    -7.502      2.165      3.635
REMARK INTER + INTRA:          -9.224
REMARK INTER:                  -8.568
REMARK INTRA:                  -0.655
REMARK UNBOUND:                -0.406
REMARK  Name = 
REMARK  3 active torsions:
REMARK  status: ('A' for Active; 'I' for Inactive)
REMARK    1  A    between atoms: N_6  and  C_7
REMARK    2  A    between atoms: C_7  and  C_8
REMARK    3  A    between atoms: C_12  and  C_13
REMARK                            x       y       z     vdW  Elec       q    Type
REMARK                         _______ _______ _______ _____ _____    ______ ____
ROOT
ATOM      1  C   UNL     1      43.770   4.891  11.533  0.00  0.00    +0.000 C 
ATOM      2  C   UNL     1      42.460   5.347  12.170  0.00  0.00    +0.000 C 
ATOM      3  C   UNL     1      43.018   6.104  11.011  0.00  0.00    +0.000 C 
ENDROOT
BRANCH   1   9
ATOM      4  F   UNL     1      47.200   2.751   6.656  0.00  0.00    +0.000 F 
ATOM      5  C   UNL     1      46.335   2.977   7.651  0.00  0.00    +0.000 A 
ATOM      6  C   UNL     1      45.825   1.965   8.420  0.00  0.00    +0.000 A 
ATOM      7  N   UNL     1      44.965   2.167   9.443  0.00  0.00    +0.000 NA
ATOM      8  C   UNL     1      44.614   3.438   9.700  0.00  0.00    +0.000 A 
ATOM      9  N   UNL     1      43.750   3.628  10.783  0.00  0.00    +0.000 N 
ATOM     10  N   UNL     1      45.058   4.490   8.985  0.00  0.00    +0.000 NA
ATOM     11  C   UNL     1      45.911   4.237   7.971  0.00  0.00    +0.000 A 
ATOM     12  H   UNL     1      43.742   2.759  11.303  0.00  0.00    +0.000 HD
ENDBRANCH   1   9
BRANCH   1  13
ATOM     13  C   UNL     1      45.058   5.168  12.309  0.00  0.00    +0.000 A 
ATOM     14  C   UNL     1      45.644   4.193  13.127  0.00  0.00    +0.000 A 
ATOM     15  C   UNL     1      46.915   4.373  13.664  0.00  0.00    +0.000 A 
ATOM     16  C   UNL     1      47.638   5.530  13.372  0.00  0.00    +0.000 A 
ATOM     17  C   UNL     1      47.081   6.549  12.585  0.00  0.00    +0.000 A 
ATOM     18  C   UNL     1      45.768   6.369  12.119  0.00  0.00    +0.000 A 
BRANCH  17  19
ATOM     19  C   UNL     1      47.869   7.719  12.149  0.00  0.00    +0.000 A 
ATOM     20  C   UNL     1      49.218   7.631  11.789  0.00  0.00    +0.000 A 
ATOM     21  C   UNL     1      49.944   8.780  11.471  0.00  0.00    +0.000 A 
ATOM     22  C   UNL     1      49.291  10.001  11.508  0.00  0.00    +0.000 A 
ATOM     23  N   UNL     1      47.993  10.141  11.839  0.00  0.00    +0.000 NA
ATOM     24  C   UNL     1      47.321   9.009  12.155  0.00  0.00    +0.000 A 
ENDBRANCH  17  19
ENDBRANCH   1  13
TORSDOF 3
ENDMDL
MODEL 3
REMARK VINA RESULT:    -6.618      3.504      7.669
REMARK INTER + INTRA:          -8.184
REMARK INTER:                  -7.673
REMARK INTRA:                  -0.511
REMARK UNBOUND:                -0.406
REMARK  Name = 
REMARK  3 active torsions:
REMARK  status: ('A' for Active; 'I' for Inactive)
REMARK    1  A    between atoms: N_6  and  C_7
REMARK    2  A    between atoms: C_7  and  C_8
REMARK    3  A    between atoms: C_12  and  C_13
REMARK                            x       y       z     vdW  Elec       q    Type
REMARK                         _______ _______ _______ _____ _____    ______ ____
ROOT
ATOM      1  C   UNL     1      48.944   7.816  12.625  0.00  0.00    +0.000 C 
ATOM      2  C   UNL     1      49.796   8.151  11.403  0.00  0.00    +0.000 C 
ATOM      3  C   UNL     1      49.452   9.227  12.380  0.00  0.00    +0.000 C 
ENDROOT
BRANCH   1   9
ATOM      4  F   UNL     1      48.285   7.631  18.923  0.00  0.00    +0.000 F 
ATOM      5  C   UNL     1      48.617   7.489  17.636  0.00  0.00    +0.000 A 
ATOM      6  C   UNL     1      49.024   6.290  17.113  0.00  0.00    +0.000 A 
ATOM      7  N   UNL     1      49.348   6.114  15.813  0.00  0.00    +0.000 NA
ATOM      8  C   UNL     1      49.252   7.189  15.012  0.00  0.00    +0.000 A 
ATOM      9  N   UNL     1      49.559   6.978  13.664  0.00  0.00    +0.000 N 
ATOM     10  N   UNL     1      48.873   8.407  15.446  0.00  0.00    +0.000 NA
ATOM     11  C   UNL     1      48.565   8.533  16.753  0.00  0.00    +0.000 A 
ATOM     12  H   UNL     1      49.578   5.975  13.525  0.00  0.00    +0.000 HD
ENDBRANCH   1   9
BRANCH   1  13
ATOM     13  C   UNL     1      47.452   7.577  12.393  0.00  0.00    +0.000 A 
ATOM     14  C   UNL     1      46.507   8.591  12.604  0.00  0.00    +0.000 A 
ATOM     15  C   UNL     1      45.185   8.439  12.198  0.00  0.00    +0.000 A 
ATOM     16  C   UNL     1      44.785   7.271  11.547  0.00  0.00    +0.000 A 
ATOM     17  C   UNL     1      45.686   6.215  11.341  0.00  0.00    +0.000 A 
ATOM     18  C   UNL     1      46.995   6.371  11.829  0.00  0.00    +0.000 A 
BRANCH  17  19
ATOM     19  C   UNL     1      45.330   5.028  10.540  0.00  0.00    +0.000 A 
ATOM     20  C   UNL     1      45.555   4.951   9.161  0.00  0.00    +0.000 A 
ATOM     21  C   UNL     1      45.119   3.844   8.431  0.00  0.00    +0.000 A 
ATOM     22  C   UNL     1      44.472   2.824   9.110  0.00  0.00    +0.000 A 
ATOM     23  N   UNL     1      44.238   2.843  10.436  0.00  0.00    +0.000 NA
ATOM     24  C   UNL     1      44.662   3.938  11.111  0.00  0.00    +0.000 A 
ENDBRANCH  17  19
ENDBRANCH   1  13
TORSDOF 3
ENDMDL
MODEL 4
REMARK VINA RESULT:    -6.210      1.813      2.670
REMARK INTER + INTRA:          -7.705
REMARK INTER:                  -7.234
REMARK INTRA:                  -0.471
REMARK UNBOUND:                -0.406
REMARK  Name = 
REMARK  3 active torsions:
REMARK  status: ('A' for Active; 'I' for Inactive)
REMARK    1  A    between atoms: N_6  and  C_7
REMARK    2  A    between atoms: C_7  and  C_8
REMARK    3  A    between atoms: C_12  and  C_13
REMARK                            x       y       z     vdW  Elec       q    Type
REMARK                         _______ _______ _______ _____ _____    ______ ____
ROOT
ATOM      1  C   UNL     1      45.067   7.646  12.079  0.00  0.00    +0.000 C 
ATOM      2  C   UNL     1      44.719   9.087  12.443  0.00  0.00    +0.000 C 
ATOM      3  C   UNL     1      45.073   8.749  11.032  0.00  0.00    +0.000 C 
ENDROOT
BRANCH   1   9
ATOM      4  F   UNL     1      44.400   1.911   9.473  0.00  0.00    +0.000 F 
ATOM      5  C   UNL     1      44.285   3.088  10.097  0.00  0.00    +0.000 A 
ATOM      6  C   UNL     1      43.522   3.247  11.223  0.00  0.00    +0.000 A 
ATOM      7  N   UNL     1      43.403   4.419  11.885  0.00  0.00    +0.000 NA
ATOM      8  C   UNL     1      44.087   5.466  11.393  0.00  0.00    +0.000 A 
ATOM      9  N   UNL     1      43.978   6.662  12.111  0.00  0.00    +0.000 N 
ATOM     10  N   UNL     1      44.850   5.401  10.284  0.00  0.00    +0.000 NA
ATOM     11  C   UNL     1      44.932   4.209   9.657  0.00  0.00    +0.000 A 
ATOM     12  H   UNL     1      43.568   6.425  13.006  0.00  0.00    +0.000 HD
ENDBRANCH   1   9
BRANCH   1  13
ATOM     13  C   UNL     1      46.433   7.123  12.526  0.00  0.00    +0.000 A 
ATOM     14  C   UNL     1      47.621   7.589  11.947  0.00  0.00    +0.000 A 
ATOM     15  C   UNL     1      48.861   7.270  12.491  0.00  0.00    +0.000 A 
ATOM     16  C   UNL     1      48.936   6.492  13.648  0.00  0.00    +0.000 A 
ATOM     17  C   UNL     1      47.776   5.976  14.246  0.00  0.00    +0.000 A 
ATOM     18  C   UNL     1      46.545   6.255  13.629  0.00  0.00    +0.000 A 
BRANCH  17  19
ATOM     19  C   UNL     1      47.813   5.266  15.539  0.00  0.00    +0.000 A 
ATOM     20  C   UNL     1      48.743   5.568  16.541  0.00  0.00    +0.000 A 
ATOM     21  C   UNL     1      48.797   4.809  17.711  0.00  0.00    +0.000 A 
ATOM     22  C   UNL     1      47.900   3.763  17.857  0.00  0.00    +0.000 A 
ATOM     23  N   UNL     1      46.981   3.436  16.930  0.00  0.00    +0.000 NA
ATOM     24  C   UNL     1      46.964   4.184  15.801  0.00  0.00    +0.000 A 
ENDBRANCH  17  19
ENDBRANCH   1  13
TORSDOF 3
ENDMDL
MODEL 5
REMARK VINA RESULT:    -6.189      3.317      7.280
REMARK INTER + INTRA:          -7.681
REMARK INTER:                  -7.458
REMARK INTRA:                  -0.223
REMARK UNBOUND:                -0.406
REMARK  Name = 
REMARK  3 active torsions:
REMARK  status: ('A' for Active; 'I' for Inactive)
REMARK    1  A    between atoms: N_6  and  C_7
REMARK    2  A    between atoms: C_7  and  C_8
REMARK    3  A    between atoms: C_12  and  C_13
REMARK                            x       y       z     vdW  Elec       q    Type
REMARK                         _______ _______ _______ _____ _____    ______ ____
ROOT
ATOM      1  C   UNL     1      49.682   7.639  16.200  0.00  0.00    +0.000 C 
ATOM      2  C   UNL     1      50.290   8.923  16.758  0.00  0.00    +0.000 C 
ATOM      3  C   UNL     1      48.875   8.575  17.085  0.00  0.00    +0.000 C 
ENDROOT
BRANCH   1   9
ATOM      4  F   UNL     1      46.810   2.220  17.792  0.00  0.00    +0.000 F 
ATOM      5  C   UNL     1      47.635   3.247  17.558  0.00  0.00    +0.000 A 
ATOM      6  C   UNL     1      48.949   3.066  17.217  0.00  0.00    +0.000 A 
ATOM      7  N   UNL     1      49.799   4.084  16.957  0.00  0.00    +0.000 NA
ATOM      8  C   UNL     1      49.300   5.329  17.039  0.00  0.00    +0.000 A 
ATOM      9  N   UNL     1      50.186   6.367  16.734  0.00  0.00    +0.000 N 
ATOM     10  N   UNL     1      48.024   5.597  17.381  0.00  0.00    +0.000 NA
ATOM     11  C   UNL     1      47.216   4.547  17.635  0.00  0.00    +0.000 A 
ATOM     12  H   UNL     1      50.987   5.940  16.285  0.00  0.00    +0.000 HD
ENDBRANCH   1   9
BRANCH   1  13
ATOM     13  C   UNL     1      49.320   7.625  14.714  0.00  0.00    +0.000 A 
ATOM     14  C   UNL     1      50.223   8.067  13.738  0.00  0.00    +0.000 A 
ATOM     15  C   UNL     1      49.975   7.863  12.384  0.00  0.00    +0.000 A 
ATOM     16  C   UNL     1      48.824   7.187  11.979  0.00  0.00    +0.000 A 
ATOM     17  C   UNL     1      47.875   6.753  12.917  0.00  0.00    +0.000 A 
ATOM     18  C   UNL     1      48.119   7.041  14.271  0.00  0.00    +0.000 A 
BRANCH  17  19
ATOM     19  C   UNL     1      46.719   5.921  12.533  0.00  0.00    +0.000 A 
ATOM     20  C   UNL     1      46.032   6.092  11.325  0.00  0.00    +0.000 A 
ATOM     21  C   UNL     1      44.889   5.341  11.046  0.00  0.00    +0.000 A 
ATOM     22  C   UNL     1      44.465   4.417  11.987  0.00  0.00    +0.000 A 
ATOM     23  N   UNL     1      45.093   4.206  13.159  0.00  0.00    +0.000 NA
ATOM     24  C   UNL     1      46.190   4.961  13.405  0.00  0.00    +0.000 A 
ENDBRANCH  17  19
ENDBRANCH   1  13
TORSDOF 3
ENDMDL
MODEL 6
REMARK VINA RESULT:    -6.103      2.326      3.350
REMARK INTER + INTRA:          -7.580
REMARK INTER:                  -7.061
REMARK INTRA:                  -0.519
REMARK UNBOUND:                -0.406
REMARK  Name = 
REMARK  3 active torsions:
REMARK  status: ('A' for Active; 'I' for Inactive)
REMARK    1  A    between atoms: N_6  and  C_7
REMARK    2  A    between atoms: C_7  and  C_8
REMARK    3  A    between atoms: C_12  and  C_13
REMARK                            x       y       z     vdW  Elec       q    Type
REMARK                         _______ _______ _______ _____ _____    ______ ____
ROOT
ATOM      1  C   UNL     1      45.401   7.756  12.468  0.00  0.00    +0.000 C 
ATOM      2  C   UNL     1      44.961   9.199  12.701  0.00  0.00    +0.000 C 
ATOM      3  C   UNL     1      44.984   8.650  11.312  0.00  0.00    +0.000 C 
ENDROOT
BRANCH   1   9
ATOM      4  F   UNL     1      43.894   2.061  10.137  0.00  0.00    +0.000 F 
ATOM      5  C   UNL     1      44.023   3.209  10.811  0.00  0.00    +0.000 A 
ATOM      6  C   UNL     1      43.864   3.281  12.170  0.00  0.00    +0.000 A 
ATOM      7  N   UNL     1      44.007   4.423  12.878  0.00  0.00    +0.000 NA
ATOM      8  C   UNL     1      44.328   5.530  12.188  0.00  0.00    +0.000 A 
ATOM      9  N   UNL     1      44.504   6.694  12.944  0.00  0.00    +0.000 N 
ATOM     10  N   UNL     1      44.489   5.551  10.850  0.00  0.00    +0.000 NA
ATOM     11  C   UNL     1      44.331   4.386  10.188  0.00  0.00    +0.000 A 
ATOM     12  H   UNL     1      44.571   6.403  13.911  0.00  0.00    +0.000 HD
ENDBRANCH   1   9
BRANCH   1  13
ATOM     13  C   UNL     1      46.895   7.452  12.592  0.00  0.00    +0.000 A 
ATOM     14  C   UNL     1      47.787   7.731  11.548  0.00  0.00    +0.000 A 
ATOM     15  C   UNL     1      49.163   7.648  11.736  0.00  0.00    +0.000 A 
ATOM     16  C   UNL     1      49.677   7.306  12.987  0.00  0.00    +0.000 A 
ATOM     17  C   UNL     1      48.824   6.987  14.055  0.00  0.00    +0.000 A 
ATOM     18  C   UNL     1      47.440   7.008  13.811  0.00  0.00    +0.000 A 
BRANCH  17  19
ATOM     19  C   UNL     1      49.333   6.753  15.420  0.00  0.00    +0.000 A 
ATOM     20  C   UNL     1      50.569   7.241  15.860  0.00  0.00    +0.000 A 
ATOM     21  C   UNL     1      51.048   6.917  17.131  0.00  0.00    +0.000 A 
ATOM     22  C   UNL     1      50.264   6.115  17.944  0.00  0.00    +0.000 A 
ATOM     23  N   UNL     1      49.065   5.627  17.574  0.00  0.00    +0.000 NA
ATOM     24  C   UNL     1      48.635   5.949  16.330  0.00  0.00    +0.000 A 
ENDBRANCH  17  19
ENDBRANCH   1  13
TORSDOF 3
ENDMDL
MODEL 7
REMARK VINA RESULT:    -6.103      2.835      6.732
REMARK INTER + INTRA:          -7.579
REMARK INTER:                  -6.958
REMARK INTRA:                  -0.621
REMARK UNBOUND:                -0.406
REMARK  Name = 
REMARK  3 active torsions:
REMARK  status: ('A' for Active; 'I' for Inactive)
REMARK    1  A    between atoms: N_6  and  C_7
REMARK    2  A    between atoms: C_7  and  C_8
REMARK    3  A    between atoms: C_12  and  C_13
REMARK                            x       y       z     vdW  Elec       q    Type
REMARK                         _______ _______ _______ _____ _____    ______ ____
ROOT
ATOM      1  C   UNL     1      46.520   5.113  13.953  0.00  0.00    +0.000 C 
ATOM      2  C   UNL     1      46.591   4.056  15.052  0.00  0.00    +0.000 C 
ATOM      3  C   UNL     1      47.633   4.079  13.982  0.00  0.00    +0.000 C 
ENDROOT
BRANCH   1   9
ATOM      4  F   UNL     1      49.073  10.000  10.833  0.00  0.00    +0.000 F 
ATOM      5  C   UNL     1      48.538   9.135  11.702  0.00  0.00    +0.000 A 
ATOM      6  C   UNL     1      47.696   9.534  12.706  0.00  0.00    +0.000 A 
ATOM      7  N   UNL     1      47.127   8.679  13.585  0.00  0.00    +0.000 NA
ATOM      8  C   UNL     1      47.417   7.375  13.440  0.00  0.00    +0.000 A 
ATOM      9  N   UNL     1      46.792   6.505  14.338  0.00  0.00    +0.000 N 
ATOM     10  N   UNL     1      48.245   6.900  12.489  0.00  0.00    +0.000 NA
ATOM     11  C   UNL     1      48.791   7.793  11.638  0.00  0.00    +0.000 A 
ATOM     12  H   UNL     1      46.055   7.033  14.788  0.00  0.00    +0.000 HD
ENDBRANCH   1   9
BRANCH   1  13
ATOM     13  C   UNL     1      45.447   4.932  12.878  0.00  0.00    +0.000 A 
ATOM     14  C   UNL     1      44.222   5.609  12.945  0.00  0.00    +0.000 A 
ATOM     15  C   UNL     1      43.338   5.605  11.871  0.00  0.00    +0.000 A 
ATOM     16  C   UNL     1      43.675   4.939  10.692  0.00  0.00    +0.000 A 
ATOM     17  C   UNL     1      44.876   4.220  10.588  0.00  0.00    +0.000 A 
ATOM     18  C   UNL     1      45.712   4.182  11.716  0.00  0.00    +0.000 A 
BRANCH  17  19
ATOM     19  C   UNL     1      45.320   3.620   9.315  0.00  0.00    +0.000 A 
ATOM     20  C   UNL     1      45.466   2.239   9.140  0.00  0.00    +0.000 A 
ATOM     21  C   UNL     1      45.975   1.725   7.946  0.00  0.00    +0.000 A 
ATOM     22  C   UNL     1      46.317   2.615   6.941  0.00  0.00    +0.000 A 
ATOM     23  N   UNL     1      46.188   3.950   7.053  0.00  0.00    +0.000 NA
ATOM     24  C   UNL     1      45.704   4.417   8.229  0.00  0.00    +0.000 A 
ENDBRANCH  17  19
ENDBRANCH   1  13
TORSDOF 3
ENDMDL
MODEL 8
REMARK VINA RESULT:    -5.949      1.531      2.150
REMARK INTER + INTRA:          -7.399
REMARK INTER:                  -7.762
REMARK INTRA:                   0.363
REMARK UNBOUND:                -0.406
REMARK  Name = 
REMARK  3 active torsions:
REMARK  status: ('A' for Active; 'I' for Inactive)
REMARK    1  A    between atoms: N_6  and  C_7
REMARK    2  A    between atoms: C_7  and  C_8
REMARK    3  A    between atoms: C_12  and  C_13
REMARK                            x       y       z     vdW  Elec       q    Type
REMARK                         _______ _______ _______ _____ _____    ______ ____
ROOT
ATOM      1  C   UNL     1      45.688   6.771  11.306  0.00  0.00    +0.000 C 
ATOM      2  C   UNL     1      44.362   6.542  12.025  0.00  0.00    +0.000 C 
ATOM      3  C   UNL     1      44.697   7.904  11.514  0.00  0.00    +0.000 C 
ENDROOT
BRANCH   1   9
ATOM      4  F   UNL     1      44.131   1.087   8.981  0.00  0.00    +0.000 F 
ATOM      5  C   UNL     1      44.577   2.323   9.234  0.00  0.00    +0.000 A 
ATOM      6  C   UNL     1      44.646   3.287   8.264  0.00  0.00    +0.000 A 
ATOM      7  N   UNL     1      45.075   4.548   8.495  0.00  0.00    +0.000 NA
ATOM      8  C   UNL     1      45.441   4.844   9.753  0.00  0.00    +0.000 A 
ATOM      9  N   UNL     1      45.849   6.163   9.978  0.00  0.00    +0.000 N 
ATOM     10  N   UNL     1      45.418   3.953  10.763  0.00  0.00    +0.000 NA
ATOM     11  C   UNL     1      44.986   2.706  10.481  0.00  0.00    +0.000 A 
ATOM     12  H   UNL     1      45.565   6.696   9.166  0.00  0.00    +0.000 HD
ENDBRANCH   1   9
BRANCH   1  13
ATOM     13  C   UNL     1      46.952   6.804  12.166  0.00  0.00    +0.000 A 
ATOM     14  C   UNL     1      47.972   7.737  11.933  0.00  0.00    +0.000 A 
ATOM     15  C   UNL     1      49.018   7.901  12.836  0.00  0.00    +0.000 A 
ATOM     16  C   UNL     1      49.051   7.146  14.010  0.00  0.00    +0.000 A 
ATOM     17  C   UNL     1      48.071   6.177  14.272  0.00  0.00    +0.000 A 
ATOM     18  C   UNL     1      47.070   5.985  13.305  0.00  0.00    +0.000 A 
BRANCH  17  19
ATOM     19  C   UNL     1      48.004   5.461  15.561  0.00  0.00    +0.000 A 
ATOM     20  C   UNL     1      47.239   4.304  15.745  0.00  0.00    +0.000 A 
ATOM     21  C   UNL     1      47.136   3.714  17.006  0.00  0.00    +0.000 A 
ATOM     22  C   UNL     1      47.821   4.295  18.060  0.00  0.00    +0.000 A 
ATOM     23  N   UNL     1      48.578   5.402  17.937  0.00  0.00    +0.000 NA
ATOM     24  C   UNL     1      48.645   5.957  16.703  0.00  0.00    +0.000 A 
ENDBRANCH  17  19
ENDBRANCH   1  13
TORSDOF 3
ENDMDL
MODEL 9
REMARK VINA RESULT:    -5.762      3.086      4.758
REMARK INTER + INTRA:          -7.178
REMARK INTER:                  -6.653
REMARK INTRA:                  -0.525
REMARK UNBOUND:                -0.406
REMARK  Name = 
REMARK  3 active torsions:
REMARK  status: ('A' for Active; 'I' for Inactive)
REMARK    1  A    between atoms: N_6  and  C_7
REMARK    2  A    between atoms: C_7  and  C_8
REMARK    3  A    between atoms: C_12  and  C_13
REMARK                            x       y       z     vdW  Elec       q    Type
REMARK                         _______ _______ _______ _____ _____    ______ ____
ROOT
ATOM      1  C   UNL     1      48.093   8.144  12.664  0.00  0.00    +0.000 C 
ATOM      2  C   UNL     1      48.954   9.033  11.770  0.00  0.00    +0.000 C 
ATOM      3  C   UNL     1      49.126   7.550  11.721  0.00  0.00    +0.000 C 
ENDROOT
BRANCH   1   9
ATOM      4  F   UNL     1      43.941   3.367  12.928  0.00  0.00    +0.000 F 
ATOM      5  C   UNL     1      44.614   4.510  12.760  0.00  0.00    +0.000 A 
ATOM      6  C   UNL     1      44.014   5.736  12.873  0.00  0.00    +0.000 A 
ATOM      7  N   UNL     1      44.675   6.906  12.726  0.00  0.00    +0.000 NA
ATOM      8  C   UNL     1      45.990   6.832  12.461  0.00  0.00    +0.000 A 
ATOM      9  N   UNL     1      46.662   8.054  12.346  0.00  0.00    +0.000 N 
ATOM     10  N   UNL     1      46.656   5.669  12.320  0.00  0.00    +0.000 NA
ATOM     11  C   UNL     1      45.951   4.528  12.471  0.00  0.00    +0.000 A 
ATOM     12  H   UNL     1      46.040   8.761  12.717  0.00  0.00    +0.000 HD
ENDBRANCH   1   9
BRANCH   1  13
ATOM     13  C   UNL     1      48.433   8.115  14.155  0.00  0.00    +0.000 A 
ATOM     14  C   UNL     1      48.187   9.218  14.983  0.00  0.00    +0.000 A 
ATOM     15  C   UNL     1      48.302   9.119  16.366  0.00  0.00    +0.000 A 
ATOM     16  C   UNL     1      48.646   7.901  16.953  0.00  0.00    +0.000 A 
ATOM     17  C   UNL     1      48.934   6.777  16.164  0.00  0.00    +0.000 A 
ATOM     18  C   UNL     1      48.880   6.929  14.768  0.00  0.00    +0.000 A 
BRANCH  17  19
ATOM     19  C   UNL     1      49.168   5.445  16.756  0.00  0.00    +0.000 A 
ATOM     20  C   UNL     1      50.402   5.063  17.294  0.00  0.00    +0.000 A 
ATOM     21  C   UNL     1      50.600   3.762  17.761  0.00  0.00    +0.000 A 
ATOM     22  C   UNL     1      49.543   2.871  17.689  0.00  0.00    +0.000 A 
ATOM     23  N   UNL     1      48.333   3.188  17.190  0.00  0.00    +0.000 NA
ATOM     24  C   UNL     1      48.178   4.454  16.733  0.00  0.00    +0.000 A 
ENDBRANCH  17  19
ENDBRANCH   1  13
TORSDOF 3
ENDMDL
