MODEL 1
REMARK VINA RESULT:    -7.797      0.000      0.000
REMARK INTER + INTRA:         -11.825
REMARK INTER:                 -10.987
REMARK INTRA:                  -0.838
REMARK UNBOUND:                -0.838
REMARK  Name = 
REMARK  7 active torsions:
REMARK  status: ('A' for Active; 'I' for Inactive)
REMARK    1  A    between atoms: C_2  and  C_4
REMARK    2  A    between atoms: C_8  and  C_9
REMARK    3  A    between atoms: N_11  and  C_12
REMARK    4  A    between atoms: C_12  and  C_13
REMARK    5  A    between atoms: C_16  and  C_17
REMARK    6  A    between atoms: C_17  and  N_18
REMARK    7  A    between atoms: C_19  and  C_21
REMARK                            x       y       z     vdW  Elec       q    Type
REMARK                         _______ _______ _______ _____ _____    ______ ____
ROOT
ATOM      1  C   UNL     1      44.591   6.061  11.589  0.00  0.00    +0.000 A 
ATOM      2  C   UNL     1      44.667   7.459  11.515  0.00  0.00    +0.000 A 
ATOM      3  C   UNL     1      45.654   8.158  12.218  0.00  0.00    +0.000 A 
ATOM      4  C   UNL     1      46.598   7.473  12.994  0.00  0.00    +0.000 A 
ATOM      5  C   UNL     1      46.506   6.078  13.087  0.00  0.00    +0.000 A 
ATOM      6  C   UNL     1      45.521   5.379  12.383  0.00  0.00    +0.000 A 
ENDROOT
BRANCH   1   7
ATOM      7  C   UNL     1      43.555   5.305  10.798  0.00  0.00    +0.000 C 
BRANCH   7  10
ATOM      8  C   UNL     1      45.050   4.316   9.123  0.00  0.00    +0.000 C 
ATOM      9  O   UNL     1      45.460   5.410   8.752  0.00  0.00    +0.000 OA
ATOM     10  N   UNL     1      44.131   4.154  10.137  0.00  0.00    +0.000 N 
ATOM     11  H   UNL     1      43.942   3.239  10.522  0.00  0.00    +0.000 HD
BRANCH   8  16
ATOM     12  C   UNL     1      46.991   1.920   6.898  0.00  0.00    +0.000 A 
ATOM     13  C   UNL     1      46.569   0.686   7.409  0.00  0.00    +0.000 A 
ATOM     14  C   UNL     1      45.646   0.646   8.456  0.00  0.00    +0.000 A 
ATOM     15  C   UNL     1      45.149   1.835   8.995  0.00  0.00    +0.000 A 
ATOM     16  C   UNL     1      45.563   3.072   8.485  0.00  0.00    +0.000 A 
ATOM     17  C   UNL     1      46.492   3.112   7.440  0.00  0.00    +0.000 A 
BRANCH  12  19
ATOM     18  N   UNL     1      49.107   2.797   6.055  0.00  0.00    +0.000 N 
ATOM     19  C   UNL     1      48.011   2.017   5.821  0.00  0.00    +0.000 C 
ATOM     20  O   UNL     1      47.893   1.393   4.775  0.00  0.00    +0.000 OA
ATOM     21  H   UNL     1      49.828   2.780   5.345  0.00  0.00    +0.000 HD
ATOM     22  H   UNL     1      49.360   3.131   6.973  0.00  0.00    +0.000 HD
ENDBRANCH  12  19
ENDBRANCH   8  16
ENDBRANCH   7  10
ENDBRANCH   1   7
BRANCH   4  23
ATOM     23  C   UNL     1      47.683   8.216  13.732  0.00  0.00    +0.000 C 
BRANCH  23  24
ATOM     24  N   UNL     1      47.964   7.613  15.011  0.00  0.00    +0.000 N 
ATOM     25  C   UNL     1      49.234   7.215  15.339  0.00  0.00    +0.000 C 
ATOM     26  O   UNL     1      50.189   7.401  14.588  0.00  0.00    +0.000 OA
ATOM     27  H   UNL     1      47.174   7.238  15.526  0.00  0.00    +0.000 HD
BRANCH  25  28
ATOM     28  C   UNL     1      49.413   6.613  16.667  0.00  0.00    +0.000 A 
ATOM     29  C   UNL     1      50.165   7.276  17.629  0.00  0.00    +0.000 A 
ATOM     30  S   UNL     1      50.213   6.471  19.133  0.00  0.00    +0.000 S 
ATOM     31  C   UNL     1      49.279   5.181  18.535  0.00  0.00    +0.000 A 
ATOM     32  N   UNL     1      48.963   4.120  19.326  0.00  0.00    +0.000 NA
ATOM     33  C   UNL     1      48.278   3.199  18.734  0.00  0.00    +0.000 A 
ATOM     34  N   UNL     1      47.878   3.244  17.423  0.00  0.00    +0.000 N 
ATOM     35  C   UNL     1      48.154   4.305  16.594  0.00  0.00    +0.000 A 
ATOM     36  O   UNL     1      47.756   4.327  15.435  0.00  0.00    +0.000 OA
ATOM     37  C   UNL     1      48.925   5.368  17.210  0.00  0.00    +0.000 A 
ATOM     38  H   UNL     1      47.343   2.491  17.018  0.00  0.00    +0.000 HD
ENDBRANCH  25  28
ENDBRANCH  23  24
ENDBRANCH   4  23
TORSDOF 7
ENDMDL
MODEL 2
REMARK VINA RESULT:    -7.763      1.655      2.067
REMARK INTER + INTRA:         -11.777
REMARK INTER:                 -10.737
REMARK INTRA:                  -1.040
REMARK UNBOUND:                -0.838
REMARK  Name = 
REMARK  7 active torsions:
REMARK  status: ('A' for Active; 'I' for Inactive)
REMARK    1  A    between atoms: C_2  and  C_4
REMARK    2  A    between atoms: C_8  and  C_9
REMARK    3  A    between atoms: N_11  and  C_12
REMARK    4  A    between atoms: C_12  and  C_13
REMARK    5  A    between atoms: C_16  and  C_17
REMARK    6  A    between atoms: C_17  and  N_18
REMARK    7  A    between atoms: C_19  and  C_21
REMARK                            x       y       z     vdW  Elec       q    Type
REMARK                         _______ _______ _______ _____ _____    ______ ____
ROOT
ATOM      1  C   UNL     1      44.812   5.417  11.439  0.00  0.00    +0.000 A 
ATOM      2  C   UNL     1      44.889   6.817  11.425  0.00  0.00    +0.000 A 
ATOM      3  C   UNL     1      45.852   7.486  12.188  0.00  0.00    +0.000 A 
ATOM      4  C   UNL     1      46.770   6.769  12.968  0.00  0.00    +0.000 A 
ATOM      5  C   UNL     1      46.676   5.372  13.001  0.00  0.00    +0.000 A 
ATOM      6  C   UNL     1      45.715   4.703  12.236  0.00  0.00    +0.000 A 
ENDROOT
BRANCH   1   7
ATOM      7  C   UNL     1      43.804   4.694  10.584  0.00  0.00    +0.000 C 
BRANCH   7  10
ATOM      8  C   UNL     1      45.214   3.869   8.755  0.00  0.00    +0.000 C 
ATOM      9  O   UNL     1      45.486   5.001   8.370  0.00  0.00    +0.000 OA
ATOM     10  N   UNL     1      44.416   3.611   9.848  0.00  0.00    +0.000 N 
ATOM     11  H   UNL     1      44.349   2.677  10.229  0.00  0.00    +0.000 HD
BRANCH   8  16
ATOM     12  C   UNL     1      46.941   1.675   6.173  0.00  0.00    +0.000 A 
ATOM     13  C   UNL     1      46.908   0.433   6.820  0.00  0.00    +0.000 A 
ATOM     14  C   UNL     1      46.310   0.319   8.076  0.00  0.00    +0.000 A 
ATOM     15  C   UNL     1      45.750   1.442   8.688  0.00  0.00    +0.000 A 
ATOM     16  C   UNL     1      45.775   2.686   8.045  0.00  0.00    +0.000 A 
ATOM     17  C   UNL     1      46.379   2.802   6.788  0.00  0.00    +0.000 A 
BRANCH  12  19
ATOM     18  N   UNL     1      48.345   2.998   4.678  0.00  0.00    +0.000 N 
ATOM     19  C   UNL     1      47.612   1.860   4.860  0.00  0.00    +0.000 C 
ATOM     20  O   UNL     1      47.540   1.009   3.983  0.00  0.00    +0.000 OA
ATOM     21  H   UNL     1      48.864   3.062   3.811  0.00  0.00    +0.000 HD
ATOM     22  H   UNL     1      48.625   3.601   5.437  0.00  0.00    +0.000 HD
ENDBRANCH  12  19
ENDBRANCH   8  16
ENDBRANCH   7  10
ENDBRANCH   1   7
BRANCH   4  23
ATOM     23  C   UNL     1      47.829   7.481  13.771  0.00  0.00    +0.000 C 
BRANCH  23  24
ATOM     24  N   UNL     1      47.872   7.005  15.131  0.00  0.00    +0.000 N 
ATOM     25  C   UNL     1      49.061   6.654  15.717  0.00  0.00    +0.000 C 
ATOM     26  O   UNL     1      50.136   6.777  15.135  0.00  0.00    +0.000 OA
ATOM     27  H   UNL     1      47.001   6.672  15.530  0.00  0.00    +0.000 HD
BRANCH  25  28
ATOM     28  C   UNL     1      48.995   6.182  17.107  0.00  0.00    +0.000 A 
ATOM     29  C   UNL     1      49.402   4.890  17.416  0.00  0.00    +0.000 A 
ATOM     30  S   UNL     1      49.325   4.529  19.082  0.00  0.00    +0.000 S 
ATOM     31  C   UNL     1      48.693   6.066  19.442  0.00  0.00    +0.000 A 
ATOM     32  N   UNL     1      48.377   6.412  20.720  0.00  0.00    +0.000 NA
ATOM     33  C   UNL     1      47.876   7.596  20.844  0.00  0.00    +0.000 A 
ATOM     34  N   UNL     1      47.665   8.467  19.806  0.00  0.00    +0.000 N 
ATOM     35  C   UNL     1      47.988   8.170  18.503  0.00  0.00    +0.000 A 
ATOM     36  O   UNL     1      47.814   8.983  17.603  0.00  0.00    +0.000 OA
ATOM     37  C   UNL     1      48.554   6.849  18.308  0.00  0.00    +0.000 A 
ATOM     38  H   UNL     1      47.269   9.381  19.969  0.00  0.00    +0.000 HD
ENDBRANCH  25  28
ENDBRANCH  23  24
ENDBRANCH   4  23
TORSDOF 7
ENDMDL
MODEL 3
REMARK VINA RESULT:    -7.761      1.456      1.862
REMARK INTER + INTRA:         -11.775
REMARK INTER:                 -10.604
REMARK INTRA:                  -1.171
REMARK UNBOUND:                -0.838
REMARK  Name = 
REMARK  7 active torsions:
REMARK  status: ('A' for Active; 'I' for Inactive)
REMARK    1  A    between atoms: C_2  and  C_4
REMARK    2  A    between atoms: C_8  and  C_9
REMARK    3  A    between atoms: N_11  and  C_12
REMARK    4  A    between atoms: C_12  and  C_13
REMARK    5  A    between atoms: C_16  and  C_17
REMARK    6  A    between atoms: C_17  and  N_18
REMARK    7  A    between atoms: C_19  and  C_21
REMARK                            x       y       z     vdW  Elec       q    Type
REMARK                         _______ _______ _______ _____ _____    ______ ____
ROOT
ATOM      1  C   UNL     1      46.036   7.521  11.895  0.00  0.00    +0.000 A 
ATOM      2  C   UNL     1      47.319   6.964  11.807  0.00  0.00    +0.000 A 
ATOM      3  C   UNL     1      48.350   7.413  12.641  0.00  0.00    +0.000 A 
ATOM      4  C   UNL     1      48.114   8.414  13.593  0.00  0.00    +0.000 A 
ATOM      5  C   UNL     1      46.837   8.986  13.662  0.00  0.00    +0.000 A 
ATOM      6  C   UNL     1      45.807   8.537  12.831  0.00  0.00    +0.000 A 
ENDROOT
BRANCH   1   7
ATOM      7  C   UNL     1      44.915   7.009  11.027  0.00  0.00    +0.000 C 
BRANCH   7  10
ATOM      8  C   UNL     1      44.422   4.868   9.937  0.00  0.00    +0.000 C 
ATOM      9  O   UNL     1      43.234   4.918  10.235  0.00  0.00    +0.000 OA
ATOM     10  N   UNL     1      45.327   5.855  10.259  0.00  0.00    +0.000 N 
ATOM     11  H   UNL     1      46.255   5.855   9.858  0.00  0.00    +0.000 HD
BRANCH   8  16
ATOM     12  C   UNL     1      46.330   2.755   7.416  0.00  0.00    +0.000 A 
ATOM     13  C   UNL     1      45.987   1.465   7.841  0.00  0.00    +0.000 A 
ATOM     14  C   UNL     1      45.126   1.297   8.926  0.00  0.00    +0.000 A 
ATOM     15  C   UNL     1      44.612   2.413   9.591  0.00  0.00    +0.000 A 
ATOM     16  C   UNL     1      44.948   3.705   9.168  0.00  0.00    +0.000 A 
ATOM     17  C   UNL     1      45.815   3.874   8.084  0.00  0.00    +0.000 A 
BRANCH  12  19
ATOM     18  N   UNL     1      48.564   2.538   6.457  0.00  0.00    +0.000 N 
ATOM     19  C   UNL     1      47.284   2.987   6.300  0.00  0.00    +0.000 C 
ATOM     20  O   UNL     1      46.929   3.529   5.262  0.00  0.00    +0.000 OA
ATOM     21  H   UNL     1      49.172   2.628   5.653  0.00  0.00    +0.000 HD
ATOM     22  H   UNL     1      48.835   1.887   7.179  0.00  0.00    +0.000 HD
ENDBRANCH  12  19
ENDBRANCH   8  16
ENDBRANCH   7  10
ENDBRANCH   1   7
BRANCH   4  23
ATOM     23  C   UNL     1      49.210   8.883  14.515  0.00  0.00    +0.000 C 
BRANCH  23  24
ATOM     24  N   UNL     1      49.312   8.050  15.686  0.00  0.00    +0.000 N 
ATOM     25  C   UNL     1      48.656   8.378  16.844  0.00  0.00    +0.000 C 
ATOM     26  O   UNL     1      47.917   9.358  16.919  0.00  0.00    +0.000 OA
ATOM     27  H   UNL     1      50.087   7.396  15.719  0.00  0.00    +0.000 HD
BRANCH  25  28
ATOM     28  C   UNL     1      48.826   7.462  17.979  0.00  0.00    +0.000 A 
ATOM     29  C   UNL     1      49.155   7.968  19.230  0.00  0.00    +0.000 A 
ATOM     30  S   UNL     1      49.246   6.776  20.448  0.00  0.00    +0.000 S 
ATOM     31  C   UNL     1      48.905   5.535  19.336  0.00  0.00    +0.000 A 
ATOM     32  N   UNL     1      48.852   4.234  19.732  0.00  0.00    +0.000 NA
ATOM     33  C   UNL     1      48.617   3.395  18.778  0.00  0.00    +0.000 A 
ATOM     34  N   UNL     1      48.427   3.740  17.465  0.00  0.00    +0.000 N 
ATOM     35  C   UNL     1      48.449   5.041  17.023  0.00  0.00    +0.000 A 
ATOM     36  O   UNL     1      48.246   5.317  15.846  0.00  0.00    +0.000 OA
ATOM     37  C   UNL     1      48.712   6.025  18.055  0.00  0.00    +0.000 A 
ATOM     38  H   UNL     1      48.246   3.035  16.765  0.00  0.00    +0.000 HD
ENDBRANCH  25  28
ENDBRANCH  23  24
ENDBRANCH   4  23
TORSDOF 7
ENDMDL
MODEL 4
REMARK VINA RESULT:    -7.744      4.484      7.648
REMARK INTER + INTRA:         -11.751
REMARK INTER:                 -10.678
REMARK INTRA:                  -1.073
REMARK UNBOUND:                -0.838
REMARK  Name = 
REMARK  7 active torsions:
REMARK  status: ('A' for Active; 'I' for Inactive)
REMARK    1  A    between atoms: C_2  and  C_4
REMARK    2  A    between atoms: C_8  and  C_9
REMARK    3  A    between atoms: N_11  and  C_12
REMARK    4  A    between atoms: C_12  and  C_13
REMARK    5  A    between atoms: C_16  and  C_17
REMARK    6  A    between atoms: C_17  and  N_18
REMARK    7  A    between atoms: C_19  and  C_21
REMARK                            x       y       z     vdW  Elec       q    Type
REMARK                         _______ _______ _______ _____ _____    ______ ____
ROOT
ATOM      1  C   UNL     1      44.914   9.238  11.902  0.00  0.00    +0.000 A 
ATOM      2  C   UNL     1      44.340   8.080  11.359  0.00  0.00    +0.000 A 
ATOM      3  C   UNL     1      44.816   6.814  11.718  0.00  0.00    +0.000 A 
ATOM      4  C   UNL     1      45.861   6.679  12.642  0.00  0.00    +0.000 A 
ATOM      5  C   UNL     1      46.449   7.838  13.164  0.00  0.00    +0.000 A 
ATOM      6  C   UNL     1      45.973   9.103  12.807  0.00  0.00    +0.000 A 
ENDROOT
BRANCH   1   7
ATOM      7  C   UNL     1      44.374  10.600  11.549  0.00  0.00    +0.000 C 
BRANCH   7  10
ATOM      8  C   UNL     1      41.979  10.746  11.043  0.00  0.00    +0.000 C 
ATOM      9  O   UNL     1      42.158  10.582   9.842  0.00  0.00    +0.000 OA
ATOM     10  N   UNL     1      42.999  10.749  11.969  0.00  0.00    +0.000 N 
ATOM     11  H   UNL     1      42.798  10.725  12.960  0.00  0.00    +0.000 HD
BRANCH   8  16
ATOM     12  C   UNL     1      38.236  10.389  11.613  0.00  0.00    +0.000 A 
ATOM     13  C   UNL     1      38.050  11.263  12.692  0.00  0.00    +0.000 A 
ATOM     14  C   UNL     1      39.136  11.972  13.209  0.00  0.00    +0.000 A 
ATOM     15  C   UNL     1      40.407  11.805  12.653  0.00  0.00    +0.000 A 
ATOM     16  C   UNL     1      40.599  10.936  11.572  0.00  0.00    +0.000 A 
ATOM     17  C   UNL     1      39.511  10.222  11.057  0.00  0.00    +0.000 A 
BRANCH  12  19
ATOM     18  N   UNL     1      36.004   9.425  11.832  0.00  0.00    +0.000 N 
ATOM     19  C   UNL     1      37.122   9.574  11.062  0.00  0.00    +0.000 C 
ATOM     20  O   UNL     1      37.188   9.080   9.944  0.00  0.00    +0.000 OA
ATOM     21  H   UNL     1      35.227   8.940  11.403  0.00  0.00    +0.000 HD
ATOM     22  H   UNL     1      35.812   9.998  12.641  0.00  0.00    +0.000 HD
ENDBRANCH  12  19
ENDBRANCH   8  16
ENDBRANCH   7  10
ENDBRANCH   1   7
BRANCH   4  23
ATOM     23  C   UNL     1      46.360   5.318  13.056  0.00  0.00    +0.000 C 
BRANCH  23  24
ATOM     24  N   UNL     1      46.917   5.339  14.385  0.00  0.00    +0.000 N 
ATOM     25  C   UNL     1      47.356   4.186  14.984  0.00  0.00    +0.000 C 
ATOM     26  O   UNL     1      47.343   3.104  14.402  0.00  0.00    +0.000 OA
ATOM     27  H   UNL     1      46.715   6.153  14.956  0.00  0.00    +0.000 HD
BRANCH  25  28
ATOM     28  C   UNL     1      47.908   4.318  16.340  0.00  0.00    +0.000 A 
ATOM     29  C   UNL     1      47.443   3.492  17.355  0.00  0.00    +0.000 A 
ATOM     30  S   UNL     1      48.237   3.730  18.847  0.00  0.00    +0.000 S 
ATOM     31  C   UNL     1      49.189   4.983  18.203  0.00  0.00    +0.000 A 
ATOM     32  N   UNL     1      50.091   5.647  18.977  0.00  0.00    +0.000 NA
ATOM     33  C   UNL     1      50.720   6.596  18.368  0.00  0.00    +0.000 A 
ATOM     34  N   UNL     1      50.531   6.940  17.054  0.00  0.00    +0.000 N 
ATOM     35  C   UNL     1      49.650   6.284  16.229  0.00  0.00    +0.000 A 
ATOM     36  O   UNL     1      49.528   6.598  15.050  0.00  0.00    +0.000 OA
ATOM     37  C   UNL     1      48.914   5.209  16.865  0.00  0.00    +0.000 A 
ATOM     38  H   UNL     1      51.057   7.693  16.636  0.00  0.00    +0.000 HD
ENDBRANCH  25  28
ENDBRANCH  23  24
ENDBRANCH   4  23
TORSDOF 7
ENDMDL
MODEL 5
REMARK VINA RESULT:    -7.505      3.276      9.334
REMARK INTER + INTRA:         -11.413
REMARK INTER:                 -10.215
REMARK INTRA:                  -1.198
REMARK UNBOUND:                -0.838
REMARK  Name = 
REMARK  7 active torsions:
REMARK  status: ('A' for Active; 'I' for Inactive)
REMARK    1  A    between atoms: C_2  and  C_4
REMARK    2  A    between atoms: C_8  and  C_9
REMARK    3  A    between atoms: N_11  and  C_12
REMARK    4  A    between atoms: C_12  and  C_13
REMARK    5  A    between atoms: C_16  and  C_17
REMARK    6  A    between atoms: C_17  and  N_18
REMARK    7  A    between atoms: C_19  and  C_21
REMARK                            x       y       z     vdW  Elec       q    Type
REMARK                         _______ _______ _______ _____ _____    ______ ____
ROOT
ATOM      1  C   UNL     1      49.176   7.802  16.173  0.00  0.00    +0.000 A 
ATOM      2  C   UNL     1      48.755   6.597  15.595  0.00  0.00    +0.000 A 
ATOM      3  C   UNL     1      48.177   6.581  14.320  0.00  0.00    +0.000 A 
ATOM      4  C   UNL     1      48.027   7.767  13.589  0.00  0.00    +0.000 A 
ATOM      5  C   UNL     1      48.425   8.974  14.179  0.00  0.00    +0.000 A 
ATOM      6  C   UNL     1      49.004   8.990  15.451  0.00  0.00    +0.000 A 
ENDROOT
BRANCH   1   7
ATOM      7  C   UNL     1      49.837   7.815  17.527  0.00  0.00    +0.000 C 
BRANCH   7  10
ATOM      8  C   UNL     1      51.779   6.316  17.497  0.00  0.00    +0.000 C 
ATOM      9  O   UNL     1      52.504   7.163  16.988  0.00  0.00    +0.000 OA
ATOM     10  N   UNL     1      50.459   6.544  17.823  0.00  0.00    +0.000 N 
ATOM     11  H   UNL     1      49.944   5.880  18.386  0.00  0.00    +0.000 HD
BRANCH   8  16
ATOM     12  C   UNL     1      52.158   2.545  17.810  0.00  0.00    +0.000 A 
ATOM     13  C   UNL     1      53.452   2.454  18.341  0.00  0.00    +0.000 A 
ATOM     14  C   UNL     1      54.176   3.617  18.609  0.00  0.00    +0.000 A 
ATOM     15  C   UNL     1      53.615   4.868  18.343  0.00  0.00    +0.000 A 
ATOM     16  C   UNL     1      52.320   4.966  17.816  0.00  0.00    +0.000 A 
ATOM     17  C   UNL     1      51.595   3.801  17.543  0.00  0.00    +0.000 A 
BRANCH  12  19
ATOM     18  N   UNL     1      51.642   0.182  18.132  0.00  0.00    +0.000 N 
ATOM     19  C   UNL     1      51.367   1.337  17.459  0.00  0.00    +0.000 C 
ATOM     20  O   UNL     1      50.475   1.382  16.621  0.00  0.00    +0.000 OA
ATOM     21  H   UNL     1      51.034  -0.604  17.940  0.00  0.00    +0.000 HD
ATOM     22  H   UNL     1      52.190   0.155  18.979  0.00  0.00    +0.000 HD
ENDBRANCH  12  19
ENDBRANCH   8  16
ENDBRANCH   7  10
ENDBRANCH   1   7
BRANCH   4  23
ATOM     23  C   UNL     1      47.432   7.755  12.204  0.00  0.00    +0.000 C 
BRANCH  23  24
ATOM     24  N   UNL     1      46.783   6.502  11.915  0.00  0.00    +0.000 N 
ATOM     25  C   UNL     1      45.415   6.402  11.904  0.00  0.00    +0.000 C 
ATOM     26  O   UNL     1      44.689   7.377  12.085  0.00  0.00    +0.000 OA
ATOM     27  H   UNL     1      47.344   5.661  12.005  0.00  0.00    +0.000 HD
BRANCH  25  28
ATOM     28  C   UNL     1      44.854   5.079  11.597  0.00  0.00    +0.000 A 
ATOM     29  C   UNL     1      44.144   4.389  12.572  0.00  0.00    +0.000 A 
ATOM     30  S   UNL     1      43.505   2.903  12.029  0.00  0.00    +0.000 S 
ATOM     31  C   UNL     1      44.203   3.102  10.491  0.00  0.00    +0.000 A 
ATOM     32  N   UNL     1      44.053   2.155   9.526  0.00  0.00    +0.000 NA
ATOM     33  C   UNL     1      44.663   2.419   8.419  0.00  0.00    +0.000 A 
ATOM     34  N   UNL     1      45.407   3.548   8.188  0.00  0.00    +0.000 N 
ATOM     35  C   UNL     1      45.567   4.541   9.124  0.00  0.00    +0.000 A 
ATOM     36  O   UNL     1      46.215   5.552   8.875  0.00  0.00    +0.000 OA
ATOM     37  C   UNL     1      44.903   4.292  10.389  0.00  0.00    +0.000 A 
ATOM     38  H   UNL     1      45.859   3.697   7.298  0.00  0.00    +0.000 HD
ENDBRANCH  25  28
ENDBRANCH  23  24
ENDBRANCH   4  23
TORSDOF 7
ENDMDL
MODEL 6
REMARK VINA RESULT:    -7.390      5.513     10.386
REMARK INTER + INTRA:         -11.252
REMARK INTER:                 -10.291
REMARK INTRA:                  -0.962
REMARK UNBOUND:                -0.838
REMARK  Name = 
REMARK  7 active torsions:
REMARK  status: ('A' for Active; 'I' for Inactive)
REMARK    1  A    between atoms: C_2  and  C_4
REMARK    2  A    between atoms: C_8  and  C_9
REMARK    3  A    between atoms: N_11  and  C_12
REMARK    4  A    between atoms: C_12  and  C_13
REMARK    5  A    between atoms: C_16  and  C_17
REMARK    6  A    between atoms: C_17  and  N_18
REMARK    7  A    between atoms: C_19  and  C_21
REMARK                            x       y       z     vdW  Elec       q    Type
REMARK                         _______ _______ _______ _____ _____    ______ ____
ROOT
ATOM      1  C   UNL     1      51.422   3.071  17.619  0.00  0.00    +0.000 A 
ATOM      2  C   UNL     1      50.810   4.311  17.850  0.00  0.00    +0.000 A 
ATOM      3  C   UNL     1      49.441   4.485  17.615  0.00  0.00    +0.000 A 
ATOM      4  C   UNL     1      48.653   3.418  17.164  0.00  0.00    +0.000 A 
ATOM      5  C   UNL     1      49.271   2.187  16.910  0.00  0.00    +0.000 A 
ATOM      6  C   UNL     1      50.638   2.012  17.146  0.00  0.00    +0.000 A 
ENDROOT
BRANCH   1   7
ATOM      7  C   UNL     1      52.887   2.872  17.911  0.00  0.00    +0.000 C 
BRANCH   7  10
ATOM      8  C   UNL     1      54.255   0.901  17.401  0.00  0.00    +0.000 C 
ATOM      9  O   UNL     1      54.995   1.530  16.653  0.00  0.00    +0.000 OA
ATOM     10  N   UNL     1      53.205   1.472  18.086  0.00  0.00    +0.000 N 
ATOM     11  H   UNL     1      52.723   0.960  18.813  0.00  0.00    +0.000 HD
BRANCH   8  16
ATOM     12  C   UNL     1      54.292  -2.562  18.972  0.00  0.00    +0.000 A 
ATOM     13  C   UNL     1      54.847  -3.317  17.931  0.00  0.00    +0.000 A 
ATOM     14  C   UNL     1      55.220  -2.691  16.740  0.00  0.00    +0.000 A 
ATOM     15  C   UNL     1      55.035  -1.315  16.587  0.00  0.00    +0.000 A 
ATOM     16  C   UNL     1      54.485  -0.554  17.626  0.00  0.00    +0.000 A 
ATOM     17  C   UNL     1      54.106  -1.182  18.817  0.00  0.00    +0.000 A 
BRANCH  12  19
ATOM     18  N   UNL     1      54.488  -4.307  20.668  0.00  0.00    +0.000 N 
ATOM     19  C   UNL     1      53.831  -3.190  20.238  0.00  0.00    +0.000 C 
ATOM     20  O   UNL     1      52.917  -2.705  20.893  0.00  0.00    +0.000 OA
ATOM     21  H   UNL     1      54.216  -4.666  21.574  0.00  0.00    +0.000 HD
ATOM     22  H   UNL     1      55.381  -4.598  20.297  0.00  0.00    +0.000 HD
ENDBRANCH  12  19
ENDBRANCH   8  16
ENDBRANCH   7  10
ENDBRANCH   1   7
BRANCH   4  23
ATOM     23  C   UNL     1      47.172   3.588  16.936  0.00  0.00    +0.000 C 
BRANCH  23  24
ATOM     24  N   UNL     1      46.901   4.586  15.934  0.00  0.00    +0.000 N 
ATOM     25  C   UNL     1      46.970   4.282  14.598  0.00  0.00    +0.000 C 
ATOM     26  O   UNL     1      47.213   3.145  14.201  0.00  0.00    +0.000 OA
ATOM     27  H   UNL     1      46.941   5.557  16.227  0.00  0.00    +0.000 HD
BRANCH  25  28
ATOM     28  C   UNL     1      46.675   5.372  13.659  0.00  0.00    +0.000 A 
ATOM     29  C   UNL     1      47.660   6.301  13.348  0.00  0.00    +0.000 A 
ATOM     30  S   UNL     1      47.171   7.456  12.192  0.00  0.00    +0.000 S 
ATOM     31  C   UNL     1      45.608   6.791  12.107  0.00  0.00    +0.000 A 
ATOM     32  N   UNL     1      44.659   7.332  11.296  0.00  0.00    +0.000 NA
ATOM     33  C   UNL     1      43.509   6.748  11.355  0.00  0.00    +0.000 A 
ATOM     34  N   UNL     1      43.223   5.668  12.151  0.00  0.00    +0.000 N 
ATOM     35  C   UNL     1      44.155   5.074  12.968  0.00  0.00    +0.000 A 
ATOM     36  O   UNL     1      43.873   4.091  13.644  0.00  0.00    +0.000 OA
ATOM     37  C   UNL     1      45.465   5.695  12.940  0.00  0.00    +0.000 A 
ATOM     38  H   UNL     1      42.302   5.255  12.151  0.00  0.00    +0.000 HD
ENDBRANCH  25  28
ENDBRANCH  23  24
ENDBRANCH   4  23
TORSDOF 7
ENDMDL
MODEL 7
REMARK VINA RESULT:    -7.380      2.238      2.655
REMARK INTER + INTRA:         -11.238
REMARK INTER:                 -10.201
REMARK INTRA:                  -1.037
REMARK UNBOUND:                -0.838
REMARK  Name = 
REMARK  7 active torsions:
REMARK  status: ('A' for Active; 'I' for Inactive)
REMARK    1  A    between atoms: C_2  and  C_4
REMARK    2  A    between atoms: C_8  and  C_9
REMARK    3  A    between atoms: N_11  and  C_12
REMARK    4  A    between atoms: C_12  and  C_13
REMARK    5  A    between atoms: C_16  and  C_17
REMARK    6  A    between atoms: C_17  and  N_18
REMARK    7  A    between atoms: C_19  and  C_21
REMARK                            x       y       z     vdW  Elec       q    Type
REMARK                         _______ _______ _______ _____ _____    ______ ____
ROOT
ATOM      1  C   UNL     1      46.078   7.250  12.307  0.00  0.00    +0.000 A 
ATOM      2  C   UNL     1      46.239   8.523  12.870  0.00  0.00    +0.000 A 
ATOM      3  C   UNL     1      47.196   8.745  13.867  0.00  0.00    +0.000 A 
ATOM      4  C   UNL     1      48.024   7.704  14.308  0.00  0.00    +0.000 A 
ATOM      5  C   UNL     1      47.845   6.427  13.761  0.00  0.00    +0.000 A 
ATOM      6  C   UNL     1      46.891   6.205  12.763  0.00  0.00    +0.000 A 
ENDROOT
BRANCH   1   7
ATOM      7  C   UNL     1      45.078   7.019  11.203  0.00  0.00    +0.000 C 
BRANCH   7  10
ATOM      8  C   UNL     1      44.447   4.926  10.091  0.00  0.00    +0.000 C 
ATOM      9  O   UNL     1      43.265   5.049  10.392  0.00  0.00    +0.000 OA
ATOM     10  N   UNL     1      45.414   5.850  10.421  0.00  0.00    +0.000 N 
ATOM     11  H   UNL     1      46.340   5.795  10.018  0.00  0.00    +0.000 HD
BRANCH   8  16
ATOM     12  C   UNL     1      46.301   2.703   7.625  0.00  0.00    +0.000 A 
ATOM     13  C   UNL     1      45.774   1.447   7.956  0.00  0.00    +0.000 A 
ATOM     14  C   UNL     1      44.811   1.340   8.961  0.00  0.00    +0.000 A 
ATOM     15  C   UNL     1      44.377   2.482   9.638  0.00  0.00    +0.000 A 
ATOM     16  C   UNL     1      44.897   3.741   9.309  0.00  0.00    +0.000 A 
ATOM     17  C   UNL     1      45.866   3.848   8.306  0.00  0.00    +0.000 A 
BRANCH  12  19
ATOM     18  N   UNL     1      47.079   3.623   5.503  0.00  0.00    +0.000 N 
ATOM     19  C   UNL     1      47.365   2.863   6.601  0.00  0.00    +0.000 C 
ATOM     20  O   UNL     1      48.472   2.361   6.749  0.00  0.00    +0.000 OA
ATOM     21  H   UNL     1      47.844   3.791   4.862  0.00  0.00    +0.000 HD
ATOM     22  H   UNL     1      46.281   4.240   5.453  0.00  0.00    +0.000 HD
ENDBRANCH  12  19
ENDBRANCH   8  16
ENDBRANCH   7  10
ENDBRANCH   1   7
BRANCH   4  23
ATOM     23  C   UNL     1      49.076   7.941  15.361  0.00  0.00    +0.000 C 
BRANCH  23  24
ATOM     24  N   UNL     1      48.527   7.855  16.690  0.00  0.00    +0.000 N 
ATOM     25  C   UNL     1      49.087   8.548  17.732  0.00  0.00    +0.000 C 
ATOM     26  O   UNL     1      50.041   9.307  17.571  0.00  0.00    +0.000 OA
ATOM     27  H   UNL     1      47.915   7.068  16.885  0.00  0.00    +0.000 HD
BRANCH  25  28
ATOM     28  C   UNL     1      48.450   8.391  19.046  0.00  0.00    +0.000 A 
ATOM     29  C   UNL     1      47.931   9.503  19.697  0.00  0.00    +0.000 A 
ATOM     30  S   UNL     1      47.166   9.134  21.177  0.00  0.00    +0.000 S 
ATOM     31  C   UNL     1      47.551   7.484  21.027  0.00  0.00    +0.000 A 
ATOM     32  N   UNL     1      47.194   6.590  21.990  0.00  0.00    +0.000 NA
ATOM     33  C   UNL     1      47.579   5.379  21.763  0.00  0.00    +0.000 A 
ATOM     34  N   UNL     1      48.287   4.979  20.659  0.00  0.00    +0.000 N 
ATOM     35  C   UNL     1      48.649   5.840  19.651  0.00  0.00    +0.000 A 
ATOM     36  O   UNL     1      49.256   5.443  18.663  0.00  0.00    +0.000 OA
ATOM     37  C   UNL     1      48.243   7.216  19.858  0.00  0.00    +0.000 A 
ATOM     38  H   UNL     1      48.558   4.014  20.539  0.00  0.00    +0.000 HD
ENDBRANCH  25  28
ENDBRANCH  23  24
ENDBRANCH   4  23
TORSDOF 7
ENDMDL
MODEL 8
REMARK VINA RESULT:    -7.368      2.816      4.387
REMARK INTER + INTRA:         -11.221
REMARK INTER:                 -10.153
REMARK INTRA:                  -1.068
REMARK UNBOUND:                -0.838
REMARK  Name = 
REMARK  7 active torsions:
REMARK  status: ('A' for Active; 'I' for Inactive)
REMARK    1  A    between atoms: C_2  and  C_4
REMARK    2  A    between atoms: C_8  and  C_9
REMARK    3  A    between atoms: N_11  and  C_12
REMARK    4  A    between atoms: C_12  and  C_13
REMARK    5  A    between atoms: C_16  and  C_17
REMARK    6  A    between atoms: C_17  and  N_18
REMARK    7  A    between atoms: C_19  and  C_21
REMARK                            x       y       z     vdW  Elec       q    Type
REMARK                         _______ _______ _______ _____ _____    ______ ____
ROOT
ATOM      1  C   UNL     1      48.228   7.953  13.575  0.00  0.00    +0.000 A 
ATOM      2  C   UNL     1      47.992   9.033  14.438  0.00  0.00    +0.000 A 
ATOM      3  C   UNL     1      48.527   9.041  15.731  0.00  0.00    +0.000 A 
ATOM      4  C   UNL     1      49.323   7.980  16.182  0.00  0.00    +0.000 A 
ATOM      5  C   UNL     1      49.537   6.891  15.327  0.00  0.00    +0.000 A 
ATOM      6  C   UNL     1      49.005   6.883  14.034  0.00  0.00    +0.000 A 
ENDROOT
BRANCH   1   7
ATOM      7  C   UNL     1      47.689   7.963  12.168  0.00  0.00    +0.000 C 
BRANCH   7  10
ATOM      8  C   UNL     1      45.588   6.697  12.177  0.00  0.00    +0.000 C 
ATOM      9  O   UNL     1      44.952   7.634  12.646  0.00  0.00    +0.000 OA
ATOM     10  N   UNL     1      46.932   6.763  11.884  0.00  0.00    +0.000 N 
ATOM     11  H   UNL     1      47.382   6.031  11.351  0.00  0.00    +0.000 HD
BRANCH   8  16
ATOM     12  C   UNL     1      44.444   3.527  10.415  0.00  0.00    +0.000 A 
ATOM     13  C   UNL     1      43.670   2.932  11.420  0.00  0.00    +0.000 A 
ATOM     14  C   UNL     1      43.513   3.575  12.649  0.00  0.00    +0.000 A 
ATOM     15  C   UNL     1      44.131   4.807  12.877  0.00  0.00    +0.000 A 
ATOM     16  C   UNL     1      44.903   5.409  11.875  0.00  0.00    +0.000 A 
ATOM     17  C   UNL     1      45.064   4.762  10.645  0.00  0.00    +0.000 A 
BRANCH  12  19
ATOM     18  N   UNL     1      44.346   3.541   7.976  0.00  0.00    +0.000 N 
ATOM     19  C   UNL     1      44.685   2.859   9.109  0.00  0.00    +0.000 C 
ATOM     20  O   UNL     1      45.200   1.750   9.047  0.00  0.00    +0.000 OA
ATOM     21  H   UNL     1      44.598   3.105   7.099  0.00  0.00    +0.000 HD
ATOM     22  H   UNL     1      44.145   4.531   7.968  0.00  0.00    +0.000 HD
ENDBRANCH  12  19
ENDBRANCH   8  16
ENDBRANCH   7  10
ENDBRANCH   1   7
BRANCH   4  23
ATOM     23  C   UNL     1      49.926   7.994  17.563  0.00  0.00    +0.000 C 
BRANCH  23  24
ATOM     24  N   UNL     1      50.859   6.911  17.746  0.00  0.00    +0.000 N 
ATOM     25  C   UNL     1      50.557   5.850  18.561  0.00  0.00    +0.000 C 
ATOM     26  O   UNL     1      49.469   5.750  19.123  0.00  0.00    +0.000 OA
ATOM     27  H   UNL     1      51.827   7.090  17.497  0.00  0.00    +0.000 HD
BRANCH  25  28
ATOM     28  C   UNL     1      51.577   4.799  18.678  0.00  0.00    +0.000 A 
ATOM     29  C   UNL     1      52.751   5.054  19.376  0.00  0.00    +0.000 A 
ATOM     30  S   UNL     1      53.794   3.707  19.473  0.00  0.00    +0.000 S 
ATOM     31  C   UNL     1      52.740   2.754  18.538  0.00  0.00    +0.000 A 
ATOM     32  N   UNL     1      53.051   1.466  18.226  0.00  0.00    +0.000 NA
ATOM     33  C   UNL     1      52.178   0.871  17.483  0.00  0.00    +0.000 A 
ATOM     34  N   UNL     1      51.019   1.447  17.027  0.00  0.00    +0.000 N 
ATOM     35  C   UNL     1      50.653   2.735  17.336  0.00  0.00    +0.000 A 
ATOM     36  O   UNL     1      49.596   3.209  16.936  0.00  0.00    +0.000 OA
ATOM     37  C   UNL     1      51.603   3.450  18.167  0.00  0.00    +0.000 A 
ATOM     38  H   UNL     1      50.375   0.927  16.450  0.00  0.00    +0.000 HD
ENDBRANCH  25  28
ENDBRANCH  23  24
ENDBRANCH   4  23
TORSDOF 7
ENDMDL
MODEL 9
REMARK VINA RESULT:    -7.349      2.029      2.686
REMARK INTER + INTRA:         -11.193
REMARK INTER:                 -10.191
REMARK INTRA:                  -1.002
REMARK UNBOUND:                -0.838
REMARK  Name = 
REMARK  7 active torsions:
REMARK  status: ('A' for Active; 'I' for Inactive)
REMARK    1  A    between atoms: C_2  and  C_4
REMARK    2  A    between atoms: C_8  and  C_9
REMARK    3  A    between atoms: N_11  and  C_12
REMARK    4  A    between atoms: C_12  and  C_13
REMARK    5  A    between atoms: C_16  and  C_17
REMARK    6  A    between atoms: C_17  and  N_18
REMARK    7  A    between atoms: C_19  and  C_21
REMARK                            x       y       z     vdW  Elec       q    Type
REMARK                         _______ _______ _______ _____ _____    ______ ____
ROOT
ATOM      1  C   UNL     1      45.946   7.284  12.016  0.00  0.00    +0.000 A 
ATOM      2  C   UNL     1      46.908   6.352  12.429  0.00  0.00    +0.000 A 
ATOM      3  C   UNL     1      47.855   6.689  13.403  0.00  0.00    +0.000 A 
ATOM      4  C   UNL     1      47.847   7.957  13.998  0.00  0.00    +0.000 A 
ATOM      5  C   UNL     1      46.900   8.895  13.566  0.00  0.00    +0.000 A 
ATOM      6  C   UNL     1      45.953   8.559  12.595  0.00  0.00    +0.000 A 
ENDROOT
BRANCH   1   7
ATOM      7  C   UNL     1      44.899   6.908  10.999  0.00  0.00    +0.000 C 
BRANCH   7  10
ATOM      8  C   UNL     1      44.385   4.729   9.997  0.00  0.00    +0.000 C 
ATOM      9  O   UNL     1      43.212   4.774  10.348  0.00  0.00    +0.000 OA
ATOM     10  N   UNL     1      45.291   5.737  10.246  0.00  0.00    +0.000 N 
ATOM     11  H   UNL     1      46.199   5.736   9.802  0.00  0.00    +0.000 HD
BRANCH   8  16
ATOM     12  C   UNL     1      46.374   2.538   7.608  0.00  0.00    +0.000 A 
ATOM     13  C   UNL     1      45.871   1.271   7.933  0.00  0.00    +0.000 A 
ATOM     14  C   UNL     1      44.881   1.146   8.908  0.00  0.00    +0.000 A 
ATOM     15  C   UNL     1      44.395   2.281   9.562  0.00  0.00    +0.000 A 
ATOM     16  C   UNL     1      44.891   3.551   9.239  0.00  0.00    +0.000 A 
ATOM     17  C   UNL     1      45.887   3.676   8.265  0.00  0.00    +0.000 A 
BRANCH  12  19
ATOM     18  N   UNL     1      47.203   3.489   5.519  0.00  0.00    +0.000 N 
ATOM     19  C   UNL     1      47.466   2.719   6.616  0.00  0.00    +0.000 C 
ATOM     20  O   UNL     1      48.573   2.227   6.791  0.00  0.00    +0.000 OA
ATOM     21  H   UNL     1      47.985   3.670   4.902  0.00  0.00    +0.000 HD
ATOM     22  H   UNL     1      46.401   4.098   5.452  0.00  0.00    +0.000 HD
ENDBRANCH  12  19
ENDBRANCH   8  16
ENDBRANCH   7  10
ENDBRANCH   1   7
BRANCH   4  23
ATOM     23  C   UNL     1      48.845   8.319  15.068  0.00  0.00    +0.000 C 
BRANCH  23  24
ATOM     24  N   UNL     1      48.573   7.629  16.303  0.00  0.00    +0.000 N 
ATOM     25  C   UNL     1      49.418   6.654  16.768  0.00  0.00    +0.000 C 
ATOM     26  O   UNL     1      50.460   6.365  16.186  0.00  0.00    +0.000 OA
ATOM     27  H   UNL     1      47.623   7.678  16.658  0.00  0.00    +0.000 HD
BRANCH  25  28
ATOM     28  C   UNL     1      49.048   6.013  18.037  0.00  0.00    +0.000 A 
ATOM     29  C   UNL     1      49.233   4.646  18.198  0.00  0.00    +0.000 A 
ATOM     30  S   UNL     1      48.817   4.077  19.752  0.00  0.00    +0.000 S 
ATOM     31  C   UNL     1      48.322   5.628  20.246  0.00  0.00    +0.000 A 
ATOM     32  N   UNL     1      47.828   5.840  21.496  0.00  0.00    +0.000 NA
ATOM     33  C   UNL     1      47.460   7.057  21.725  0.00  0.00    +0.000 A 
ATOM     34  N   UNL     1      47.544   8.081  20.818  0.00  0.00    +0.000 N 
ATOM     35  C   UNL     1      48.056   7.919  19.553  0.00  0.00    +0.000 A 
ATOM     36  O   UNL     1      48.145   8.864  18.777  0.00  0.00    +0.000 OA
ATOM     37  C   UNL     1      48.483   6.568  19.243  0.00  0.00    +0.000 A 
ATOM     38  H   UNL     1      47.239   9.013  21.059  0.00  0.00    +0.000 HD
ENDBRANCH  25  28
ENDBRANCH  23  24
ENDBRANCH   4  23
TORSDOF 7
ENDMDL
