MODEL 1
REMARK VINA RESULT:    -7.512      0.000      0.000
REMARK INTER + INTRA:         -11.442
REMARK INTER:                 -10.147
REMARK INTRA:                  -1.296
REMARK UNBOUND:                -1.296
REMARK  Name = 
REMARK  7 active torsions:
REMARK  status: ('A' for Active; 'I' for Inactive)
REMARK    1  A    between atoms: C_1  and  C_2
REMARK    2  A    between atoms: C_2  and  N_3
REMARK    3  A    between atoms: N_3  and  C_4
REMARK    4  A    between atoms: C_4  and  C_5
REMARK    5  A    between atoms: C_8  and  C_9
REMARK    6  A    between atoms: C_9  and  N_10
REMARK    7  A    between atoms: C_18  and  C_20
REMARK                            x       y       z     vdW  Elec       q    Type
REMARK                         _______ _______ _______ _____ _____    ______ ____
ROOT
ATOM      1  N   UNL     1      46.027   7.169  12.041  0.00  0.00    +0.000 N 
ATOM      2  C   UNL     1      44.768   6.701  11.634  0.00  0.00    +0.000 C 
ATOM      3  O   UNL     1      43.840   7.473  11.396  0.00  0.00    +0.000 OA
ENDROOT
BRANCH   2   4
ATOM      4  C   UNL     1      44.527   5.260  11.536  0.00  0.00    +0.000 A 
ATOM      5  C   UNL     1      43.817   4.520  12.466  0.00  0.00    +0.000 A 
ATOM      6  S   UNL     1      43.595   2.890  12.004  0.00  0.00    +0.000 S 
ATOM      7  C   UNL     1      44.333   3.162  10.492  0.00  0.00    +0.000 A 
ATOM      8  N   UNL     1      44.380   2.188   9.543  0.00  0.00    +0.000 NA
ATOM      9  C   UNL     1      44.904   2.569   8.425  0.00  0.00    +0.000 A 
ATOM     10  N   UNL     1      45.416   3.818   8.182  0.00  0.00    +0.000 N 
ATOM     11  C   UNL     1      45.516   4.787   9.155  0.00  0.00    +0.000 A 
ATOM     12  O   UNL     1      46.195   5.795   8.985  0.00  0.00    +0.000 OA
ATOM     13  C   UNL     1      44.827   4.447  10.387  0.00  0.00    +0.000 A 
ATOM     14  H   UNL     1      45.871   4.027   7.306  0.00  0.00    +0.000 HD
ENDBRANCH   2   4
BRANCH   1  16
ATOM     15  C   UNL     1      47.524   9.166  11.946  0.00  0.00    +0.000 C 
ATOM     16  C   UNL     1      46.132   8.621  12.249  0.00  0.00    +0.000 C 
ENDBRANCH   1  16
BRANCH   1  17
ATOM     17  C   UNL     1      47.185   6.290  12.297  0.00  0.00    +0.000 C 
BRANCH  17  18
ATOM     18  C   UNL     1      47.422   5.927  13.739  0.00  0.00    +0.000 A 
ATOM     19  C   UNL     1      48.280   6.703  14.534  0.00  0.00    +0.000 A 
ATOM     20  C   UNL     1      48.713   6.227  15.770  0.00  0.00    +0.000 A 
ATOM     21  C   UNL     1      48.281   4.980  16.232  0.00  0.00    +0.000 A 
ATOM     22  C   UNL     1      47.326   4.266  15.493  0.00  0.00    +0.000 A 
ATOM     23  C   UNL     1      46.895   4.740  14.257  0.00  0.00    +0.000 A 
BRANCH  21  24
ATOM     24  C   UNL     1      48.928   4.339  17.439  0.00  0.00    +0.000 C 
BRANCH  24  25
ATOM     25  N   UNL     1      50.251   3.735  17.194  0.00  0.00    +0.000 NA
ATOM     26  C   UNL     1      51.266   4.337  18.075  0.00  0.00    +0.000 C 
ATOM     27  C   UNL     1      52.627   3.658  17.925  0.00  0.00    +0.000 C 
ATOM     28  C   UNL     1      52.519   2.164  18.198  0.00  0.00    +0.000 C 
ATOM     29  C   UNL     1      51.471   1.549  17.282  0.00  0.00    +0.000 C 
ATOM     30  C   UNL     1      50.137   2.281  17.405  0.00  0.00    +0.000 C 
ENDBRANCH  24  25
ENDBRANCH  21  24
ENDBRANCH  17  18
ENDBRANCH   1  17
TORSDOF 6
ENDMDL
MODEL 2
REMARK VINA RESULT:    -7.196      1.722      2.461
REMARK INTER + INTRA:         -11.015
REMARK INTER:                  -9.690
REMARK INTRA:                  -1.325
REMARK UNBOUND:                -1.296
REMARK  Name = 
REMARK  7 active torsions:
REMARK  status: ('A' for Active; 'I' for Inactive)
REMARK    1  A    between atoms: C_1  and  C_2
REMARK    2  A    between atoms: C_2  and  N_3
REMARK    3  A    between atoms: N_3  and  C_4
REMARK    4  A    between atoms: C_4  and  C_5
REMARK    5  A    between atoms: C_8  and  C_9
REMARK    6  A    between atoms: C_9  and  N_10
REMARK    7  A    between atoms: C_18  and  C_20
REMARK                            x       y       z     vdW  Elec       q    Type
REMARK                         _______ _______ _______ _____ _____    ______ ____
ROOT
ATOM      1  N   UNL     1      46.442   7.136  12.200  0.00  0.00    +0.000 N 
ATOM      2  C   UNL     1      45.163   6.810  11.722  0.00  0.00    +0.000 C 
ATOM      3  O   UNL     1      44.359   7.680  11.390  0.00  0.00    +0.000 OA
ENDROOT
BRANCH   2   4
ATOM      4  C   UNL     1      44.749   5.407  11.660  0.00  0.00    +0.000 A 
ATOM      5  C   UNL     1      44.018   4.763  12.644  0.00  0.00    +0.000 A 
ATOM      6  S   UNL     1      43.576   3.167  12.221  0.00  0.00    +0.000 S 
ATOM      7  C   UNL     1      44.241   3.339  10.661  0.00  0.00    +0.000 A 
ATOM      8  N   UNL     1      44.112   2.361   9.726  0.00  0.00    +0.000 NA
ATOM      9  C   UNL     1      44.603   2.669   8.571  0.00  0.00    +0.000 A 
ATOM     10  N   UNL     1      45.241   3.846   8.277  0.00  0.00    +0.000 N 
ATOM     11  C   UNL     1      45.518   4.804   9.229  0.00  0.00    +0.000 A 
ATOM     12  O   UNL     1      46.298   5.723   9.001  0.00  0.00    +0.000 OA
ATOM     13  C   UNL     1      44.875   4.556  10.506  0.00  0.00    +0.000 A 
ATOM     14  H   UNL     1      45.661   3.995   7.372  0.00  0.00    +0.000 HD
ENDBRANCH   2   4
BRANCH   1  16
ATOM     15  C   UNL     1      48.124   8.961  11.919  0.00  0.00    +0.000 C 
ATOM     16  C   UNL     1      46.717   8.572  12.361  0.00  0.00    +0.000 C 
ENDBRANCH   1  16
BRANCH   1  17
ATOM     17  C   UNL     1      47.460   6.132  12.570  0.00  0.00    +0.000 C 
BRANCH  17  18
ATOM     18  C   UNL     1      47.596   5.855  14.044  0.00  0.00    +0.000 A 
ATOM     19  C   UNL     1      48.454   6.634  14.836  0.00  0.00    +0.000 A 
ATOM     20  C   UNL     1      48.790   6.219  16.123  0.00  0.00    +0.000 A 
ATOM     21  C   UNL     1      48.260   5.032  16.639  0.00  0.00    +0.000 A 
ATOM     22  C   UNL     1      47.306   4.324  15.893  0.00  0.00    +0.000 A 
ATOM     23  C   UNL     1      46.972   4.737  14.605  0.00  0.00    +0.000 A 
BRANCH  21  24
ATOM     24  C   UNL     1      48.801   4.439  17.920  0.00  0.00    +0.000 C 
BRANCH  24  25
ATOM     25  N   UNL     1      48.773   5.339  19.088  0.00  0.00    +0.000 NA
ATOM     26  C   UNL     1      47.401   5.800  19.354  0.00  0.00    +0.000 C 
ATOM     27  C   UNL     1      47.319   6.647  20.623  0.00  0.00    +0.000 C 
ATOM     28  C   UNL     1      47.851   5.876  21.823  0.00  0.00    +0.000 C 
ATOM     29  C   UNL     1      49.270   5.406  21.543  0.00  0.00    +0.000 C 
ATOM     30  C   UNL     1      49.339   4.613  20.239  0.00  0.00    +0.000 C 
ENDBRANCH  24  25
ENDBRANCH  21  24
ENDBRANCH  17  18
ENDBRANCH   1  17
TORSDOF 6
ENDMDL
MODEL 3
REMARK VINA RESULT:    -7.051      1.342      2.033
REMARK INTER + INTRA:         -10.819
REMARK INTER:                  -9.497
REMARK INTRA:                  -1.322
REMARK UNBOUND:                -1.296
REMARK  Name = 
REMARK  7 active torsions:
REMARK  status: ('A' for Active; 'I' for Inactive)
REMARK    1  A    between atoms: C_1  and  C_2
REMARK    2  A    between atoms: C_2  and  N_3
REMARK    3  A    between atoms: N_3  and  C_4
REMARK    4  A    between atoms: C_4  and  C_5
REMARK    5  A    between atoms: C_8  and  C_9
REMARK    6  A    between atoms: C_9  and  N_10
REMARK    7  A    between atoms: C_18  and  C_20
REMARK                            x       y       z     vdW  Elec       q    Type
REMARK                         _______ _______ _______ _____ _____    ______ ____
ROOT
ATOM      1  N   UNL     1      46.275   7.525  12.249  0.00  0.00    +0.000 N 
ATOM      2  C   UNL     1      45.158   7.329  11.422  0.00  0.00    +0.000 C 
ATOM      3  O   UNL     1      44.311   8.207  11.264  0.00  0.00    +0.000 OA
ENDROOT
BRANCH   2   4
ATOM      4  C   UNL     1      44.961   6.035  10.766  0.00  0.00    +0.000 A 
ATOM      5  C   UNL     1      45.517   5.681   9.548  0.00  0.00    +0.000 A 
ATOM      6  S   UNL     1      45.211   4.057   9.113  0.00  0.00    +0.000 S 
ATOM      7  C   UNL     1      44.437   3.748  10.598  0.00  0.00    +0.000 A 
ATOM      8  N   UNL     1      44.016   2.498  10.930  0.00  0.00    +0.000 NA
ATOM      9  C   UNL     1      43.515   2.409  12.118  0.00  0.00    +0.000 A 
ATOM     10  N   UNL     1      43.364   3.458  12.987  0.00  0.00    +0.000 N 
ATOM     11  C   UNL     1      43.646   4.762  12.642  0.00  0.00    +0.000 A 
ATOM     12  O   UNL     1      43.274   5.701  13.338  0.00  0.00    +0.000 OA
ATOM     13  C   UNL     1      44.327   4.891  11.367  0.00  0.00    +0.000 A 
ATOM     14  H   UNL     1      42.904   3.330  13.876  0.00  0.00    +0.000 HD
ENDBRANCH   2   4
BRANCH   1  16
ATOM     15  C   UNL     1      47.358   9.769  12.425  0.00  0.00    +0.000 C 
ATOM     16  C   UNL     1      46.314   8.803  12.976  0.00  0.00    +0.000 C 
ENDBRANCH   1  16
BRANCH   1  17
ATOM     17  C   UNL     1      47.342   6.522  12.439  0.00  0.00    +0.000 C 
BRANCH  17  18
ATOM     18  C   UNL     1      47.545   6.047  13.853  0.00  0.00    +0.000 A 
ATOM     19  C   UNL     1      48.452   6.705  14.699  0.00  0.00    +0.000 A 
ATOM     20  C   UNL     1      48.844   6.117  15.899  0.00  0.00    +0.000 A 
ATOM     21  C   UNL     1      48.322   4.874  16.277  0.00  0.00    +0.000 A 
ATOM     22  C   UNL     1      47.323   4.282  15.490  0.00  0.00    +0.000 A 
ATOM     23  C   UNL     1      46.933   4.868  14.289  0.00  0.00    +0.000 A 
BRANCH  21  24
ATOM     24  C   UNL     1      48.916   4.110  17.437  0.00  0.00    +0.000 C 
BRANCH  24  25
ATOM     25  N   UNL     1      50.264   3.559  17.201  0.00  0.00    +0.000 NA
ATOM     26  C   UNL     1      51.247   4.195  18.094  0.00  0.00    +0.000 C 
ATOM     27  C   UNL     1      52.635   3.571  17.952  0.00  0.00    +0.000 C 
ATOM     28  C   UNL     1      52.583   2.072  18.216  0.00  0.00    +0.000 C 
ATOM     29  C   UNL     1      51.569   1.422  17.288  0.00  0.00    +0.000 C 
ATOM     30  C   UNL     1      50.205   2.100  17.403  0.00  0.00    +0.000 C 
ENDBRANCH  24  25
ENDBRANCH  21  24
ENDBRANCH  17  18
ENDBRANCH   1  17
TORSDOF 6
ENDMDL
MODEL 4
REMARK VINA RESULT:    -6.607      3.652      8.063
REMARK INTER + INTRA:         -10.220
REMARK INTER:                  -9.244
REMARK INTRA:                  -0.976
REMARK UNBOUND:                -1.296
REMARK  Name = 
REMARK  7 active torsions:
REMARK  status: ('A' for Active; 'I' for Inactive)
REMARK    1  A    between atoms: C_1  and  C_2
REMARK    2  A    between atoms: C_2  and  N_3
REMARK    3  A    between atoms: N_3  and  C_4
REMARK    4  A    between atoms: C_4  and  C_5
REMARK    5  A    between atoms: C_8  and  C_9
REMARK    6  A    between atoms: C_9  and  N_10
REMARK    7  A    between atoms: C_18  and  C_20
REMARK                            x       y       z     vdW  Elec       q    Type
REMARK                         _______ _______ _______ _____ _____    ______ ____
ROOT
ATOM      1  N   UNL     1      49.132   7.791  13.961  0.00  0.00    +0.000 N 
ATOM      2  C   UNL     1      49.979   7.884  15.076  0.00  0.00    +0.000 C 
ATOM      3  O   UNL     1      51.197   7.744  14.974  0.00  0.00    +0.000 OA
ENDROOT
BRANCH   2   4
ATOM      4  C   UNL     1      49.404   8.101  16.405  0.00  0.00    +0.000 A 
ATOM      5  C   UNL     1      49.319   9.335  17.029  0.00  0.00    +0.000 A 
ATOM      6  S   UNL     1      48.478   9.284  18.515  0.00  0.00    +0.000 S 
ATOM      7  C   UNL     1      48.096   7.636  18.304  0.00  0.00    +0.000 A 
ATOM      8  N   UNL     1      47.289   6.979  19.179  0.00  0.00    +0.000 NA
ATOM      9  C   UNL     1      47.033   5.758  18.844  0.00  0.00    +0.000 A 
ATOM     10  N   UNL     1      47.538   5.125  17.738  0.00  0.00    +0.000 N 
ATOM     11  C   UNL     1      48.468   5.705  16.904  0.00  0.00    +0.000 A 
ATOM     12  O   UNL     1      49.085   5.042  16.076  0.00  0.00    +0.000 OA
ATOM     13  C   UNL     1      48.687   7.115  17.169  0.00  0.00    +0.000 A 
ATOM     14  H   UNL     1      47.350   4.148  17.571  0.00  0.00    +0.000 HD
ENDBRANCH   2   4
BRANCH   1  16
ATOM     15  C   UNL     1      49.839   8.586  11.702  0.00  0.00    +0.000 C 
ATOM     16  C   UNL     1      49.784   7.429  12.693  0.00  0.00    +0.000 C 
ENDBRANCH   1  16
BRANCH   1  17
ATOM     17  C   UNL     1      47.670   7.992  14.021  0.00  0.00    +0.000 C 
BRANCH  17  18
ATOM     18  C   UNL     1      46.859   7.174  13.051  0.00  0.00    +0.000 A 
ATOM     19  C   UNL     1      46.080   7.806  12.069  0.00  0.00    +0.000 A 
ATOM     20  C   UNL     1      45.128   7.082  11.355  0.00  0.00    +0.000 A 
ATOM     21  C   UNL     1      44.956   5.715  11.601  0.00  0.00    +0.000 A 
ATOM     22  C   UNL     1      45.822   5.063  12.492  0.00  0.00    +0.000 A 
ATOM     23  C   UNL     1      46.771   5.788  13.208  0.00  0.00    +0.000 A 
BRANCH  21  24
ATOM     24  C   UNL     1      43.772   4.973  11.027  0.00  0.00    +0.000 C 
BRANCH  24  25
ATOM     25  N   UNL     1      44.056   4.177   9.818  0.00  0.00    +0.000 NA
ATOM     26  C   UNL     1      45.248   4.695   9.126  0.00  0.00    +0.000 C 
ATOM     27  C   UNL     1      45.635   3.827   7.929  0.00  0.00    +0.000 C 
ATOM     28  C   UNL     1      45.866   2.385   8.358  0.00  0.00    +0.000 C 
ATOM     29  C   UNL     1      44.629   1.857   9.069  0.00  0.00    +0.000 C 
ATOM     30  C   UNL     1      44.226   2.771  10.224  0.00  0.00    +0.000 C 
ENDBRANCH  24  25
ENDBRANCH  21  24
ENDBRANCH  17  18
ENDBRANCH   1  17
TORSDOF 6
ENDMDL
MODEL 5
REMARK VINA RESULT:    -6.250      3.488      7.798
REMARK INTER + INTRA:          -9.737
REMARK INTER:                  -8.060
REMARK INTRA:                  -1.677
REMARK UNBOUND:                -1.296
REMARK  Name = 
REMARK  7 active torsions:
REMARK  status: ('A' for Active; 'I' for Inactive)
REMARK    1  A    between atoms: C_1  and  C_2
REMARK    2  A    between atoms: C_2  and  N_3
REMARK    3  A    between atoms: N_3  and  C_4
REMARK    4  A    between atoms: C_4  and  C_5
REMARK    5  A    between atoms: C_8  and  C_9
REMARK    6  A    between atoms: C_9  and  N_10
REMARK    7  A    between atoms: C_18  and  C_20
REMARK                            x       y       z     vdW  Elec       q    Type
REMARK                         _______ _______ _______ _____ _____    ______ ____
ROOT
ATOM      1  N   UNL     1      48.424   7.814  17.922  0.00  0.00    +0.000 N 
ATOM      2  C   UNL     1      48.527   6.594  18.607  0.00  0.00    +0.000 C 
ATOM      3  O   UNL     1      47.769   6.309  19.533  0.00  0.00    +0.000 OA
ENDROOT
BRANCH   2   4
ATOM      4  C   UNL     1      49.591   5.652  18.253  0.00  0.00    +0.000 A 
ATOM      5  C   UNL     1      50.903   5.756  18.683  0.00  0.00    +0.000 A 
ATOM      6  S   UNL     1      51.875   4.432  18.210  0.00  0.00    +0.000 S 
ATOM      7  C   UNL     1      50.539   3.626  17.526  0.00  0.00    +0.000 A 
ATOM      8  N   UNL     1      50.652   2.366  17.027  0.00  0.00    +0.000 NA
ATOM      9  C   UNL     1      49.537   1.862  16.612  0.00  0.00    +0.000 A 
ATOM     10  N   UNL     1      48.331   2.513  16.616  0.00  0.00    +0.000 N 
ATOM     11  C   UNL     1      48.197   3.835  16.980  0.00  0.00    +0.000 A 
ATOM     12  O   UNL     1      47.168   4.461  16.741  0.00  0.00    +0.000 OA
ATOM     13  C   UNL     1      49.395   4.400  17.571  0.00  0.00    +0.000 A 
ATOM     14  H   UNL     1      47.511   2.084  16.214  0.00  0.00    +0.000 HD
ENDBRANCH   2   4
BRANCH   1  16
ATOM     15  C   UNL     1      47.892  10.204  18.416  0.00  0.00    +0.000 C 
ATOM     16  C   UNL     1      47.418   8.754  18.440  0.00  0.00    +0.000 C 
ENDBRANCH   1  16
BRANCH   1  17
ATOM     17  C   UNL     1      49.279   8.188  16.777  0.00  0.00    +0.000 C 
BRANCH  17  18
ATOM     18  C   UNL     1      48.665   7.997  15.415  0.00  0.00    +0.000 A 
ATOM     19  C   UNL     1      47.916   9.028  14.825  0.00  0.00    +0.000 A 
ATOM     20  C   UNL     1      47.127   8.769  13.706  0.00  0.00    +0.000 A 
ATOM     21  C   UNL     1      47.092   7.484  13.154  0.00  0.00    +0.000 A 
ATOM     22  C   UNL     1      47.938   6.491  13.670  0.00  0.00    +0.000 A 
ATOM     23  C   UNL     1      48.724   6.748  14.790  0.00  0.00    +0.000 A 
BRANCH  21  24
ATOM     24  C   UNL     1      46.063   7.123  12.108  0.00  0.00    +0.000 C 
BRANCH  24  25
ATOM     25  N   UNL     1      45.543   5.745  12.187  0.00  0.00    +0.000 NA
ATOM     26  C   UNL     1      44.305   5.704  12.982  0.00  0.00    +0.000 C 
ATOM     27  C   UNL     1      43.681   4.309  12.994  0.00  0.00    +0.000 C 
ATOM     28  C   UNL     1      43.406   3.827  11.576  0.00  0.00    +0.000 C 
ATOM     29  C   UNL     1      44.690   3.870  10.762  0.00  0.00    +0.000 C 
ATOM     30  C   UNL     1      45.328   5.257  10.814  0.00  0.00    +0.000 C 
ENDBRANCH  24  25
ENDBRANCH  21  24
ENDBRANCH  17  18
ENDBRANCH   1  17
TORSDOF 6
ENDMDL
MODEL 6
REMARK VINA RESULT:    -5.817      3.805      7.959
REMARK INTER + INTRA:          -9.153
REMARK INTER:                  -8.160
REMARK INTRA:                  -0.993
REMARK UNBOUND:                -1.296
REMARK  Name = 
REMARK  7 active torsions:
REMARK  status: ('A' for Active; 'I' for Inactive)
REMARK    1  A    between atoms: C_1  and  C_2
REMARK    2  A    between atoms: C_2  and  N_3
REMARK    3  A    between atoms: N_3  and  C_4
REMARK    4  A    between atoms: C_4  and  C_5
REMARK    5  A    between atoms: C_8  and  C_9
REMARK    6  A    between atoms: C_9  and  N_10
REMARK    7  A    between atoms: C_18  and  C_20
REMARK                            x       y       z     vdW  Elec       q    Type
REMARK                         _______ _______ _______ _____ _____    ______ ____
ROOT
ATOM      1  N   UNL     1      48.967   7.861  14.132  0.00  0.00    +0.000 N 
ATOM      2  C   UNL     1      49.257   9.231  14.033  0.00  0.00    +0.000 C 
ATOM      3  O   UNL     1      49.461   9.920  15.031  0.00  0.00    +0.000 OA
ENDROOT
BRANCH   2   4
ATOM      4  C   UNL     1      49.270   9.874  12.717  0.00  0.00    +0.000 A 
ATOM      5  C   UNL     1      48.233  10.639  12.210  0.00  0.00    +0.000 A 
ATOM      6  S   UNL     1      48.602  11.364  10.707  0.00  0.00    +0.000 S 
ATOM      7  C   UNL     1      50.201  10.778  10.756  0.00  0.00    +0.000 A 
ATOM      8  N   UNL     1      51.111  11.125   9.806  0.00  0.00    +0.000 NA
ATOM      9  C   UNL     1      52.298  10.662  10.020  0.00  0.00    +0.000 A 
ATOM     10  N   UNL     1      52.649   9.857  11.074  0.00  0.00    +0.000 N 
ATOM     11  C   UNL     1      51.733   9.367  11.978  0.00  0.00    +0.000 A 
ATOM     12  O   UNL     1      52.022   8.462  12.753  0.00  0.00    +0.000 OA
ATOM     13  C   UNL     1      50.415   9.962  11.850  0.00  0.00    +0.000 A 
ATOM     14  H   UNL     1      53.581   9.476  11.144  0.00  0.00    +0.000 HD
ENDBRANCH   2   4
BRANCH   1  16
ATOM     15  C   UNL     1      50.081   6.593  15.974  0.00  0.00    +0.000 C 
ATOM     16  C   UNL     1      48.835   7.335  15.500  0.00  0.00    +0.000 C 
ENDBRANCH   1  16
BRANCH   1  17
ATOM     17  C   UNL     1      48.756   6.980  12.967  0.00  0.00    +0.000 C 
BRANCH  17  18
ATOM     18  C   UNL     1      47.332   6.560  12.715  0.00  0.00    +0.000 A 
ATOM     19  C   UNL     1      46.883   5.295  13.127  0.00  0.00    +0.000 A 
ATOM     20  C   UNL     1      45.667   4.798  12.663  0.00  0.00    +0.000 A 
ATOM     21  C   UNL     1      44.878   5.566  11.799  0.00  0.00    +0.000 A 
ATOM     22  C   UNL     1      45.271   6.877  11.493  0.00  0.00    +0.000 A 
ATOM     23  C   UNL     1      46.488   7.373  11.954  0.00  0.00    +0.000 A 
BRANCH  21  24
ATOM     24  C   UNL     1      43.691   4.953  11.092  0.00  0.00    +0.000 C 
BRANCH  24  25
ATOM     25  N   UNL     1      44.012   4.187   9.874  0.00  0.00    +0.000 NA
ATOM     26  C   UNL     1      45.223   4.724   9.230  0.00  0.00    +0.000 C 
ATOM     27  C   UNL     1      45.647   3.886   8.024  0.00  0.00    +0.000 C 
ATOM     28  C   UNL     1      45.869   2.435   8.425  0.00  0.00    +0.000 C 
ATOM     29  C   UNL     1      44.614   1.887   9.086  0.00  0.00    +0.000 C 
ATOM     30  C   UNL     1      44.175   2.772  10.250  0.00  0.00    +0.000 C 
ENDBRANCH  24  25
ENDBRANCH  21  24
ENDBRANCH  17  18
ENDBRANCH   1  17
TORSDOF 6
ENDMDL
MODEL 7
REMARK VINA RESULT:    -5.777      4.108      9.282
REMARK INTER + INTRA:          -9.098
REMARK INTER:                  -7.908
REMARK INTRA:                  -1.190
REMARK UNBOUND:                -1.296
REMARK  Name = 
REMARK  7 active torsions:
REMARK  status: ('A' for Active; 'I' for Inactive)
REMARK    1  A    between atoms: C_1  and  C_2
REMARK    2  A    between atoms: C_2  and  N_3
REMARK    3  A    between atoms: N_3  and  C_4
REMARK    4  A    between atoms: C_4  and  C_5
REMARK    5  A    between atoms: C_8  and  C_9
REMARK    6  A    between atoms: C_9  and  N_10
REMARK    7  A    between atoms: C_18  and  C_20
REMARK                            x       y       z     vdW  Elec       q    Type
REMARK                         _______ _______ _______ _____ _____    ______ ____
ROOT
ATOM      1  N   UNL     1      44.700   6.933  11.659  0.00  0.00    +0.000 N 
ATOM      2  C   UNL     1      45.833   6.150  11.391  0.00  0.00    +0.000 C 
ATOM      3  O   UNL     1      45.785   5.188  10.626  0.00  0.00    +0.000 OA
ENDROOT
BRANCH   2   4
ATOM      4  C   UNL     1      47.095   6.447  12.071  0.00  0.00    +0.000 A 
ATOM      5  C   UNL     1      48.040   7.350  11.611  0.00  0.00    +0.000 A 
ATOM      6  S   UNL     1      49.342   7.574  12.694  0.00  0.00    +0.000 S 
ATOM      7  C   UNL     1      48.617   6.567  13.861  0.00  0.00    +0.000 A 
ATOM      8  N   UNL     1      49.166   6.405  15.095  0.00  0.00    +0.000 NA
ATOM      9  C   UNL     1      48.461   5.672  15.892  0.00  0.00    +0.000 A 
ATOM     10  N   UNL     1      47.281   5.059  15.558  0.00  0.00    +0.000 N 
ATOM     11  C   UNL     1      46.762   5.080  14.282  0.00  0.00    +0.000 A 
ATOM     12  O   UNL     1      45.851   4.329  13.951  0.00  0.00    +0.000 OA
ATOM     13  C   UNL     1      47.452   5.993  13.390  0.00  0.00    +0.000 A 
ATOM     14  H   UNL     1      46.815   4.445  16.210  0.00  0.00    +0.000 HD
ENDBRANCH   2   4
BRANCH   1  16
ATOM     15  C   UNL     1      42.640   5.551  11.949  0.00  0.00    +0.000 C 
ATOM     16  C   UNL     1      43.446   6.473  11.041  0.00  0.00    +0.000 C 
ENDBRANCH   1  16
BRANCH   1  17
ATOM     17  C   UNL     1      44.712   8.122  12.533  0.00  0.00    +0.000 C 
BRANCH  17  18
ATOM     18  C   UNL     1      44.796   9.450  11.827  0.00  0.00    +0.000 A 
ATOM     19  C   UNL     1      43.766   9.861  10.966  0.00  0.00    +0.000 A 
ATOM     20  C   UNL     1      43.958  10.943  10.110  0.00  0.00    +0.000 A 
ATOM     21  C   UNL     1      45.173  11.638  10.118  0.00  0.00    +0.000 A 
ATOM     22  C   UNL     1      46.150  11.302  11.067  0.00  0.00    +0.000 A 
ATOM     23  C   UNL     1      45.960  10.219  11.921  0.00  0.00    +0.000 A 
BRANCH  21  24
ATOM     24  C   UNL     1      45.492  12.643   9.035  0.00  0.00    +0.000 C 
BRANCH  24  25
ATOM     25  N   UNL     1      45.636  12.081   7.679  0.00  0.00    +0.000 NA
ATOM     26  C   UNL     1      44.560  12.569   6.800  0.00  0.00    +0.000 C 
ATOM     27  C   UNL     1      44.740  12.092   5.360  0.00  0.00    +0.000 C 
ATOM     28  C   UNL     1      46.095  12.520   4.813  0.00  0.00    +0.000 C 
ATOM     29  C   UNL     1      47.200  12.009   5.725  0.00  0.00    +0.000 C 
ATOM     30  C   UNL     1      46.968  12.447   7.169  0.00  0.00    +0.000 C 
ENDBRANCH  24  25
ENDBRANCH  21  24
ENDBRANCH  17  18
ENDBRANCH   1  17
TORSDOF 6
ENDMDL
MODEL 8
REMARK VINA RESULT:    -5.641      3.249      7.964
REMARK INTER + INTRA:          -8.915
REMARK INTER:                  -8.109
REMARK INTRA:                  -0.806
REMARK UNBOUND:                -1.296
REMARK  Name = 
REMARK  7 active torsions:
REMARK  status: ('A' for Active; 'I' for Inactive)
REMARK    1  A    between atoms: C_1  and  C_2
REMARK    2  A    between atoms: C_2  and  N_3
REMARK    3  A    between atoms: N_3  and  C_4
REMARK    4  A    between atoms: C_4  and  C_5
REMARK    5  A    between atoms: C_8  and  C_9
REMARK    6  A    between atoms: C_9  and  N_10
REMARK    7  A    between atoms: C_18  and  C_20
REMARK                            x       y       z     vdW  Elec       q    Type
REMARK                         _______ _______ _______ _____ _____    ______ ____
ROOT
ATOM      1  N   UNL     1      49.329   7.452  16.536  0.00  0.00    +0.000 N 
ATOM      2  C   UNL     1      48.838   6.763  17.655  0.00  0.00    +0.000 C 
ATOM      3  O   UNL     1      48.520   7.352  18.686  0.00  0.00    +0.000 OA
ENDROOT
BRANCH   2   4
ATOM      4  C   UNL     1      48.746   5.302  17.622  0.00  0.00    +0.000 A 
ATOM      5  C   UNL     1      47.591   4.596  17.329  0.00  0.00    +0.000 A 
ATOM      6  S   UNL     1      47.835   2.907  17.239  0.00  0.00    +0.000 S 
ATOM      7  C   UNL     1      49.515   3.085  17.463  0.00  0.00    +0.000 A 
ATOM      8  N   UNL     1      50.355   2.017  17.387  0.00  0.00    +0.000 NA
ATOM      9  C   UNL     1      51.605   2.323  17.505  0.00  0.00    +0.000 A 
ATOM     10  N   UNL     1      52.088   3.587  17.727  0.00  0.00    +0.000 N 
ATOM     11  C   UNL     1      51.268   4.671  17.950  0.00  0.00    +0.000 A 
ATOM     12  O   UNL     1      51.713   5.728  18.388  0.00  0.00    +0.000 OA
ATOM     13  C   UNL     1      49.865   4.399  17.702  0.00  0.00    +0.000 A 
ATOM     14  H   UNL     1      53.073   3.744  17.875  0.00  0.00    +0.000 HD
ENDBRANCH   2   4
BRANCH   1  16
ATOM     15  C   UNL     1      48.273   9.710  16.373  0.00  0.00    +0.000 C 
ATOM     16  C   UNL     1      49.520   8.900  16.711  0.00  0.00    +0.000 C 
ENDBRANCH   1  16
BRANCH   1  17
ATOM     17  C   UNL     1      49.684   6.799  15.260  0.00  0.00    +0.000 C 
BRANCH  17  18
ATOM     18  C   UNL     1      48.615   6.815  14.199  0.00  0.00    +0.000 A 
ATOM     19  C   UNL     1      48.557   7.862  13.266  0.00  0.00    +0.000 A 
ATOM     20  C   UNL     1      47.428   8.028  12.467  0.00  0.00    +0.000 A 
ATOM     21  C   UNL     1      46.353   7.139  12.578  0.00  0.00    +0.000 A 
ATOM     22  C   UNL     1      46.468   6.023  13.420  0.00  0.00    +0.000 A 
ATOM     23  C   UNL     1      47.595   5.859  14.221  0.00  0.00    +0.000 A 
BRANCH  21  24
ATOM     24  C   UNL     1      45.031   7.443  11.911  0.00  0.00    +0.000 C 
BRANCH  24  25
ATOM     25  N   UNL     1      44.495   6.364  11.059  0.00  0.00    +0.000 NA
ATOM     26  C   UNL     1      45.587   5.666  10.360  0.00  0.00    +0.000 C 
ATOM     27  C   UNL     1      45.077   4.473   9.553  0.00  0.00    +0.000 C 
ATOM     28  C   UNL     1      44.322   3.498  10.447  0.00  0.00    +0.000 C 
ATOM     29  C   UNL     1      43.195   4.226  11.163  0.00  0.00    +0.000 C 
ATOM     30  C   UNL     1      43.719   5.448  11.913  0.00  0.00    +0.000 C 
ENDBRANCH  24  25
ENDBRANCH  21  24
ENDBRANCH  17  18
ENDBRANCH   1  17
TORSDOF 6
ENDMDL
MODEL 9
REMARK VINA RESULT:    -5.421      3.903      8.062
REMARK INTER + INTRA:          -8.619
REMARK INTER:                  -7.152
REMARK INTRA:                  -1.466
REMARK UNBOUND:                -1.296
REMARK  Name = 
REMARK  7 active torsions:
REMARK  status: ('A' for Active; 'I' for Inactive)
REMARK    1  A    between atoms: C_1  and  C_2
REMARK    2  A    between atoms: C_2  and  N_3
REMARK    3  A    between atoms: N_3  and  C_4
REMARK    4  A    between atoms: C_4  and  C_5
REMARK    5  A    between atoms: C_8  and  C_9
REMARK    6  A    between atoms: C_9  and  N_10
REMARK    7  A    between atoms: C_18  and  C_20
REMARK                            x       y       z     vdW  Elec       q    Type
REMARK                         _______ _______ _______ _____ _____    ______ ____
ROOT
ATOM      1  N   UNL     1      50.225   8.873  15.154  0.00  0.00    +0.000 N 
ATOM      2  C   UNL     1      50.736   8.386  16.366  0.00  0.00    +0.000 C 
ATOM      3  O   UNL     1      51.908   8.027  16.473  0.00  0.00    +0.000 OA
ENDROOT
BRANCH   2   4
ATOM      4  C   UNL     1      49.850   8.250  17.524  0.00  0.00    +0.000 A 
ATOM      5  C   UNL     1      49.593   9.259  18.437  0.00  0.00    +0.000 A 
ATOM      6  S   UNL     1      48.414   8.835  19.598  0.00  0.00    +0.000 S 
ATOM      7  C   UNL     1      48.125   7.338  18.837  0.00  0.00    +0.000 A 
ATOM      8  N   UNL     1      47.138   6.506  19.266  0.00  0.00    +0.000 NA
ATOM      9  C   UNL     1      46.993   5.445  18.542  0.00  0.00    +0.000 A 
ATOM     10  N   UNL     1      47.764   5.124  17.455  0.00  0.00    +0.000 N 
ATOM     11  C   UNL     1      48.861   5.866  17.071  0.00  0.00    +0.000 A 
ATOM     12  O   UNL     1      49.673   5.431  16.261  0.00  0.00    +0.000 OA
ATOM     13  C   UNL     1      48.984   7.128  17.776  0.00  0.00    +0.000 A 
ATOM     14  H   UNL     1      47.640   4.246  16.974  0.00  0.00    +0.000 HD
ENDBRANCH   2   4
BRANCH   1  16
ATOM     15  C   UNL     1      51.191  10.156  13.241  0.00  0.00    +0.000 C 
ATOM     16  C   UNL     1      51.150   8.840  14.011  0.00  0.00    +0.000 C 
ENDBRANCH   1  16
BRANCH   1  17
ATOM     17  C   UNL     1      48.840   9.357  14.983  0.00  0.00    +0.000 C 
BRANCH  17  18
ATOM     18  C   UNL     1      48.030   8.654  13.926  0.00  0.00    +0.000 A 
ATOM     19  C   UNL     1      47.272   9.394  13.004  0.00  0.00    +0.000 A 
ATOM     20  C   UNL     1      46.319   8.760  12.210  0.00  0.00    +0.000 A 
ATOM     21  C   UNL     1      46.126   7.378  12.314  0.00  0.00    +0.000 A 
ATOM     22  C   UNL     1      46.971   6.626  13.143  0.00  0.00    +0.000 A 
ATOM     23  C   UNL     1      47.922   7.260  13.939  0.00  0.00    +0.000 A 
BRANCH  21  24
ATOM     24  C   UNL     1      44.939   6.715  11.654  0.00  0.00    +0.000 C 
BRANCH  24  25
ATOM     25  N   UNL     1      44.894   5.246  11.774  0.00  0.00    +0.000 NA
ATOM     26  C   UNL     1      43.745   4.829  12.595  0.00  0.00    +0.000 C 
ATOM     27  C   UNL     1      43.605   3.308  12.650  0.00  0.00    +0.000 C 
ATOM     28  C   UNL     1      43.483   2.725  11.249  0.00  0.00    +0.000 C 
ATOM     29  C   UNL     1      44.675   3.157  10.408  0.00  0.00    +0.000 C 
ATOM     30  C   UNL     1      44.831   4.676  10.416  0.00  0.00    +0.000 C 
ENDBRANCH  24  25
ENDBRANCH  21  24
ENDBRANCH  17  18
ENDBRANCH   1  17
TORSDOF 6
ENDMDL
