MODEL 1
REMARK VINA RESULT:    -8.163      0.000      0.000
REMARK INTER + INTRA:         -14.548
REMARK INTER:                 -12.696
REMARK INTRA:                  -1.852
REMARK UNBOUND:                -1.852
REMARK  Name = 
REMARK  10 active torsions:
REMARK  status: ('A' for Active; 'I' for Inactive)
REMARK    1  A    between atoms: C_2  and  C_23
REMARK    2  A    between atoms: N_3  and  C_4
REMARK    3  A    between atoms: C_4  and  C_5
REMARK    4  A    between atoms: C_8  and  C_9
REMARK    5  A    between atoms: C_9  and  N_10
REMARK    6  A    between atoms: N_10  and  C_11
REMARK    7  A    between atoms: N_10  and  C_14
REMARK    8  A    between atoms: C_11  and  C_12
REMARK    9  A    between atoms: C_12  and  O_13
REMARK   10  A    between atoms: C_14  and  C_15
REMARK                            x       y       z     vdW  Elec       q    Type
REMARK                         _______ _______ _______ _____ _____    ______ ____
ROOT
ATOM      1  C   UNL     1      46.600   7.823  12.650  0.00  0.00    +0.000 A 
ATOM      2  C   UNL     1      47.076   6.675  12.006  0.00  0.00    +0.000 A 
ATOM      3  C   UNL     1      46.225   5.915  11.206  0.00  0.00    +0.000 A 
ATOM      4  C   UNL     1      44.885   6.291  11.041  0.00  0.00    +0.000 A 
ATOM      5  C   UNL     1      44.447   7.509  11.579  0.00  0.00    +0.000 A 
ATOM      6  C   UNL     1      45.303   8.273  12.374  0.00  0.00    +0.000 A 
ENDROOT
BRANCH   1   7
ATOM      7  C   UNL     1      47.465   8.536  13.651  0.00  0.00    +0.000 C 
BRANCH   7  10
ATOM      8  O   UNL     1      49.923   7.290  14.208  0.00  0.00    +0.000 OA
ATOM      9  C   UNL     1      48.993   7.161  14.996  0.00  0.00    +0.000 C 
ATOM     10  N   UNL     1      47.761   7.711  14.788  0.00  0.00    +0.000 N 
ATOM     11  H   UNL     1      47.079   7.724  15.538  0.00  0.00    +0.000 HD
BRANCH   9  12
ATOM     12  C   UNL     1      49.127   6.339  16.209  0.00  0.00    +0.000 A 
ATOM     13  C   UNL     1      49.983   6.750  17.223  0.00  0.00    +0.000 A 
ATOM     14  S   UNL     1      50.027   5.683  18.551  0.00  0.00    +0.000 S 
ATOM     15  C   UNL     1      48.873   4.656  17.834  0.00  0.00    +0.000 A 
ATOM     16  N   UNL     1      48.430   3.546  18.483  0.00  0.00    +0.000 NA
ATOM     17  C   UNL     1      47.526   2.880  17.842  0.00  0.00    +0.000 A 
ATOM     18  N   UNL     1      47.043   3.211  16.603  0.00  0.00    +0.000 N 
ATOM     19  C   UNL     1      47.519   4.276  15.879  0.00  0.00    +0.000 A 
ATOM     20  O   UNL     1      47.169   4.457  14.717  0.00  0.00    +0.000 OA
ATOM     21  C   UNL     1      48.491   5.097  16.582  0.00  0.00    +0.000 A 
ATOM     22  H   UNL     1      46.362   2.627  16.142  0.00  0.00    +0.000 HD
ENDBRANCH   9  12
ENDBRANCH   7  10
ENDBRANCH   1   7
BRANCH   4  23
ATOM     23  C   UNL     1      43.913   5.351  10.356  0.00  0.00    +0.000 C 
BRANCH  23  24
ATOM     24  N   UNL     1      44.474   3.989  10.144  0.00  0.00    +0.000 NA
BRANCH  24  25
ATOM     25  C   UNL     1      43.788   2.999  11.011  0.00  0.00    +0.000 C 
BRANCH  25  26
ATOM     26  C   UNL     1      44.095   3.115  12.516  0.00  0.00    +0.000 C 
BRANCH  26  27
ATOM     27  O   UNL     1      45.462   2.796  12.774  0.00  0.00    +0.000 OA
ATOM     28  H   UNL     1      45.840   3.542  13.273  0.00  0.00    +0.000 HD
ENDBRANCH  26  27
ENDBRANCH  25  26
ENDBRANCH  24  25
BRANCH  24  29
ATOM     29  C   UNL     1      44.342   3.604   8.726  0.00  0.00    +0.000 C 
BRANCH  29  30
ATOM     30  C   UNL     1      45.559   2.938   8.123  0.00  0.00    +0.000 A 
ATOM     31  C   UNL     1      45.798   1.568   8.313  0.00  0.00    +0.000 A 
ATOM     32  C   UNL     1      46.864   0.941   7.666  0.00  0.00    +0.000 A 
ATOM     33  C   UNL     1      47.703   1.676   6.830  0.00  0.00    +0.000 A 
ATOM     34  C   UNL     1      47.489   3.041   6.653  0.00  0.00    +0.000 A 
ATOM     35  C   UNL     1      46.423   3.670   7.297  0.00  0.00    +0.000 A 
ENDBRANCH  29  30
ENDBRANCH  24  29
ENDBRANCH  23  24
ENDBRANCH   4  23
TORSDOF 10
ENDMDL
MODEL 2
REMARK VINA RESULT:    -7.653      2.635      3.331
REMARK INTER + INTRA:         -13.755
REMARK INTER:                 -12.345
REMARK INTRA:                  -1.409
REMARK UNBOUND:                -1.852
REMARK  Name = 
REMARK  10 active torsions:
REMARK  status: ('A' for Active; 'I' for Inactive)
REMARK    1  A    between atoms: C_2  and  C_23
REMARK    2  A    between atoms: N_3  and  C_4
REMARK    3  A    between atoms: C_4  and  C_5
REMARK    4  A    between atoms: C_8  and  C_9
REMARK    5  A    between atoms: C_9  and  N_10
REMARK    6  A    between atoms: N_10  and  C_11
REMARK    7  A    between atoms: N_10  and  C_14
REMARK    8  A    between atoms: C_11  and  C_12
REMARK    9  A    between atoms: C_12  and  O_13
REMARK   10  A    between atoms: C_14  and  C_15
REMARK                            x       y       z     vdW  Elec       q    Type
REMARK                         _______ _______ _______ _____ _____    ______ ____
ROOT
ATOM      1  C   UNL     1      47.010   4.819  14.750  0.00  0.00    +0.000 A 
ATOM      2  C   UNL     1      46.578   3.746  13.962  0.00  0.00    +0.000 A 
ATOM      3  C   UNL     1      46.223   3.951  12.631  0.00  0.00    +0.000 A 
ATOM      4  C   UNL     1      46.293   5.233  12.068  0.00  0.00    +0.000 A 
ATOM      5  C   UNL     1      46.849   6.277  12.819  0.00  0.00    +0.000 A 
ATOM      6  C   UNL     1      47.210   6.069  14.151  0.00  0.00    +0.000 A 
ENDROOT
BRANCH   1   7
ATOM      7  C   UNL     1      47.218   4.631  16.227  0.00  0.00    +0.000 C 
BRANCH   7  10
ATOM      8  O   UNL     1      48.439   5.038  18.726  0.00  0.00    +0.000 OA
ATOM      9  C   UNL     1      49.106   4.591  17.798  0.00  0.00    +0.000 C 
ATOM     10  N   UNL     1      48.596   4.389  16.547  0.00  0.00    +0.000 N 
ATOM     11  H   UNL     1      49.128   3.864  15.863  0.00  0.00    +0.000 HD
BRANCH   9  12
ATOM     12  C   UNL     1      50.538   4.298  17.958  0.00  0.00    +0.000 A 
ATOM     13  C   UNL     1      51.389   5.283  18.442  0.00  0.00    +0.000 A 
ATOM     14  S   UNL     1      53.014   4.782  18.559  0.00  0.00    +0.000 S 
ATOM     15  C   UNL     1      52.629   3.219  18.004  0.00  0.00    +0.000 A 
ATOM     16  N   UNL     1      53.588   2.260  17.904  0.00  0.00    +0.000 NA
ATOM     17  C   UNL     1      53.151   1.109  17.509  0.00  0.00    +0.000 A 
ATOM     18  N   UNL     1      51.848   0.838  17.185  0.00  0.00    +0.000 N 
ATOM     19  C   UNL     1      50.864   1.795  17.195  0.00  0.00    +0.000 A 
ATOM     20  O   UNL     1      49.742   1.553  16.761  0.00  0.00    +0.000 OA
ATOM     21  C   UNL     1      51.289   3.092  17.695  0.00  0.00    +0.000 A 
ATOM     22  H   UNL     1      51.579  -0.074  16.849  0.00  0.00    +0.000 HD
ENDBRANCH   9  12
ENDBRANCH   7  10
ENDBRANCH   1   7
BRANCH   4  23
ATOM     23  C   UNL     1      45.702   5.492  10.697  0.00  0.00    +0.000 C 
BRANCH  23  24
ATOM     24  N   UNL     1      44.471   4.698  10.436  0.00  0.00    +0.000 NA
BRANCH  24  25
ATOM     25  C   UNL     1      43.268   5.422  10.918  0.00  0.00    +0.000 C 
BRANCH  25  26
ATOM     26  C   UNL     1      42.676   4.909  12.245  0.00  0.00    +0.000 C 
BRANCH  26  27
ATOM     27  O   UNL     1      42.931   5.836  13.299  0.00  0.00    +0.000 OA
ATOM     28  H   UNL     1      43.361   6.612  12.899  0.00  0.00    +0.000 HD
ENDBRANCH  26  27
ENDBRANCH  25  26
ENDBRANCH  24  25
BRANCH  24  29
ATOM     29  C   UNL     1      44.351   4.413   8.993  0.00  0.00    +0.000 C 
BRANCH  29  30
ATOM     30  C   UNL     1      45.366   3.437   8.442  0.00  0.00    +0.000 A 
ATOM     31  C   UNL     1      45.322   2.078   8.791  0.00  0.00    +0.000 A 
ATOM     32  C   UNL     1      46.196   1.168   8.196  0.00  0.00    +0.000 A 
ATOM     33  C   UNL     1      47.125   1.605   7.253  0.00  0.00    +0.000 A 
ATOM     34  C   UNL     1      47.194   2.955   6.917  0.00  0.00    +0.000 A 
ATOM     35  C   UNL     1      46.319   3.867   7.509  0.00  0.00    +0.000 A 
ENDBRANCH  29  30
ENDBRANCH  24  29
ENDBRANCH  23  24
ENDBRANCH   4  23
TORSDOF 10
ENDMDL
MODEL 3
REMARK VINA RESULT:    -7.411      2.653      3.848
REMARK INTER + INTRA:         -13.378
REMARK INTER:                 -12.188
REMARK INTRA:                  -1.190
REMARK UNBOUND:                -1.852
REMARK  Name = 
REMARK  10 active torsions:
REMARK  status: ('A' for Active; 'I' for Inactive)
REMARK    1  A    between atoms: C_2  and  C_23
REMARK    2  A    between atoms: N_3  and  C_4
REMARK    3  A    between atoms: C_4  and  C_5
REMARK    4  A    between atoms: C_8  and  C_9
REMARK    5  A    between atoms: C_9  and  N_10
REMARK    6  A    between atoms: N_10  and  C_11
REMARK    7  A    between atoms: N_10  and  C_14
REMARK    8  A    between atoms: C_11  and  C_12
REMARK    9  A    between atoms: C_12  and  O_13
REMARK   10  A    between atoms: C_14  and  C_15
REMARK                            x       y       z     vdW  Elec       q    Type
REMARK                         _______ _______ _______ _____ _____    ______ ____
ROOT
ATOM      1  C   UNL     1      47.309   4.607  14.911  0.00  0.00    +0.000 A 
ATOM      2  C   UNL     1      46.830   3.545  14.135  0.00  0.00    +0.000 A 
ATOM      3  C   UNL     1      46.206   3.793  12.914  0.00  0.00    +0.000 A 
ATOM      4  C   UNL     1      46.049   5.107  12.453  0.00  0.00    +0.000 A 
ATOM      5  C   UNL     1      46.644   6.155  13.167  0.00  0.00    +0.000 A 
ATOM      6  C   UNL     1      47.276   5.905  14.386  0.00  0.00    +0.000 A 
ENDROOT
BRANCH   1   7
ATOM      7  C   UNL     1      47.816   4.352  16.302  0.00  0.00    +0.000 C 
BRANCH   7  10
ATOM      8  O   UNL     1      49.765   6.022  17.451  0.00  0.00    +0.000 OA
ATOM      9  C   UNL     1      48.579   6.243  17.672  0.00  0.00    +0.000 C 
ATOM     10  N   UNL     1      47.572   5.466  17.175  0.00  0.00    +0.000 N 
ATOM     11  H   UNL     1      46.611   5.779  17.239  0.00  0.00    +0.000 HD
BRANCH   9  12
ATOM     12  C   UNL     1      48.158   7.343  18.554  0.00  0.00    +0.000 A 
ATOM     13  C   UNL     1      47.941   7.093  19.903  0.00  0.00    +0.000 A 
ATOM     14  S   UNL     1      47.452   8.471  20.779  0.00  0.00    +0.000 S 
ATOM     15  C   UNL     1      47.553   9.455  19.394  0.00  0.00    +0.000 A 
ATOM     16  N   UNL     1      47.292  10.788  19.467  0.00  0.00    +0.000 NA
ATOM     17  C   UNL     1      47.445  11.423  18.351  0.00  0.00    +0.000 A 
ATOM     18  N   UNL     1      47.814  10.841  17.167  0.00  0.00    +0.000 N 
ATOM     19  C   UNL     1      48.011   9.489  17.031  0.00  0.00    +0.000 A 
ATOM     20  O   UNL     1      48.197   8.986  15.927  0.00  0.00    +0.000 OA
ATOM     21  C   UNL     1      47.914   8.738  18.271  0.00  0.00    +0.000 A 
ATOM     22  H   UNL     1      47.883  11.389  16.323  0.00  0.00    +0.000 HD
ENDBRANCH   9  12
ENDBRANCH   7  10
ENDBRANCH   1   7
BRANCH   4  23
ATOM     23  C   UNL     1      45.182   5.387  11.242  0.00  0.00    +0.000 C 
BRANCH  23  24
ATOM     24  N   UNL     1      44.451   4.183  10.761  0.00  0.00    +0.000 NA
BRANCH  24  25
ATOM     25  C   UNL     1      43.093   4.121  11.356  0.00  0.00    +0.000 C 
BRANCH  25  26
ATOM     26  C   UNL     1      42.543   5.460  11.886  0.00  0.00    +0.000 C 
BRANCH  26  27
ATOM     27  O   UNL     1      42.523   5.464  13.313  0.00  0.00    +0.000 OA
ATOM     28  H   UNL     1      41.824   4.846  13.590  0.00  0.00    +0.000 HD
ENDBRANCH  26  27
ENDBRANCH  25  26
ENDBRANCH  24  25
BRANCH  24  29
ATOM     29  C   UNL     1      44.362   4.202   9.288  0.00  0.00    +0.000 C 
BRANCH  29  30
ATOM     30  C   UNL     1      45.377   3.340   8.570  0.00  0.00    +0.000 A 
ATOM     31  C   UNL     1      45.452   1.961   8.816  0.00  0.00    +0.000 A 
ATOM     32  C   UNL     1      46.318   1.158   8.072  0.00  0.00    +0.000 A 
ATOM     33  C   UNL     1      47.119   1.725   7.082  0.00  0.00    +0.000 A 
ATOM     34  C   UNL     1      47.070   3.096   6.846  0.00  0.00    +0.000 A 
ATOM     35  C   UNL     1      46.203   3.901   7.587  0.00  0.00    +0.000 A 
ENDBRANCH  29  30
ENDBRANCH  24  29
ENDBRANCH  23  24
ENDBRANCH   4  23
TORSDOF 10
ENDMDL
MODEL 4
REMARK VINA RESULT:    -7.338      2.321      2.944
REMARK INTER + INTRA:         -13.266
REMARK INTER:                 -12.015
REMARK INTRA:                  -1.251
REMARK UNBOUND:                -1.852
REMARK  Name = 
REMARK  10 active torsions:
REMARK  status: ('A' for Active; 'I' for Inactive)
REMARK    1  A    between atoms: C_2  and  C_23
REMARK    2  A    between atoms: N_3  and  C_4
REMARK    3  A    between atoms: C_4  and  C_5
REMARK    4  A    between atoms: C_8  and  C_9
REMARK    5  A    between atoms: C_9  and  N_10
REMARK    6  A    between atoms: N_10  and  C_11
REMARK    7  A    between atoms: N_10  and  C_14
REMARK    8  A    between atoms: C_11  and  C_12
REMARK    9  A    between atoms: C_12  and  O_13
REMARK   10  A    between atoms: C_14  and  C_15
REMARK                            x       y       z     vdW  Elec       q    Type
REMARK                         _______ _______ _______ _____ _____    ______ ____
ROOT
ATOM      1  C   UNL     1      48.326   6.724  13.553  0.00  0.00    +0.000 A 
ATOM      2  C   UNL     1      47.342   5.812  13.951  0.00  0.00    +0.000 A 
ATOM      3  C   UNL     1      46.294   5.490  13.091  0.00  0.00    +0.000 A 
ATOM      4  C   UNL     1      46.214   6.079  11.821  0.00  0.00    +0.000 A 
ATOM      5  C   UNL     1      47.268   6.888  11.378  0.00  0.00    +0.000 A 
ATOM      6  C   UNL     1      48.321   7.204  12.238  0.00  0.00    +0.000 A 
ENDROOT
BRANCH   1   7
ATOM      7  C   UNL     1      49.350   7.204  14.544  0.00  0.00    +0.000 C 
BRANCH   7  10
ATOM      8  O   UNL     1      50.928   5.834  16.425  0.00  0.00    +0.000 OA
ATOM      9  C   UNL     1      49.817   6.237  16.753  0.00  0.00    +0.000 C 
ATOM     10  N   UNL     1      48.978   6.888  15.894  0.00  0.00    +0.000 N 
ATOM     11  H   UNL     1      48.149   7.351  16.248  0.00  0.00    +0.000 HD
BRANCH   9  12
ATOM     12  C   UNL     1      49.281   5.988  18.100  0.00  0.00    +0.000 A 
ATOM     13  C   UNL     1      49.424   4.730  18.672  0.00  0.00    +0.000 A 
ATOM     14  S   UNL     1      48.742   4.609  20.229  0.00  0.00    +0.000 S 
ATOM     15  C   UNL     1      48.269   6.244  20.209  0.00  0.00    +0.000 A 
ATOM     16  N   UNL     1      47.651   6.804  21.284  0.00  0.00    +0.000 NA
ATOM     17  C   UNL     1      47.384   8.061  21.150  0.00  0.00    +0.000 A 
ATOM     18  N   UNL     1      47.659   8.803  20.031  0.00  0.00    +0.000 N 
ATOM     19  C   UNL     1      48.209   8.261  18.895  0.00  0.00    +0.000 A 
ATOM     20  O   UNL     1      48.307   8.920  17.865  0.00  0.00    +0.000 OA
ATOM     21  C   UNL     1      48.588   6.864  19.016  0.00  0.00    +0.000 A 
ATOM     22  H   UNL     1      47.392   9.774  19.977  0.00  0.00    +0.000 HD
ENDBRANCH   9  12
ENDBRANCH   7  10
ENDBRANCH   1   7
BRANCH   4  23
ATOM     23  C   UNL     1      44.966   5.899  10.980  0.00  0.00    +0.000 C 
BRANCH  23  24
ATOM     24  N   UNL     1      44.611   4.470  10.766  0.00  0.00    +0.000 NA
BRANCH  24  25
ATOM     25  C   UNL     1      43.442   4.090  11.599  0.00  0.00    +0.000 C 
BRANCH  25  26
ATOM     26  C   UNL     1      42.535   5.257  12.035  0.00  0.00    +0.000 C 
BRANCH  26  27
ATOM     27  O   UNL     1      42.591   5.432  13.450  0.00  0.00    +0.000 OA
ATOM     28  H   UNL     1      43.074   4.669  13.813  0.00  0.00    +0.000 HD
ENDBRANCH  26  27
ENDBRANCH  25  26
ENDBRANCH  24  25
BRANCH  24  29
ATOM     29  C   UNL     1      44.321   4.230   9.339  0.00  0.00    +0.000 C 
BRANCH  29  30
ATOM     30  C   UNL     1      45.334   3.374   8.611  0.00  0.00    +0.000 A 
ATOM     31  C   UNL     1      45.411   1.993   8.846  0.00  0.00    +0.000 A 
ATOM     32  C   UNL     1      46.275   1.197   8.093  0.00  0.00    +0.000 A 
ATOM     33  C   UNL     1      47.071   1.772   7.104  0.00  0.00    +0.000 A 
ATOM     34  C   UNL     1      47.020   3.145   6.878  0.00  0.00    +0.000 A 
ATOM     35  C   UNL     1      46.156   3.943   7.628  0.00  0.00    +0.000 A 
ENDBRANCH  29  30
ENDBRANCH  24  29
ENDBRANCH  23  24
ENDBRANCH   4  23
TORSDOF 10
ENDMDL
MODEL 5
REMARK VINA RESULT:    -7.110      1.301      1.679
REMARK INTER + INTRA:         -12.911
REMARK INTER:                 -11.245
REMARK INTRA:                  -1.666
REMARK UNBOUND:                -1.852
REMARK  Name = 
REMARK  10 active torsions:
REMARK  status: ('A' for Active; 'I' for Inactive)
REMARK    1  A    between atoms: C_2  and  C_23
REMARK    2  A    between atoms: N_3  and  C_4
REMARK    3  A    between atoms: C_4  and  C_5
REMARK    4  A    between atoms: C_8  and  C_9
REMARK    5  A    between atoms: C_9  and  N_10
REMARK    6  A    between atoms: N_10  and  C_11
REMARK    7  A    between atoms: N_10  and  C_14
REMARK    8  A    between atoms: C_11  and  C_12
REMARK    9  A    between atoms: C_12  and  O_13
REMARK   10  A    between atoms: C_14  and  C_15
REMARK                            x       y       z     vdW  Elec       q    Type
REMARK                         _______ _______ _______ _____ _____    ______ ____
ROOT
ATOM      1  C   UNL     1      47.781   7.502  13.010  0.00  0.00    +0.000 A 
ATOM      2  C   UNL     1      46.723   8.376  12.732  0.00  0.00    +0.000 A 
ATOM      3  C   UNL     1      45.581   7.912  12.083  0.00  0.00    +0.000 A 
ATOM      4  C   UNL     1      45.481   6.567  11.701  0.00  0.00    +0.000 A 
ATOM      5  C   UNL     1      46.482   5.670  12.096  0.00  0.00    +0.000 A 
ATOM      6  C   UNL     1      47.622   6.135  12.752  0.00  0.00    +0.000 A 
ENDROOT
BRANCH   1   7
ATOM      7  C   UNL     1      49.079   8.040  13.543  0.00  0.00    +0.000 C 
BRANCH   7  10
ATOM      8  O   UNL     1      48.105   9.122  15.949  0.00  0.00    +0.000 OA
ATOM      9  C   UNL     1      48.822   8.128  15.985  0.00  0.00    +0.000 C 
ATOM     10  N   UNL     1      49.357   7.556  14.866  0.00  0.00    +0.000 N 
ATOM     11  H   UNL     1      49.798   6.645  14.923  0.00  0.00    +0.000 HD
BRANCH   9  12
ATOM     12  C   UNL     1      49.210   7.511  17.263  0.00  0.00    +0.000 A 
ATOM     13  C   UNL     1      49.842   8.282  18.230  0.00  0.00    +0.000 A 
ATOM     14  S   UNL     1      50.230   7.414  19.645  0.00  0.00    +0.000 S 
ATOM     15  C   UNL     1      49.531   5.990  19.028  0.00  0.00    +0.000 A 
ATOM     16  N   UNL     1      49.493   4.853  19.775  0.00  0.00    +0.000 NA
ATOM     17  C   UNL     1      48.899   3.859  19.202  0.00  0.00    +0.000 A 
ATOM     18  N   UNL     1      48.358   3.893  17.943  0.00  0.00    +0.000 N 
ATOM     19  C   UNL     1      48.443   4.993  17.126  0.00  0.00    +0.000 A 
ATOM     20  O   UNL     1      48.077   4.940  15.956  0.00  0.00    +0.000 OA
ATOM     21  C   UNL     1      49.045   6.161  17.747  0.00  0.00    +0.000 A 
ATOM     22  H   UNL     1      47.937   3.069  17.540  0.00  0.00    +0.000 HD
ENDBRANCH   9  12
ENDBRANCH   7  10
ENDBRANCH   1   7
BRANCH   4  23
ATOM     23  C   UNL     1      44.343   6.116  10.807  0.00  0.00    +0.000 C 
BRANCH  23  24
ATOM     24  N   UNL     1      44.287   4.638  10.638  0.00  0.00    +0.000 NA
BRANCH  24  25
ATOM     25  C   UNL     1      43.187   4.059  11.450  0.00  0.00    +0.000 C 
BRANCH  25  26
ATOM     26  C   UNL     1      43.513   2.723  12.146  0.00  0.00    +0.000 C 
BRANCH  26  27
ATOM     27  O   UNL     1      44.897   2.664  12.493  0.00  0.00    +0.000 OA
ATOM     28  H   UNL     1      45.369   2.301  11.723  0.00  0.00    +0.000 HD
ENDBRANCH  26  27
ENDBRANCH  25  26
ENDBRANCH  24  25
BRANCH  24  29
ATOM     29  C   UNL     1      44.104   4.299   9.214  0.00  0.00    +0.000 C 
BRANCH  29  30
ATOM     30  C   UNL     1      45.207   3.464   8.604  0.00  0.00    +0.000 A 
ATOM     31  C   UNL     1      45.292   2.087   8.858  0.00  0.00    +0.000 A 
ATOM     32  C   UNL     1      46.248   1.306   8.207  0.00  0.00    +0.000 A 
ATOM     33  C   UNL     1      47.130   1.894   7.301  0.00  0.00    +0.000 A 
ATOM     34  C   UNL     1      47.070   3.264   7.058  0.00  0.00    +0.000 A 
ATOM     35  C   UNL     1      46.114   4.046   7.707  0.00  0.00    +0.000 A 
ENDBRANCH  29  30
ENDBRANCH  24  29
ENDBRANCH  23  24
ENDBRANCH   4  23
TORSDOF 10
ENDMDL
MODEL 6
REMARK VINA RESULT:    -6.878      1.731      2.478
REMARK INTER + INTRA:         -12.551
REMARK INTER:                 -11.235
REMARK INTRA:                  -1.316
REMARK UNBOUND:                -1.852
REMARK  Name = 
REMARK  10 active torsions:
REMARK  status: ('A' for Active; 'I' for Inactive)
REMARK    1  A    between atoms: C_2  and  C_23
REMARK    2  A    between atoms: N_3  and  C_4
REMARK    3  A    between atoms: C_4  and  C_5
REMARK    4  A    between atoms: C_8  and  C_9
REMARK    5  A    between atoms: C_9  and  N_10
REMARK    6  A    between atoms: N_10  and  C_11
REMARK    7  A    between atoms: N_10  and  C_14
REMARK    8  A    between atoms: C_11  and  C_12
REMARK    9  A    between atoms: C_12  and  O_13
REMARK   10  A    between atoms: C_14  and  C_15
REMARK                            x       y       z     vdW  Elec       q    Type
REMARK                         _______ _______ _______ _____ _____    ______ ____
ROOT
ATOM      1  C   UNL     1      47.205   7.917  13.422  0.00  0.00    +0.000 A 
ATOM      2  C   UNL     1      47.316   6.598  12.967  0.00  0.00    +0.000 A 
ATOM      3  C   UNL     1      46.334   6.055  12.140  0.00  0.00    +0.000 A 
ATOM      4  C   UNL     1      45.226   6.824  11.758  0.00  0.00    +0.000 A 
ATOM      5  C   UNL     1      45.185   8.181  12.107  0.00  0.00    +0.000 A 
ATOM      6  C   UNL     1      46.173   8.725  12.929  0.00  0.00    +0.000 A 
ENDROOT
BRANCH   1   7
ATOM      7  C   UNL     1      48.166   8.438  14.453  0.00  0.00    +0.000 C 
BRANCH   7  10
ATOM      8  O   UNL     1      50.348   6.789  15.103  0.00  0.00    +0.000 OA
ATOM      9  C   UNL     1      49.371   6.811  15.844  0.00  0.00    +0.000 C 
ATOM     10  N   UNL     1      48.260   7.564  15.588  0.00  0.00    +0.000 N 
ATOM     11  H   UNL     1      47.554   7.686  16.304  0.00  0.00    +0.000 HD
BRANCH   9  12
ATOM     12  C   UNL     1      49.303   5.967  17.047  0.00  0.00    +0.000 A 
ATOM     13  C   UNL     1      48.483   4.846  17.051  0.00  0.00    +0.000 A 
ATOM     14  S   UNL     1      48.516   3.984  18.521  0.00  0.00    +0.000 S 
ATOM     15  C   UNL     1      49.658   5.057  19.187  0.00  0.00    +0.000 A 
ATOM     16  N   UNL     1      50.150   4.860  20.440  0.00  0.00    +0.000 NA
ATOM     17  C   UNL     1      51.039   5.724  20.805  0.00  0.00    +0.000 A 
ATOM     18  N   UNL     1      51.463   6.779  20.040  0.00  0.00    +0.000 N 
ATOM     19  C   UNL     1      50.937   7.061  18.804  0.00  0.00    +0.000 A 
ATOM     20  O   UNL     1      51.234   8.093  18.211  0.00  0.00    +0.000 OA
ATOM     21  C   UNL     1      49.979   6.081  18.318  0.00  0.00    +0.000 A 
ATOM     22  H   UNL     1      52.136   7.439  20.399  0.00  0.00    +0.000 HD
ENDBRANCH   9  12
ENDBRANCH   7  10
ENDBRANCH   1   7
BRANCH   4  23
ATOM     23  C   UNL     1      44.059   6.170  11.047  0.00  0.00    +0.000 C 
BRANCH  23  24
ATOM     24  N   UNL     1      44.194   4.691  10.947  0.00  0.00    +0.000 NA
BRANCH  24  25
ATOM     25  C   UNL     1      43.300   4.017  11.921  0.00  0.00    +0.000 C 
BRANCH  25  26
ATOM     26  C   UNL     1      43.702   2.578  12.299  0.00  0.00    +0.000 C 
BRANCH  26  27
ATOM     27  O   UNL     1      45.102   2.502  12.564  0.00  0.00    +0.000 OA
ATOM     28  H   UNL     1      45.291   1.589  12.842  0.00  0.00    +0.000 HD
ENDBRANCH  26  27
ENDBRANCH  25  26
ENDBRANCH  24  25
BRANCH  24  29
ATOM     29  C   UNL     1      43.883   4.247   9.575  0.00  0.00    +0.000 C 
BRANCH  29  30
ATOM     30  C   UNL     1      45.002   3.521   8.863  0.00  0.00    +0.000 A 
ATOM     31  C   UNL     1      45.162   2.134   8.999  0.00  0.00    +0.000 A 
ATOM     32  C   UNL     1      46.131   1.458   8.256  0.00  0.00    +0.000 A 
ATOM     33  C   UNL     1      46.951   2.162   7.376  0.00  0.00    +0.000 A 
ATOM     34  C   UNL     1      46.818   3.542   7.250  0.00  0.00    +0.000 A 
ATOM     35  C   UNL     1      45.848   4.220   7.991  0.00  0.00    +0.000 A 
ENDBRANCH  29  30
ENDBRANCH  24  29
ENDBRANCH  23  24
ENDBRANCH   4  23
TORSDOF 10
ENDMDL
MODEL 7
REMARK VINA RESULT:    -6.404      3.400      7.929
REMARK INTER + INTRA:         -11.813
REMARK INTER:                 -10.498
REMARK INTRA:                  -1.315
REMARK UNBOUND:                -1.852
REMARK  Name = 
REMARK  10 active torsions:
REMARK  status: ('A' for Active; 'I' for Inactive)
REMARK    1  A    between atoms: C_2  and  C_23
REMARK    2  A    between atoms: N_3  and  C_4
REMARK    3  A    between atoms: C_4  and  C_5
REMARK    4  A    between atoms: C_8  and  C_9
REMARK    5  A    between atoms: C_9  and  N_10
REMARK    6  A    between atoms: N_10  and  C_11
REMARK    7  A    between atoms: N_10  and  C_14
REMARK    8  A    between atoms: C_11  and  C_12
REMARK    9  A    between atoms: C_12  and  O_13
REMARK   10  A    between atoms: C_14  and  C_15
REMARK                            x       y       z     vdW  Elec       q    Type
REMARK                         _______ _______ _______ _____ _____    ______ ____
ROOT
ATOM      1  C   UNL     1      49.388   7.929  14.801  0.00  0.00    +0.000 A 
ATOM      2  C   UNL     1      48.412   8.743  15.387  0.00  0.00    +0.000 A 
ATOM      3  C   UNL     1      48.332   8.856  16.773  0.00  0.00    +0.000 A 
ATOM      4  C   UNL     1      49.225   8.154  17.594  0.00  0.00    +0.000 A 
ATOM      5  C   UNL     1      50.280   7.445  17.003  0.00  0.00    +0.000 A 
ATOM      6  C   UNL     1      50.363   7.339  15.614  0.00  0.00    +0.000 A 
ENDROOT
BRANCH   1   7
ATOM      7  C   UNL     1      49.358   7.667  13.321  0.00  0.00    +0.000 C 
BRANCH   7  10
ATOM      8  O   UNL     1      48.094   5.157  13.377  0.00  0.00    +0.000 OA
ATOM      9  C   UNL     1      47.483   6.127  12.941  0.00  0.00    +0.000 C 
ATOM     10  N   UNL     1      48.032   7.374  12.855  0.00  0.00    +0.000 N 
ATOM     11  H   UNL     1      47.444   8.174  12.652  0.00  0.00    +0.000 HD
BRANCH   9  12
ATOM     12  C   UNL     1      46.116   5.995  12.415  0.00  0.00    +0.000 A 
ATOM     13  C   UNL     1      45.469   7.113  11.903  0.00  0.00    +0.000 A 
ATOM     14  S   UNL     1      43.892   6.791  11.343  0.00  0.00    +0.000 S 
ATOM     15  C   UNL     1      44.035   5.138  11.728  0.00  0.00    +0.000 A 
ATOM     16  N   UNL     1      43.022   4.271  11.459  0.00  0.00    +0.000 NA
ATOM     17  C   UNL     1      43.279   3.041  11.765  0.00  0.00    +0.000 A 
ATOM     18  N   UNL     1      44.446   2.606  12.335  0.00  0.00    +0.000 N 
ATOM     19  C   UNL     1      45.462   3.457  12.695  0.00  0.00    +0.000 A 
ATOM     20  O   UNL     1      46.428   3.053  13.334  0.00  0.00    +0.000 OA
ATOM     21  C   UNL     1      45.251   4.843  12.313  0.00  0.00    +0.000 A 
ATOM     22  H   UNL     1      44.569   1.636  12.581  0.00  0.00    +0.000 HD
ENDBRANCH   9  12
ENDBRANCH   7  10
ENDBRANCH   1   7
BRANCH   4  23
ATOM     23  C   UNL     1      48.999   8.103  19.092  0.00  0.00    +0.000 C 
BRANCH  23  24
ATOM     24  N   UNL     1      48.884   6.715  19.616  0.00  0.00    +0.000 NA
BRANCH  24  25
ATOM     25  C   UNL     1      48.663   6.726  21.084  0.00  0.00    +0.000 C 
BRANCH  25  26
ATOM     26  C   UNL     1      47.404   5.980  21.567  0.00  0.00    +0.000 C 
BRANCH  26  27
ATOM     27  O   UNL     1      47.747   4.682  22.051  0.00  0.00    +0.000 OA
ATOM     28  H   UNL     1      48.706   4.682  22.214  0.00  0.00    +0.000 HD
ENDBRANCH  26  27
ENDBRANCH  25  26
ENDBRANCH  24  25
BRANCH  24  29
ATOM     29  C   UNL     1      47.780   6.010  18.938  0.00  0.00    +0.000 C 
BRANCH  29  30
ATOM     30  C   UNL     1      48.193   4.818  18.103  0.00  0.00    +0.000 A 
ATOM     31  C   UNL     1      49.341   4.078  18.423  0.00  0.00    +0.000 A 
ATOM     32  C   UNL     1      49.654   2.919  17.712  0.00  0.00    +0.000 A 
ATOM     33  C   UNL     1      48.828   2.492  16.673  0.00  0.00    +0.000 A 
ATOM     34  C   UNL     1      47.699   3.233  16.331  0.00  0.00    +0.000 A 
ATOM     35  C   UNL     1      47.383   4.391  17.042  0.00  0.00    +0.000 A 
ENDBRANCH  29  30
ENDBRANCH  24  29
ENDBRANCH  23  24
ENDBRANCH   4  23
TORSDOF 10
ENDMDL
MODEL 8
REMARK VINA RESULT:    -6.345      3.523      8.309
REMARK INTER + INTRA:         -11.721
REMARK INTER:                  -9.423
REMARK INTRA:                  -2.299
REMARK UNBOUND:                -1.852
REMARK  Name = 
REMARK  10 active torsions:
REMARK  status: ('A' for Active; 'I' for Inactive)
REMARK    1  A    between atoms: C_2  and  C_23
REMARK    2  A    between atoms: N_3  and  C_4
REMARK    3  A    between atoms: C_4  and  C_5
REMARK    4  A    between atoms: C_8  and  C_9
REMARK    5  A    between atoms: C_9  and  N_10
REMARK    6  A    between atoms: N_10  and  C_11
REMARK    7  A    between atoms: N_10  and  C_14
REMARK    8  A    between atoms: C_11  and  C_12
REMARK    9  A    between atoms: C_12  and  O_13
REMARK   10  A    between atoms: C_14  and  C_15
REMARK                            x       y       z     vdW  Elec       q    Type
REMARK                         _______ _______ _______ _____ _____    ______ ____
ROOT
ATOM      1  C   UNL     1      48.822   8.378  15.956  0.00  0.00    +0.000 A 
ATOM      2  C   UNL     1      48.073   8.948  16.992  0.00  0.00    +0.000 A 
ATOM      3  C   UNL     1      48.324   8.595  18.316  0.00  0.00    +0.000 A 
ATOM      4  C   UNL     1      49.326   7.664  18.623  0.00  0.00    +0.000 A 
ATOM      5  C   UNL     1      50.158   7.196  17.598  0.00  0.00    +0.000 A 
ATOM      6  C   UNL     1      49.910   7.556  16.273  0.00  0.00    +0.000 A 
ENDROOT
BRANCH   1   7
ATOM      7  C   UNL     1      48.431   8.621  14.525  0.00  0.00    +0.000 C 
BRANCH   7  10
ATOM      8  O   UNL     1      48.917   6.359  12.928  0.00  0.00    +0.000 OA
ATOM      9  C   UNL     1      47.775   6.588  13.313  0.00  0.00    +0.000 C 
ATOM     10  N   UNL     1      47.450   7.678  14.070  0.00  0.00    +0.000 N 
ATOM     11  H   UNL     1      46.537   7.738  14.506  0.00  0.00    +0.000 HD
BRANCH   9  12
ATOM     12  C   UNL     1      46.650   5.723  12.927  0.00  0.00    +0.000 A 
ATOM     13  C   UNL     1      46.713   4.360  13.189  0.00  0.00    +0.000 A 
ATOM     14  S   UNL     1      45.334   3.502  12.673  0.00  0.00    +0.000 S 
ATOM     15  C   UNL     1      44.588   4.929  12.118  0.00  0.00    +0.000 A 
ATOM     16  N   UNL     1      43.338   4.898  11.583  0.00  0.00    +0.000 NA
ATOM     17  C   UNL     1      42.876   6.055  11.240  0.00  0.00    +0.000 A 
ATOM     18  N   UNL     1      43.560   7.236  11.364  0.00  0.00    +0.000 N 
ATOM     19  C   UNL     1      44.851   7.304  11.826  0.00  0.00    +0.000 A 
ATOM     20  O   UNL     1      45.482   8.356  11.787  0.00  0.00    +0.000 OA
ATOM     21  C   UNL     1      45.395   6.037  12.286  0.00  0.00    +0.000 A 
ATOM     22  H   UNL     1      43.154   8.103  11.045  0.00  0.00    +0.000 HD
ENDBRANCH   9  12
ENDBRANCH   7  10
ENDBRANCH   1   7
BRANCH   4  23
ATOM     23  C   UNL     1      49.449   7.120  20.032  0.00  0.00    +0.000 C 
BRANCH  23  24
ATOM     24  N   UNL     1      49.947   5.718  20.072  0.00  0.00    +0.000 NA
BRANCH  24  25
ATOM     25  C   UNL     1      50.741   5.479  21.304  0.00  0.00    +0.000 C 
BRANCH  25  26
ATOM     26  C   UNL     1      52.207   5.064  21.073  0.00  0.00    +0.000 C 
BRANCH  26  27
ATOM     27  O   UNL     1      52.279   3.958  20.174  0.00  0.00    +0.000 OA
ATOM     28  H   UNL     1      52.317   3.151  20.717  0.00  0.00    +0.000 HD
ENDBRANCH  26  27
ENDBRANCH  25  26
ENDBRANCH  24  25
BRANCH  24  29
ATOM     29  C   UNL     1      48.813   4.777  20.006  0.00  0.00    +0.000 C 
BRANCH  29  30
ATOM     30  C   UNL     1      48.575   4.149  18.650  0.00  0.00    +0.000 A 
ATOM     31  C   UNL     1      49.431   3.153  18.158  0.00  0.00    +0.000 A 
ATOM     32  C   UNL     1      49.143   2.506  16.955  0.00  0.00    +0.000 A 
ATOM     33  C   UNL     1      48.002   2.851  16.233  0.00  0.00    +0.000 A 
ATOM     34  C   UNL     1      47.158   3.855  16.700  0.00  0.00    +0.000 A 
ATOM     35  C   UNL     1      47.442   4.502  17.903  0.00  0.00    +0.000 A 
ENDBRANCH  29  30
ENDBRANCH  24  29
ENDBRANCH  23  24
ENDBRANCH   4  23
TORSDOF 10
ENDMDL
MODEL 9
REMARK VINA RESULT:    -6.318      2.930      8.227
REMARK INTER + INTRA:         -11.678
REMARK INTER:                  -9.724
REMARK INTRA:                  -1.954
REMARK UNBOUND:                -1.852
REMARK  Name = 
REMARK  10 active torsions:
REMARK  status: ('A' for Active; 'I' for Inactive)
REMARK    1  A    between atoms: C_2  and  C_23
REMARK    2  A    between atoms: N_3  and  C_4
REMARK    3  A    between atoms: C_4  and  C_5
REMARK    4  A    between atoms: C_8  and  C_9
REMARK    5  A    between atoms: C_9  and  N_10
REMARK    6  A    between atoms: N_10  and  C_11
REMARK    7  A    between atoms: N_10  and  C_14
REMARK    8  A    between atoms: C_11  and  C_12
REMARK    9  A    between atoms: C_12  and  O_13
REMARK   10  A    between atoms: C_14  and  C_15
REMARK                            x       y       z     vdW  Elec       q    Type
REMARK                         _______ _______ _______ _____ _____    ______ ____
ROOT
ATOM      1  C   UNL     1      48.301   8.039  13.388  0.00  0.00    +0.000 A 
ATOM      2  C   UNL     1      47.757   8.985  14.264  0.00  0.00    +0.000 A 
ATOM      3  C   UNL     1      48.137   9.001  15.605  0.00  0.00    +0.000 A 
ATOM      4  C   UNL     1      49.065   8.069  16.089  0.00  0.00    +0.000 A 
ATOM      5  C   UNL     1      49.704   7.211  15.185  0.00  0.00    +0.000 A 
ATOM      6  C   UNL     1      49.328   7.200  13.841  0.00  0.00    +0.000 A 
ENDROOT
BRANCH   1   7
ATOM      7  C   UNL     1      47.758   7.907  11.993  0.00  0.00    +0.000 C 
BRANCH   7  10
ATOM      8  O   UNL     1      44.964   7.648  12.171  0.00  0.00    +0.000 OA
ATOM      9  C   UNL     1      45.642   6.662  11.903  0.00  0.00    +0.000 C 
ATOM     10  N   UNL     1      47.005   6.697  11.823  0.00  0.00    +0.000 N 
ATOM     11  H   UNL     1      47.510   5.909  11.434  0.00  0.00    +0.000 HD
BRANCH   9  12
ATOM     12  C   UNL     1      45.026   5.341  11.707  0.00  0.00    +0.000 A 
ATOM     13  C   UNL     1      44.358   4.734  12.762  0.00  0.00    +0.000 A 
ATOM     14  S   UNL     1      43.710   3.207  12.370  0.00  0.00    +0.000 S 
ATOM     15  C   UNL     1      44.266   3.323  10.765  0.00  0.00    +0.000 A 
ATOM     16  N   UNL     1      44.005   2.338   9.864  0.00  0.00    +0.000 NA
ATOM     17  C   UNL     1      44.450   2.573   8.673  0.00  0.00    +0.000 A 
ATOM     18  N   UNL     1      45.149   3.693   8.308  0.00  0.00    +0.000 N 
ATOM     19  C   UNL     1      45.502   4.674   9.201  0.00  0.00    +0.000 A 
ATOM     20  O   UNL     1      46.251   5.588   8.871  0.00  0.00    +0.000 OA
ATOM     21  C   UNL     1      44.971   4.490  10.541  0.00  0.00    +0.000 A 
ATOM     22  H   UNL     1      45.499   3.799   7.368  0.00  0.00    +0.000 HD
ENDBRANCH   9  12
ENDBRANCH   7  10
ENDBRANCH   1   7
BRANCH   4  23
ATOM     23  C   UNL     1      49.309   7.947  17.580  0.00  0.00    +0.000 C 
BRANCH  23  24
ATOM     24  N   UNL     1      50.288   6.880  17.923  0.00  0.00    +0.000 NA
BRANCH  24  25
ATOM     25  C   UNL     1      51.469   7.454  18.615  0.00  0.00    +0.000 C 
BRANCH  25  26
ATOM     26  C   UNL     1      52.836   6.942  18.123  0.00  0.00    +0.000 C 
BRANCH  26  27
ATOM     27  O   UNL     1      52.700   6.281  16.865  0.00  0.00    +0.000 OA
ATOM     28  H   UNL     1      52.387   6.945  16.226  0.00  0.00    +0.000 HD
ENDBRANCH  26  27
ENDBRANCH  25  26
ENDBRANCH  24  25
BRANCH  24  29
ATOM     29  C   UNL     1      49.644   5.859  18.772  0.00  0.00    +0.000 C 
BRANCH  29  30
ATOM     30  C   UNL     1      49.218   4.598  18.054  0.00  0.00    +0.000 A 
ATOM     31  C   UNL     1      47.923   4.471  17.529  0.00  0.00    +0.000 A 
ATOM     32  C   UNL     1      47.574   3.349  16.777  0.00  0.00    +0.000 A 
ATOM     33  C   UNL     1      48.511   2.343  16.546  0.00  0.00    +0.000 A 
ATOM     34  C   UNL     1      49.792   2.448  17.083  0.00  0.00    +0.000 A 
ATOM     35  C   UNL     1      50.145   3.569  17.834  0.00  0.00    +0.000 A 
ENDBRANCH  29  30
ENDBRANCH  24  29
ENDBRANCH  23  24
ENDBRANCH   4  23
TORSDOF 10
ENDMDL
