MODEL 1
REMARK VINA RESULT:    -8.155      0.000      0.000
REMARK INTER + INTRA:         -10.766
REMARK INTER:                 -10.538
REMARK INTRA:                  -0.228
REMARK UNBOUND:                -0.228
REMARK  Name = 
REMARK  5 active torsions:
REMARK  status: ('A' for Active; 'I' for Inactive)
REMARK    1  A    between atoms: C_2  and  C_3
REMARK    2  A    between atoms: C_6  and  O_7
REMARK    3  A    between atoms: O_7  and  C_8
REMARK    4  A    between atoms: C_8  and  C_9
REMARK    5  A    between atoms: C_13  and  C_14
REMARK                            x       y       z     vdW  Elec       q    Type
REMARK                         _______ _______ _______ _____ _____    ______ ____
ROOT
ATOM      1  C   UNL     1      44.013   4.608  11.544  0.00  0.00    +0.000 C 
ATOM      2  C   UNL     1      43.433   3.343  12.143  0.00  0.00    +0.000 C 
ATOM      3  C   UNL     1      42.857   4.667  12.527  0.00  0.00    +0.000 C 
ENDROOT
BRANCH   1   4
ATOM      4  C   UNL     1      45.390   5.155  11.951  0.00  0.00    +0.000 A 
ATOM      5  C   UNL     1      45.964   6.234  11.258  0.00  0.00    +0.000 A 
ATOM      6  C   UNL     1      47.077   6.914  11.759  0.00  0.00    +0.000 A 
ATOM      7  C   UNL     1      47.658   6.518  12.966  0.00  0.00    +0.000 A 
ATOM      8  C   UNL     1      47.148   5.434  13.693  0.00  0.00    +0.000 A 
ATOM      9  C   UNL     1      46.035   4.759  13.146  0.00  0.00    +0.000 A 
BRANCH   8  10
ATOM     10  C   UNL     1      47.669   5.081  15.036  0.00  0.00    +0.000 A 
ATOM     11  C   UNL     1      48.465   5.991  15.761  0.00  0.00    +0.000 A 
ATOM     12  C   UNL     1      48.895   5.715  17.063  0.00  0.00    +0.000 A 
ATOM     13  C   UNL     1      48.538   4.518  17.673  0.00  0.00    +0.000 A 
ATOM     14  C   UNL     1      47.768   3.592  16.976  0.00  0.00    +0.000 A 
ATOM     15  C   UNL     1      47.344   3.868  15.669  0.00  0.00    +0.000 A 
ENDBRANCH   8  10
ENDBRANCH   1   4
BRANCH   1  16
ATOM     16  O   UNL     1      43.664   4.702  10.128  0.00  0.00    +0.000 OA
BRANCH  16  20
ATOM     17  C   UNL     1      46.297   2.524   7.884  0.00  0.00    +0.000 A 
ATOM     18  C   UNL     1      45.469   1.866   8.790  0.00  0.00    +0.000 A 
ATOM     19  C   UNL     1      44.542   2.604   9.517  0.00  0.00    +0.000 A 
ATOM     20  C   UNL     1      44.496   3.973   9.306  0.00  0.00    +0.000 A 
ATOM     21  N   UNL     1      45.243   4.629   8.391  0.00  0.00    +0.000 NA
ATOM     22  C   UNL     1      46.139   3.890   7.708  0.00  0.00    +0.000 A 
BRANCH  17  24
ATOM     23  N   UNL     1      48.119   1.255   6.566  0.00  0.00    +0.000 NA
ATOM     24  C   UNL     1      47.311   1.822   7.163  0.00  0.00    +0.000 C 
ENDBRANCH  17  24
ENDBRANCH  16  20
ENDBRANCH   1  16
TORSDOF 5
ENDMDL
MODEL 2
REMARK VINA RESULT:    -8.051      2.231      3.004
REMARK INTER + INTRA:         -10.631
REMARK INTER:                  -9.913
REMARK INTRA:                  -0.718
REMARK UNBOUND:                -0.228
REMARK  Name = 
REMARK  5 active torsions:
REMARK  status: ('A' for Active; 'I' for Inactive)
REMARK    1  A    between atoms: C_2  and  C_3
REMARK    2  A    between atoms: C_6  and  O_7
REMARK    3  A    between atoms: O_7  and  C_8
REMARK    4  A    between atoms: C_8  and  C_9
REMARK    5  A    between atoms: C_13  and  C_14
REMARK                            x       y       z     vdW  Elec       q    Type
REMARK                         _______ _______ _______ _____ _____    ______ ____
ROOT
ATOM      1  C   UNL     1      44.386   4.380  11.362  0.00  0.00    +0.000 C 
ATOM      2  C   UNL     1      45.017   3.241  12.137  0.00  0.00    +0.000 C 
ATOM      3  C   UNL     1      43.722   3.819  12.608  0.00  0.00    +0.000 C 
ENDROOT
BRANCH   1   4
ATOM      4  C   UNL     1      44.960   5.805  11.379  0.00  0.00    +0.000 A 
ATOM      5  C   UNL     1      44.107   6.920  11.328  0.00  0.00    +0.000 A 
ATOM      6  C   UNL     1      44.574   8.208  11.601  0.00  0.00    +0.000 A 
ATOM      7  C   UNL     1      45.917   8.417  11.919  0.00  0.00    +0.000 A 
ATOM      8  C   UNL     1      46.824   7.350  11.963  0.00  0.00    +0.000 A 
ATOM      9  C   UNL     1      46.322   6.065  11.662  0.00  0.00    +0.000 A 
BRANCH   8  10
ATOM     10  C   UNL     1      48.222   7.533  12.423  0.00  0.00    +0.000 A 
ATOM     11  C   UNL     1      49.233   7.921  11.521  0.00  0.00    +0.000 A 
ATOM     12  C   UNL     1      50.538   8.183  11.948  0.00  0.00    +0.000 A 
ATOM     13  C   UNL     1      50.866   8.064  13.294  0.00  0.00    +0.000 A 
ATOM     14  C   UNL     1      49.893   7.666  14.207  0.00  0.00    +0.000 A 
ATOM     15  C   UNL     1      48.588   7.397  13.774  0.00  0.00    +0.000 A 
ENDBRANCH   8  10
ENDBRANCH   1   4
BRANCH   1  16
ATOM     16  O   UNL     1      43.874   3.896  10.083  0.00  0.00    +0.000 OA
BRANCH  16  20
ATOM     17  C   UNL     1      46.604   2.394   7.436  0.00  0.00    +0.000 A 
ATOM     18  C   UNL     1      46.406   3.771   7.501  0.00  0.00    +0.000 A 
ATOM     19  C   UNL     1      45.511   4.281   8.435  0.00  0.00    +0.000 A 
ATOM     20  C   UNL     1      44.850   3.382   9.257  0.00  0.00    +0.000 A 
ATOM     21  N   UNL     1      45.067   2.049   9.259  0.00  0.00    +0.000 NA
ATOM     22  C   UNL     1      45.931   1.581   8.337  0.00  0.00    +0.000 A 
BRANCH  17  24
ATOM     23  N   UNL     1      48.157   1.362   5.651  0.00  0.00    +0.000 NA
ATOM     24  C   UNL     1      47.460   1.814   6.450  0.00  0.00    +0.000 C 
ENDBRANCH  17  24
ENDBRANCH  16  20
ENDBRANCH   1  16
TORSDOF 5
ENDMDL
MODEL 3
REMARK VINA RESULT:    -7.952      2.764      4.992
REMARK INTER + INTRA:         -10.504
REMARK INTER:                  -9.828
REMARK INTRA:                  -0.677
REMARK UNBOUND:                -0.228
REMARK  Name = 
REMARK  5 active torsions:
REMARK  status: ('A' for Active; 'I' for Inactive)
REMARK    1  A    between atoms: C_2  and  C_3
REMARK    2  A    between atoms: C_6  and  O_7
REMARK    3  A    between atoms: O_7  and  C_8
REMARK    4  A    between atoms: C_8  and  C_9
REMARK    5  A    between atoms: C_13  and  C_14
REMARK                            x       y       z     vdW  Elec       q    Type
REMARK                         _______ _______ _______ _____ _____    ______ ____
ROOT
ATOM      1  C   UNL     1      44.364   4.389  11.484  0.00  0.00    +0.000 C 
ATOM      2  C   UNL     1      44.856   3.082  12.070  0.00  0.00    +0.000 C 
ATOM      3  C   UNL     1      43.563   3.657  12.547  0.00  0.00    +0.000 C 
ENDROOT
BRANCH   1   4
ATOM      4  C   UNL     1      45.019   5.739  11.817  0.00  0.00    +0.000 A 
ATOM      5  C   UNL     1      46.382   5.810  12.148  0.00  0.00    +0.000 A 
ATOM      6  C   UNL     1      47.058   7.032  12.199  0.00  0.00    +0.000 A 
ATOM      7  C   UNL     1      46.379   8.222  11.934  0.00  0.00    +0.000 A 
ATOM      8  C   UNL     1      45.013   8.222  11.622  0.00  0.00    +0.000 A 
ATOM      9  C   UNL     1      44.358   6.971  11.599  0.00  0.00    +0.000 A 
BRANCH   8  10
ATOM     10  C   UNL     1      44.306   9.460  11.212  0.00  0.00    +0.000 A 
ATOM     11  C   UNL     1      44.909  10.722  11.380  0.00  0.00    +0.000 A 
ATOM     12  C   UNL     1      44.298  11.894  10.922  0.00  0.00    +0.000 A 
ATOM     13  C   UNL     1      43.066  11.831  10.283  0.00  0.00    +0.000 A 
ATOM     14  C   UNL     1      42.437  10.601  10.118  0.00  0.00    +0.000 A 
ATOM     15  C   UNL     1      43.048   9.429  10.583  0.00  0.00    +0.000 A 
ENDBRANCH   8  10
ENDBRANCH   1   4
BRANCH   1  16
ATOM     16  O   UNL     1      43.935   4.194  10.102  0.00  0.00    +0.000 OA
BRANCH  16  20
ATOM     17  C   UNL     1      46.639   2.529   7.527  0.00  0.00    +0.000 A 
ATOM     18  C   UNL     1      46.536   3.916   7.602  0.00  0.00    +0.000 A 
ATOM     19  C   UNL     1      45.649   4.479   8.513  0.00  0.00    +0.000 A 
ATOM     20  C   UNL     1      44.900   3.621   9.301  0.00  0.00    +0.000 A 
ATOM     21  N   UNL     1      45.022   2.275   9.294  0.00  0.00    +0.000 NA
ATOM     22  C   UNL     1      45.881   1.757   8.395  0.00  0.00    +0.000 A 
BRANCH  17  24
ATOM     23  N   UNL     1      48.153   1.381   5.779  0.00  0.00    +0.000 NA
ATOM     24  C   UNL     1      47.484   1.900   6.562  0.00  0.00    +0.000 C 
ENDBRANCH  17  24
ENDBRANCH  16  20
ENDBRANCH   1  16
TORSDOF 5
ENDMDL
MODEL 4
REMARK VINA RESULT:    -6.782      2.958      7.336
REMARK INTER + INTRA:          -8.993
REMARK INTER:                  -9.041
REMARK INTRA:                   0.048
REMARK UNBOUND:                -0.228
REMARK  Name = 
REMARK  5 active torsions:
REMARK  status: ('A' for Active; 'I' for Inactive)
REMARK    1  A    between atoms: C_2  and  C_3
REMARK    2  A    between atoms: C_6  and  O_7
REMARK    3  A    between atoms: O_7  and  C_8
REMARK    4  A    between atoms: C_8  and  C_9
REMARK    5  A    between atoms: C_13  and  C_14
REMARK                            x       y       z     vdW  Elec       q    Type
REMARK                         _______ _______ _______ _____ _____    ______ ____
ROOT
ATOM      1  C   UNL     1      46.433   7.294  12.427  0.00  0.00    +0.000 C 
ATOM      2  C   UNL     1      46.538   8.723  11.935  0.00  0.00    +0.000 C 
ATOM      3  C   UNL     1      45.900   8.448  13.258  0.00  0.00    +0.000 C 
ENDROOT
BRANCH   1   4
ATOM      4  C   UNL     1      45.455   6.282  11.811  0.00  0.00    +0.000 A 
ATOM      5  C   UNL     1      44.068   6.439  11.970  0.00  0.00    +0.000 A 
ATOM      6  C   UNL     1      43.158   5.695  11.215  0.00  0.00    +0.000 A 
ATOM      7  C   UNL     1      43.615   4.758  10.286  0.00  0.00    +0.000 A 
ATOM      8  C   UNL     1      44.986   4.536  10.097  0.00  0.00    +0.000 A 
ATOM      9  C   UNL     1      45.876   5.292  10.892  0.00  0.00    +0.000 A 
BRANCH   8  10
ATOM     10  C   UNL     1      45.491   3.641   9.028  0.00  0.00    +0.000 A 
ATOM     11  C   UNL     1      46.091   4.172   7.868  0.00  0.00    +0.000 A 
ATOM     12  C   UNL     1      46.651   3.347   6.887  0.00  0.00    +0.000 A 
ATOM     13  C   UNL     1      46.625   1.966   7.044  0.00  0.00    +0.000 A 
ATOM     14  C   UNL     1      46.024   1.412   8.170  0.00  0.00    +0.000 A 
ATOM     15  C   UNL     1      45.457   2.240   9.148  0.00  0.00    +0.000 A 
ENDBRANCH   8  10
ENDBRANCH   1   4
BRANCH   1  16
ATOM     16  O   UNL     1      47.753   6.788  12.794  0.00  0.00    +0.000 OA
BRANCH  16  20
ATOM     17  C   UNL     1      48.083   4.883  16.396  0.00  0.00    +0.000 A 
ATOM     18  C   UNL     1      48.702   6.118  16.221  0.00  0.00    +0.000 A 
ATOM     19  C   UNL     1      48.548   6.785  15.010  0.00  0.00    +0.000 A 
ATOM     20  C   UNL     1      47.785   6.175  14.028  0.00  0.00    +0.000 A 
ATOM     21  N   UNL     1      47.123   5.008  14.190  0.00  0.00    +0.000 NA
ATOM     22  C   UNL     1      47.299   4.379  15.368  0.00  0.00    +0.000 A 
BRANCH  17  24
ATOM     23  N   UNL     1      48.423   3.528  18.567  0.00  0.00    +0.000 NA
ATOM     24  C   UNL     1      48.265   4.126  17.593  0.00  0.00    +0.000 C 
ENDBRANCH  17  24
ENDBRANCH  16  20
ENDBRANCH   1  16
TORSDOF 5
ENDMDL
MODEL 5
REMARK VINA RESULT:    -6.602      2.780      4.805
REMARK INTER + INTRA:          -8.760
REMARK INTER:                  -7.977
REMARK INTRA:                  -0.783
REMARK UNBOUND:                -0.228
REMARK  Name = 
REMARK  5 active torsions:
REMARK  status: ('A' for Active; 'I' for Inactive)
REMARK    1  A    between atoms: C_2  and  C_3
REMARK    2  A    between atoms: C_6  and  O_7
REMARK    3  A    between atoms: O_7  and  C_8
REMARK    4  A    between atoms: C_8  and  C_9
REMARK    5  A    between atoms: C_13  and  C_14
REMARK                            x       y       z     vdW  Elec       q    Type
REMARK                         _______ _______ _______ _____ _____    ______ ____
ROOT
ATOM      1  C   UNL     1      45.589   5.109  12.716  0.00  0.00    +0.000 C 
ATOM      2  C   UNL     1      46.217   3.740  12.874  0.00  0.00    +0.000 C 
ATOM      3  C   UNL     1      45.459   4.335  14.016  0.00  0.00    +0.000 C 
ENDROOT
BRANCH   1   4
ATOM      4  C   UNL     1      46.424   6.398  12.674  0.00  0.00    +0.000 A 
ATOM      5  C   UNL     1      47.823   6.340  12.568  0.00  0.00    +0.000 A 
ATOM      6  C   UNL     1      48.580   7.476  12.269  0.00  0.00    +0.000 A 
ATOM      7  C   UNL     1      47.953   8.709  12.082  0.00  0.00    +0.000 A 
ATOM      8  C   UNL     1      46.562   8.838  12.197  0.00  0.00    +0.000 A 
ATOM      9  C   UNL     1      45.833   7.674  12.521  0.00  0.00    +0.000 A 
BRANCH   8  10
ATOM     10  C   UNL     1      45.868  10.109  11.876  0.00  0.00    +0.000 A 
ATOM     11  C   UNL     1      46.602  11.279  11.594  0.00  0.00    +0.000 A 
ATOM     12  C   UNL     1      45.971  12.465  11.205  0.00  0.00    +0.000 A 
ATOM     13  C   UNL     1      44.587  12.509  11.086  0.00  0.00    +0.000 A 
ATOM     14  C   UNL     1      43.834  11.375  11.375  0.00  0.00    +0.000 A 
ATOM     15  C   UNL     1      44.468  10.190  11.772  0.00  0.00    +0.000 A 
ENDBRANCH   8  10
ENDBRANCH   1   4
BRANCH   1  16
ATOM     16  O   UNL     1      44.448   5.039  11.805  0.00  0.00    +0.000 OA
BRANCH  16  20
ATOM     17  C   UNL     1      45.617   3.678   8.132  0.00  0.00    +0.000 A 
ATOM     18  C   UNL     1      44.738   2.911   8.893  0.00  0.00    +0.000 A 
ATOM     19  C   UNL     1      44.306   3.400  10.121  0.00  0.00    +0.000 A 
ATOM     20  C   UNL     1      44.784   4.634  10.532  0.00  0.00    +0.000 A 
ATOM     21  N   UNL     1      45.587   5.426   9.789  0.00  0.00    +0.000 NA
ATOM     22  C   UNL     1      45.999   4.924   8.608  0.00  0.00    +0.000 A 
BRANCH  17  24
ATOM     23  N   UNL     1      46.581   2.791   5.907  0.00  0.00    +0.000 NA
ATOM     24  C   UNL     1      46.144   3.193   6.896  0.00  0.00    +0.000 C 
ENDBRANCH  17  24
ENDBRANCH  16  20
ENDBRANCH   1  16
TORSDOF 5
ENDMDL
MODEL 6
REMARK VINA RESULT:    -6.593      2.528      3.971
REMARK INTER + INTRA:          -8.747
REMARK INTER:                  -8.072
REMARK INTRA:                  -0.675
REMARK UNBOUND:                -0.228
REMARK  Name = 
REMARK  5 active torsions:
REMARK  status: ('A' for Active; 'I' for Inactive)
REMARK    1  A    between atoms: C_2  and  C_3
REMARK    2  A    between atoms: C_6  and  O_7
REMARK    3  A    between atoms: O_7  and  C_8
REMARK    4  A    between atoms: C_8  and  C_9
REMARK    5  A    between atoms: C_13  and  C_14
REMARK                            x       y       z     vdW  Elec       q    Type
REMARK                         _______ _______ _______ _____ _____    ______ ____
ROOT
ATOM      1  C   UNL     1      45.766   5.105  12.701  0.00  0.00    +0.000 C 
ATOM      2  C   UNL     1      46.714   3.955  12.969  0.00  0.00    +0.000 C 
ATOM      3  C   UNL     1      45.925   4.532  14.098  0.00  0.00    +0.000 C 
ENDROOT
BRANCH   1   4
ATOM      4  C   UNL     1      46.261   6.527  12.398  0.00  0.00    +0.000 A 
ATOM      5  C   UNL     1      45.421   7.635  12.598  0.00  0.00    +0.000 A 
ATOM      6  C   UNL     1      45.918   8.941  12.583  0.00  0.00    +0.000 A 
ATOM      7  C   UNL     1      47.275   9.174  12.350  0.00  0.00    +0.000 A 
ATOM      8  C   UNL     1      48.161   8.113  12.120  0.00  0.00    +0.000 A 
ATOM      9  C   UNL     1      47.620   6.809  12.123  0.00  0.00    +0.000 A 
BRANCH   8  10
ATOM     10  C   UNL     1      49.624   8.331  11.999  0.00  0.00    +0.000 A 
ATOM     11  C   UNL     1      50.379   7.632  11.037  0.00  0.00    +0.000 A 
ATOM     12  C   UNL     1      51.742   7.885  10.848  0.00  0.00    +0.000 A 
ATOM     13  C   UNL     1      52.384   8.847  11.620  0.00  0.00    +0.000 A 
ATOM     14  C   UNL     1      51.668   9.541  12.590  0.00  0.00    +0.000 A 
ATOM     15  C   UNL     1      50.304   9.281  12.783  0.00  0.00    +0.000 A 
ENDBRANCH   8  10
ENDBRANCH   1   4
BRANCH   1  16
ATOM     16  O   UNL     1      44.610   4.639  11.938  0.00  0.00    +0.000 OA
BRANCH  16  20
ATOM     17  C   UNL     1      45.723   3.482   8.178  0.00  0.00    +0.000 A 
ATOM     18  C   UNL     1      45.145   2.548   9.034  0.00  0.00    +0.000 A 
ATOM     19  C   UNL     1      44.724   2.957  10.295  0.00  0.00    +0.000 A 
ATOM     20  C   UNL     1      44.912   4.285  10.641  0.00  0.00    +0.000 A 
ATOM     21  N   UNL     1      45.413   5.226   9.811  0.00  0.00    +0.000 NA
ATOM     22  C   UNL     1      45.822   4.800   8.600  0.00  0.00    +0.000 A 
BRANCH  17  24
ATOM     23  N   UNL     1      46.661   2.799   5.872  0.00  0.00    +0.000 NA
ATOM     24  C   UNL     1      46.233   3.100   6.900  0.00  0.00    +0.000 C 
ENDBRANCH  17  24
ENDBRANCH  16  20
ENDBRANCH   1  16
TORSDOF 5
ENDMDL
MODEL 7
REMARK VINA RESULT:    -6.370      3.831      7.786
REMARK INTER + INTRA:          -8.460
REMARK INTER:                  -7.719
REMARK INTRA:                  -0.741
REMARK UNBOUND:                -0.228
REMARK  Name = 
REMARK  5 active torsions:
REMARK  status: ('A' for Active; 'I' for Inactive)
REMARK    1  A    between atoms: C_2  and  C_3
REMARK    2  A    between atoms: C_6  and  O_7
REMARK    3  A    between atoms: O_7  and  C_8
REMARK    4  A    between atoms: C_8  and  C_9
REMARK    5  A    between atoms: C_13  and  C_14
REMARK                            x       y       z     vdW  Elec       q    Type
REMARK                         _______ _______ _______ _____ _____    ______ ____
ROOT
ATOM      1  C   UNL     1      48.859   8.338  12.563  0.00  0.00    +0.000 C 
ATOM      2  C   UNL     1      50.001   7.545  11.962  0.00  0.00    +0.000 C 
ATOM      3  C   UNL     1      49.660   8.885  11.395  0.00  0.00    +0.000 C 
ENDROOT
BRANCH   1   4
ATOM      4  C   UNL     1      47.388   7.943  12.361  0.00  0.00    +0.000 A 
ATOM      5  C   UNL     1      46.360   8.875  12.583  0.00  0.00    +0.000 A 
ATOM      6  C   UNL     1      45.050   8.630  12.164  0.00  0.00    +0.000 A 
ATOM      7  C   UNL     1      44.729   7.433  11.521  0.00  0.00    +0.000 A 
ATOM      8  C   UNL     1      45.703   6.452  11.292  0.00  0.00    +0.000 A 
ATOM      9  C   UNL     1      47.011   6.725  11.747  0.00  0.00    +0.000 A 
BRANCH   8  10
ATOM     10  C   UNL     1      45.411   5.233  10.498  0.00  0.00    +0.000 A 
ATOM     11  C   UNL     1      44.723   4.147  11.075  0.00  0.00    +0.000 A 
ATOM     12  C   UNL     1      44.361   3.025  10.323  0.00  0.00    +0.000 A 
ATOM     13  C   UNL     1      44.679   2.962   8.971  0.00  0.00    +0.000 A 
ATOM     14  C   UNL     1      45.373   4.012   8.378  0.00  0.00    +0.000 A 
ATOM     15  C   UNL     1      45.741   5.132   9.135  0.00  0.00    +0.000 A 
ENDBRANCH   8  10
ENDBRANCH   1   4
BRANCH   1  16
ATOM     16  O   UNL     1      49.228   8.830  13.888  0.00  0.00    +0.000 OA
BRANCH  16  20
ATOM     17  C   UNL     1      50.164   6.010  16.696  0.00  0.00    +0.000 A 
ATOM     18  C   UNL     1      48.853   6.103  16.236  0.00  0.00    +0.000 A 
ATOM     19  C   UNL     1      48.548   7.031  15.246  0.00  0.00    +0.000 A 
ATOM     20  C   UNL     1      49.575   7.830  14.770  0.00  0.00    +0.000 A 
ATOM     21  N   UNL     1      50.867   7.721  15.153  0.00  0.00    +0.000 NA
ATOM     22  C   UNL     1      51.131   6.821  16.120  0.00  0.00    +0.000 A 
BRANCH  17  24
ATOM     23  N   UNL     1      50.802   4.391  18.603  0.00  0.00    +0.000 NA
ATOM     24  C   UNL     1      50.516   5.122  17.757  0.00  0.00    +0.000 C 
ENDBRANCH  17  24
ENDBRANCH  16  20
ENDBRANCH   1  16
TORSDOF 5
ENDMDL
MODEL 8
REMARK VINA RESULT:    -6.240      3.894      6.405
REMARK INTER + INTRA:          -8.292
REMARK INTER:                  -7.542
REMARK INTRA:                  -0.750
REMARK UNBOUND:                -0.228
REMARK  Name = 
REMARK  5 active torsions:
REMARK  status: ('A' for Active; 'I' for Inactive)
REMARK    1  A    between atoms: C_2  and  C_3
REMARK    2  A    between atoms: C_6  and  O_7
REMARK    3  A    between atoms: O_7  and  C_8
REMARK    4  A    between atoms: C_8  and  C_9
REMARK    5  A    between atoms: C_13  and  C_14
REMARK                            x       y       z     vdW  Elec       q    Type
REMARK                         _______ _______ _______ _____ _____    ______ ____
ROOT
ATOM      1  C   UNL     1      49.336   7.534  15.135  0.00  0.00    +0.000 C 
ATOM      2  C   UNL     1      48.489   8.776  14.957  0.00  0.00    +0.000 C 
ATOM      3  C   UNL     1      49.976   8.906  15.015  0.00  0.00    +0.000 C 
ENDROOT
BRANCH   1   4
ATOM      4  C   UNL     1      49.409   6.771  16.466  0.00  0.00    +0.000 A 
ATOM      5  C   UNL     1      48.444   6.981  17.465  0.00  0.00    +0.000 A 
ATOM      6  C   UNL     1      48.333   6.126  18.564  0.00  0.00    +0.000 A 
ATOM      7  C   UNL     1      49.201   5.042  18.702  0.00  0.00    +0.000 A 
ATOM      8  C   UNL     1      50.201   4.791  17.753  0.00  0.00    +0.000 A 
ATOM      9  C   UNL     1      50.296   5.687  16.666  0.00  0.00    +0.000 A 
BRANCH   8  10
ATOM     10  C   UNL     1      51.046   3.573  17.814  0.00  0.00    +0.000 A 
ATOM     11  C   UNL     1      50.548   2.329  17.380  0.00  0.00    +0.000 A 
ATOM     12  C   UNL     1      51.353   1.186  17.348  0.00  0.00    +0.000 A 
ATOM     13  C   UNL     1      52.682   1.261  17.749  0.00  0.00    +0.000 A 
ATOM     14  C   UNL     1      53.198   2.473  18.199  0.00  0.00    +0.000 A 
ATOM     15  C   UNL     1      52.387   3.614  18.237  0.00  0.00    +0.000 A 
ENDBRANCH   8  10
ENDBRANCH   1   4
BRANCH   1  16
ATOM     16  O   UNL     1      49.309   6.725  13.919  0.00  0.00    +0.000 OA
BRANCH  16  20
ATOM     17  C   UNL     1      45.500   5.456  13.146  0.00  0.00    +0.000 A 
ATOM     18  C   UNL     1      46.036   6.497  12.392  0.00  0.00    +0.000 A 
ATOM     19  C   UNL     1      47.348   6.894  12.625  0.00  0.00    +0.000 A 
ATOM     20  C   UNL     1      48.059   6.231  13.613  0.00  0.00    +0.000 A 
ATOM     21  N   UNL     1      47.586   5.180  14.318  0.00  0.00    +0.000 NA
ATOM     22  C   UNL     1      46.309   4.823  14.078  0.00  0.00    +0.000 A 
BRANCH  17  24
ATOM     23  N   UNL     1      43.040   4.728  12.851  0.00  0.00    +0.000 NA
ATOM     24  C   UNL     1      44.138   5.056  12.993  0.00  0.00    +0.000 C 
ENDBRANCH  17  24
ENDBRANCH  16  20
ENDBRANCH   1  16
TORSDOF 5
ENDMDL
MODEL 9
REMARK VINA RESULT:    -6.227      3.982      7.048
REMARK INTER + INTRA:          -8.275
REMARK INTER:                  -7.402
REMARK INTRA:                  -0.874
REMARK UNBOUND:                -0.228
REMARK  Name = 
REMARK  5 active torsions:
REMARK  status: ('A' for Active; 'I' for Inactive)
REMARK    1  A    between atoms: C_2  and  C_3
REMARK    2  A    between atoms: C_6  and  O_7
REMARK    3  A    between atoms: O_7  and  C_8
REMARK    4  A    between atoms: C_8  and  C_9
REMARK    5  A    between atoms: C_13  and  C_14
REMARK                            x       y       z     vdW  Elec       q    Type
REMARK                         _______ _______ _______ _____ _____    ______ ____
ROOT
ATOM      1  C   UNL     1      46.194   5.052  12.893  0.00  0.00    +0.000 C 
ATOM      2  C   UNL     1      44.861   4.589  13.443  0.00  0.00    +0.000 C 
ATOM      3  C   UNL     1      45.245   4.223  12.046  0.00  0.00    +0.000 C 
ENDROOT
BRANCH   1   4
ATOM      4  C   UNL     1      46.467   6.518  12.521  0.00  0.00    +0.000 A 
ATOM      5  C   UNL     1      45.572   7.531  12.905  0.00  0.00    +0.000 A 
ATOM      6  C   UNL     1      45.917   8.882  12.812  0.00  0.00    +0.000 A 
ATOM      7  C   UNL     1      47.166   9.257  12.314  0.00  0.00    +0.000 A 
ATOM      8  C   UNL     1      48.094   8.295  11.892  0.00  0.00    +0.000 A 
ATOM      9  C   UNL     1      47.704   6.941  11.982  0.00  0.00    +0.000 A 
BRANCH   8  10
ATOM     10  C   UNL     1      49.471   8.667  11.483  0.00  0.00    +0.000 A 
ATOM     11  C   UNL     1      49.843  10.019  11.354  0.00  0.00    +0.000 A 
ATOM     12  C   UNL     1      51.157  10.394  11.054  0.00  0.00    +0.000 A 
ATOM     13  C   UNL     1      52.133   9.421  10.876  0.00  0.00    +0.000 A 
ATOM     14  C   UNL     1      51.792   8.076  10.980  0.00  0.00    +0.000 A 
ATOM     15  C   UNL     1      50.474   7.703  11.273  0.00  0.00    +0.000 A 
ENDBRANCH   8  10
ENDBRANCH   1   4
BRANCH   1  16
ATOM     16  O   UNL     1      47.286   4.328  13.538  0.00  0.00    +0.000 OA
BRANCH  16  20
ATOM     17  C   UNL     1      47.859   5.006  17.529  0.00  0.00    +0.000 A 
ATOM     18  C   UNL     1      48.359   5.920  16.605  0.00  0.00    +0.000 A 
ATOM     19  C   UNL     1      48.121   5.711  15.251  0.00  0.00    +0.000 A 
ATOM     20  C   UNL     1      47.398   4.586  14.887  0.00  0.00    +0.000 A 
ATOM     21  N   UNL     1      46.849   3.716  15.763  0.00  0.00    +0.000 NA
ATOM     22  C   UNL     1      47.104   3.938  17.067  0.00  0.00    +0.000 A 
BRANCH  17  24
ATOM     23  N   UNL     1      48.372   5.243  20.048  0.00  0.00    +0.000 NA
ATOM     24  C   UNL     1      48.133   5.137  18.924  0.00  0.00    +0.000 C 
ENDBRANCH  17  24
ENDBRANCH  16  20
ENDBRANCH   1  16
TORSDOF 5
ENDMDL
