MODEL 1
REMARK VINA RESULT:    -8.042      0.000      0.000
REMARK INTER + INTRA:         -11.204
REMARK INTER:                 -10.393
REMARK INTRA:                  -0.811
REMARK UNBOUND:                -0.811
REMARK  Name = 
REMARK  5 active torsions:
REMARK  status: ('A' for Active; 'I' for Inactive)
REMARK    1  A    between atoms: C_2  and  C_4
REMARK    2  A    between atoms: C_7  and  C_8
REMARK    3  A    between atoms: C_8  and  O_9
REMARK    4  A    between atoms: O_9  and  C_10
REMARK    5  A    between atoms: C_15  and  C_16
REMARK                            x       y       z     vdW  Elec       q    Type
REMARK                         _______ _______ _______ _____ _____    ______ ____
ROOT
ATOM      1  C   UNL     1      45.437   5.579  11.715  0.00  0.00    +0.000 A 
ATOM      2  C   UNL     1      45.447   4.724  12.813  0.00  0.00    +0.000 A 
ATOM      3  C   UNL     1      46.503   4.786  13.706  0.00  0.00    +0.000 A 
ATOM      4  F   UNL     1      46.522   3.957  14.758  0.00  0.00    +0.000 F 
ATOM      5  C   UNL     1      47.544   5.693  13.537  0.00  0.00    +0.000 A 
ATOM      6  C   UNL     1      47.539   6.600  12.471  0.00  0.00    +0.000 A 
ATOM      7  C   UNL     1      46.480   6.502  11.547  0.00  0.00    +0.000 A 
ENDROOT
BRANCH   6   8
ATOM      8  C   UNL     1      48.641   7.638  12.253  0.00  0.00    +0.000 C 
ATOM      9  C   UNL     1      49.470   8.009  13.498  0.00  0.00    +0.000 C 
ATOM     10  C   UNL     1      48.691   8.903  14.470  0.00  0.00    +0.000 C 
ATOM     11  N   UNL     1      48.188  10.116  13.835  0.00  0.00    +0.000 NA
ATOM     12  C   UNL     1      47.386   9.826  12.646  0.00  0.00    +0.000 C 
ATOM     13  C   UNL     1      48.128   8.956  11.631  0.00  0.00    +0.000 C 
ATOM     14  H   UNL     1      48.976  10.713  13.575  0.00  0.00    +0.000 HD
ENDBRANCH   6   8
BRANCH   1  15
ATOM     15  O   UNL     1      44.478   5.611  10.740  0.00  0.00    +0.000 OA
BRANCH  15  16
ATOM     16  C   UNL     1      43.945   4.348  10.337  0.00  0.00    +0.000 C 
BRANCH  16  20
ATOM     17  C   UNL     1      46.585   2.403   7.528  0.00  0.00    +0.000 A 
ATOM     18  C   UNL     1      46.475   3.797   7.519  0.00  0.00    +0.000 A 
ATOM     19  C   UNL     1      45.618   4.435   8.420  0.00  0.00    +0.000 A 
ATOM     20  C   UNL     1      44.851   3.686   9.325  0.00  0.00    +0.000 A 
ATOM     21  C   UNL     1      44.974   2.289   9.329  0.00  0.00    +0.000 A 
ATOM     22  C   UNL     1      45.825   1.650   8.430  0.00  0.00    +0.000 A 
BRANCH  17  24
ATOM     23  N   UNL     1      48.549   2.374   6.087  0.00  0.00    +0.000 N 
ATOM     24  C   UNL     1      47.480   1.684   6.586  0.00  0.00    +0.000 C 
ATOM     25  O   UNL     1      47.297   0.508   6.295  0.00  0.00    +0.000 OA
ATOM     26  H   UNL     1      49.208   1.838   5.537  0.00  0.00    +0.000 HD
ATOM     27  H   UNL     1      48.872   3.237   6.499  0.00  0.00    +0.000 HD
ENDBRANCH  17  24
ENDBRANCH  16  20
ENDBRANCH  15  16
ENDBRANCH   1  15
TORSDOF 5
ENDMDL
MODEL 2
REMARK VINA RESULT:    -7.585      1.659      1.961
REMARK INTER + INTRA:         -10.613
REMARK INTER:                 -10.215
REMARK INTRA:                  -0.398
REMARK UNBOUND:                -0.811
REMARK  Name = 
REMARK  5 active torsions:
REMARK  status: ('A' for Active; 'I' for Inactive)
REMARK    1  A    between atoms: C_2  and  C_4
REMARK    2  A    between atoms: C_7  and  C_8
REMARK    3  A    between atoms: C_8  and  O_9
REMARK    4  A    between atoms: O_9  and  C_10
REMARK    5  A    between atoms: C_15  and  C_16
REMARK                            x       y       z     vdW  Elec       q    Type
REMARK                         _______ _______ _______ _____ _____    ______ ____
ROOT
ATOM      1  C   UNL     1      44.983   5.700  11.716  0.00  0.00    +0.000 A 
ATOM      2  C   UNL     1      44.319   6.909  11.529  0.00  0.00    +0.000 A 
ATOM      3  C   UNL     1      45.004   8.094  11.737  0.00  0.00    +0.000 A 
ATOM      4  F   UNL     1      44.366   9.259  11.570  0.00  0.00    +0.000 F 
ATOM      5  C   UNL     1      46.343   8.101  12.114  0.00  0.00    +0.000 A 
ATOM      6  C   UNL     1      47.054   6.903  12.262  0.00  0.00    +0.000 A 
ATOM      7  C   UNL     1      46.336   5.704  12.085  0.00  0.00    +0.000 A 
ENDROOT
BRANCH   6   8
ATOM      8  C   UNL     1      48.533   6.852  12.645  0.00  0.00    +0.000 C 
ATOM      9  C   UNL     1      48.846   7.052  14.141  0.00  0.00    +0.000 C 
ATOM     10  C   UNL     1      48.686   8.513  14.579  0.00  0.00    +0.000 C 
ATOM     11  N   UNL     1      49.495   9.429  13.781  0.00  0.00    +0.000 NA
ATOM     12  C   UNL     1      49.236   9.288  12.347  0.00  0.00    +0.000 C 
ATOM     13  C   UNL     1      49.406   7.851  11.853  0.00  0.00    +0.000 C 
ATOM     14  H   UNL     1      50.486   9.254  13.965  0.00  0.00    +0.000 HD
ENDBRANCH   6   8
BRANCH   1  15
ATOM     15  O   UNL     1      44.428   4.458  11.574  0.00  0.00    +0.000 OA
BRANCH  15  16
ATOM     16  C   UNL     1      43.767   4.199  10.334  0.00  0.00    +0.000 C 
BRANCH  16  20
ATOM     17  C   UNL     1      46.566   2.440   7.556  0.00  0.00    +0.000 A 
ATOM     18  C   UNL     1      46.376   3.825   7.559  0.00  0.00    +0.000 A 
ATOM     19  C   UNL     1      45.467   4.403   8.450  0.00  0.00    +0.000 A 
ATOM     20  C   UNL     1      44.729   3.601   9.333  0.00  0.00    +0.000 A 
ATOM     21  C   UNL     1      44.932   2.214   9.326  0.00  0.00    +0.000 A 
ATOM     22  C   UNL     1      45.835   1.635   8.437  0.00  0.00    +0.000 A 
BRANCH  17  24
ATOM     23  N   UNL     1      48.603   2.511   6.223  0.00  0.00    +0.000 N 
ATOM     24  C   UNL     1      47.518   1.784   6.624  0.00  0.00    +0.000 C 
ATOM     25  O   UNL     1      47.365   0.625   6.258  0.00  0.00    +0.000 OA
ATOM     26  H   UNL     1      49.297   2.014   5.679  0.00  0.00    +0.000 HD
ATOM     27  H   UNL     1      48.894   3.352   6.700  0.00  0.00    +0.000 HD
ENDBRANCH  17  24
ENDBRANCH  16  20
ENDBRANCH  15  16
ENDBRANCH   1  15
TORSDOF 5
ENDMDL
MODEL 3
REMARK VINA RESULT:    -7.388      4.933      7.895
REMARK INTER + INTRA:         -10.359
REMARK INTER:                 -10.012
REMARK INTRA:                  -0.347
REMARK UNBOUND:                -0.811
REMARK  Name = 
REMARK  5 active torsions:
REMARK  status: ('A' for Active; 'I' for Inactive)
REMARK    1  A    between atoms: C_2  and  C_4
REMARK    2  A    between atoms: C_7  and  C_8
REMARK    3  A    between atoms: C_8  and  O_9
REMARK    4  A    between atoms: O_9  and  C_10
REMARK    5  A    between atoms: C_15  and  C_16
REMARK                            x       y       z     vdW  Elec       q    Type
REMARK                         _______ _______ _______ _____ _____    ______ ____
ROOT
ATOM      1  C   UNL     1      46.689   4.750  14.008  0.00  0.00    +0.000 A 
ATOM      2  C   UNL     1      47.646   5.719  13.724  0.00  0.00    +0.000 A 
ATOM      3  C   UNL     1      47.524   6.468  12.566  0.00  0.00    +0.000 A 
ATOM      4  F   UNL     1      48.449   7.394  12.282  0.00  0.00    +0.000 F 
ATOM      5  C   UNL     1      46.459   6.282  11.691  0.00  0.00    +0.000 A 
ATOM      6  C   UNL     1      45.452   5.350  11.973  0.00  0.00    +0.000 A 
ATOM      7  C   UNL     1      45.608   4.567  13.134  0.00  0.00    +0.000 A 
ENDROOT
BRANCH   6   8
ATOM      8  C   UNL     1      44.244   5.125  11.063  0.00  0.00    +0.000 C 
ATOM      9  C   UNL     1      43.046   4.399  11.705  0.00  0.00    +0.000 C 
ATOM     10  C   UNL     1      43.305   2.899  11.890  0.00  0.00    +0.000 C 
ATOM     11  N   UNL     1      43.671   2.236  10.642  0.00  0.00    +0.000 NA
ATOM     12  C   UNL     1      44.810   2.880   9.987  0.00  0.00    +0.000 C 
ATOM     13  C   UNL     1      44.592   4.376   9.757  0.00  0.00    +0.000 C 
ATOM     14  H   UNL     1      42.868   2.242  10.008  0.00  0.00    +0.000 HD
ENDBRANCH   6   8
BRANCH   1  15
ATOM     15  O   UNL     1      46.696   3.920  15.096  0.00  0.00    +0.000 OA
BRANCH  15  16
ATOM     16  C   UNL     1      47.266   4.452  16.293  0.00  0.00    +0.000 C 
BRANCH  16  20
ATOM     17  C   UNL     1      50.830   2.265  17.372  0.00  0.00    +0.000 A 
ATOM     18  C   UNL     1      50.713   3.613  17.728  0.00  0.00    +0.000 A 
ATOM     19  C   UNL     1      49.566   4.330  17.377  0.00  0.00    +0.000 A 
ATOM     20  C   UNL     1      48.535   3.714  16.653  0.00  0.00    +0.000 A 
ATOM     21  C   UNL     1      48.659   2.361  16.306  0.00  0.00    +0.000 A 
ATOM     22  C   UNL     1      49.803   1.644  16.652  0.00  0.00    +0.000 A 
BRANCH  17  24
ATOM     23  N   UNL     1      51.831   0.178  18.125  0.00  0.00    +0.000 N 
ATOM     24  C   UNL     1      52.032   1.467  17.720  0.00  0.00    +0.000 C 
ATOM     25  O   UNL     1      53.163   1.925  17.611  0.00  0.00    +0.000 OA
ATOM     26  H   UNL     1      52.663  -0.385  18.251  0.00  0.00    +0.000 HD
ATOM     27  H   UNL     1      50.956  -0.303  17.977  0.00  0.00    +0.000 HD
ENDBRANCH  17  24
ENDBRANCH  16  20
ENDBRANCH  15  16
ENDBRANCH   1  15
TORSDOF 5
ENDMDL
MODEL 4
REMARK VINA RESULT:    -6.692      4.685      8.742
REMARK INTER + INTRA:          -9.459
REMARK INTER:                  -9.157
REMARK INTRA:                  -0.303
REMARK UNBOUND:                -0.811
REMARK  Name = 
REMARK  5 active torsions:
REMARK  status: ('A' for Active; 'I' for Inactive)
REMARK    1  A    between atoms: C_2  and  C_4
REMARK    2  A    between atoms: C_7  and  C_8
REMARK    3  A    between atoms: C_8  and  O_9
REMARK    4  A    between atoms: O_9  and  C_10
REMARK    5  A    between atoms: C_15  and  C_16
REMARK                            x       y       z     vdW  Elec       q    Type
REMARK                         _______ _______ _______ _____ _____    ______ ____
ROOT
ATOM      1  C   UNL     1      46.443   5.266  13.683  0.00  0.00    +0.000 A 
ATOM      2  C   UNL     1      47.410   6.162  13.237  0.00  0.00    +0.000 A 
ATOM      3  C   UNL     1      47.317   6.670  11.952  0.00  0.00    +0.000 A 
ATOM      4  F   UNL     1      48.252   7.524  11.515  0.00  0.00    +0.000 F 
ATOM      5  C   UNL     1      46.273   6.315  11.106  0.00  0.00    +0.000 A 
ATOM      6  C   UNL     1      45.257   5.455  11.540  0.00  0.00    +0.000 A 
ATOM      7  C   UNL     1      45.383   4.914  12.835  0.00  0.00    +0.000 A 
ENDROOT
BRANCH   6   8
ATOM      8  C   UNL     1      44.070   5.054  10.663  0.00  0.00    +0.000 C 
ATOM      9  C   UNL     1      42.921   4.322  11.383  0.00  0.00    +0.000 C 
ATOM     10  C   UNL     1      43.278   2.871  11.725  0.00  0.00    +0.000 C 
ATOM     11  N   UNL     1      43.692   2.105  10.554  0.00  0.00    +0.000 NA
ATOM     12  C   UNL     1      44.789   2.750   9.831  0.00  0.00    +0.000 C 
ATOM     13  C   UNL     1      44.472   4.195   9.443  0.00  0.00    +0.000 C 
ATOM     14  H   UNL     1      42.893   1.989   9.926  0.00  0.00    +0.000 HD
ENDBRANCH   6   8
BRANCH   1  15
ATOM     15  O   UNL     1      46.422   4.665  14.911  0.00  0.00    +0.000 OA
BRANCH  15  16
ATOM     16  C   UNL     1      47.556   3.860  15.241  0.00  0.00    +0.000 C 
BRANCH  16  20
ATOM     17  C   UNL     1      48.647   4.310  19.394  0.00  0.00    +0.000 A 
ATOM     18  C   UNL     1      48.215   3.066  18.926  0.00  0.00    +0.000 A 
ATOM     19  C   UNL     1      47.852   2.912  17.585  0.00  0.00    +0.000 A 
ATOM     20  C   UNL     1      47.903   4.004  16.704  0.00  0.00    +0.000 A 
ATOM     21  C   UNL     1      48.344   5.246  17.183  0.00  0.00    +0.000 A 
ATOM     22  C   UNL     1      48.703   5.402  18.521  0.00  0.00    +0.000 A 
BRANCH  17  24
ATOM     23  N   UNL     1      50.367   4.677  21.079  0.00  0.00    +0.000 N 
ATOM     24  C   UNL     1      49.037   4.519  20.812  0.00  0.00    +0.000 C 
ATOM     25  O   UNL     1      48.201   4.589  21.705  0.00  0.00    +0.000 OA
ATOM     26  H   UNL     1      50.605   4.928  22.030  0.00  0.00    +0.000 HD
ATOM     27  H   UNL     1      51.040   4.884  20.355  0.00  0.00    +0.000 HD
ENDBRANCH  17  24
ENDBRANCH  16  20
ENDBRANCH  15  16
ENDBRANCH   1  15
TORSDOF 5
ENDMDL
MODEL 5
REMARK VINA RESULT:    -6.628      5.406      8.068
REMARK INTER + INTRA:          -9.376
REMARK INTER:                  -8.704
REMARK INTRA:                  -0.672
REMARK UNBOUND:                -0.811
REMARK  Name = 
REMARK  5 active torsions:
REMARK  status: ('A' for Active; 'I' for Inactive)
REMARK    1  A    between atoms: C_2  and  C_4
REMARK    2  A    between atoms: C_7  and  C_8
REMARK    3  A    between atoms: C_8  and  O_9
REMARK    4  A    between atoms: O_9  and  C_10
REMARK    5  A    between atoms: C_15  and  C_16
REMARK                            x       y       z     vdW  Elec       q    Type
REMARK                         _______ _______ _______ _____ _____    ______ ____
ROOT
ATOM      1  C   UNL     1      47.193   4.686  14.848  0.00  0.00    +0.000 A 
ATOM      2  C   UNL     1      47.946   5.818  14.552  0.00  0.00    +0.000 A 
ATOM      3  C   UNL     1      47.756   6.455  13.338  0.00  0.00    +0.000 A 
ATOM      4  F   UNL     1      48.487   7.538  13.043  0.00  0.00    +0.000 F 
ATOM      5  C   UNL     1      46.821   5.997  12.417  0.00  0.00    +0.000 A 
ATOM      6  C   UNL     1      46.012   4.891  12.704  0.00  0.00    +0.000 A 
ATOM      7  C   UNL     1      46.241   4.227  13.926  0.00  0.00    +0.000 A 
ENDROOT
BRANCH   6   8
ATOM      8  C   UNL     1      44.947   4.362  11.742  0.00  0.00    +0.000 C 
ATOM      9  C   UNL     1      44.445   5.360  10.682  0.00  0.00    +0.000 C 
ATOM     10  C   UNL     1      43.513   6.422  11.278  0.00  0.00    +0.000 C 
ATOM     11  N   UNL     1      42.376   5.838  11.981  0.00  0.00    +0.000 NA
ATOM     12  C   UNL     1      42.792   4.882  13.008  0.00  0.00    +0.000 C 
ATOM     13  C   UNL     1      43.706   3.786  12.459  0.00  0.00    +0.000 C 
ATOM     14  H   UNL     1      41.766   5.368  11.307  0.00  0.00    +0.000 HD
ENDBRANCH   6   8
BRANCH   1  15
ATOM     15  O   UNL     1      47.292   3.941  15.992  0.00  0.00    +0.000 OA
BRANCH  15  16
ATOM     16  C   UNL     1      48.093   4.493  17.038  0.00  0.00    +0.000 C 
BRANCH  16  20
ATOM     17  C   UNL     1      51.751   2.248  17.506  0.00  0.00    +0.000 A 
ATOM     18  C   UNL     1      50.580   1.586  17.124  0.00  0.00    +0.000 A 
ATOM     19  C   UNL     1      49.390   2.303  16.976  0.00  0.00    +0.000 A 
ATOM     20  C   UNL     1      49.355   3.684  17.226  0.00  0.00    +0.000 A 
ATOM     21  C   UNL     1      50.536   4.338  17.603  0.00  0.00    +0.000 A 
ATOM     22  C   UNL     1      51.724   3.625  17.753  0.00  0.00    +0.000 A 
BRANCH  17  24
ATOM     23  N   UNL     1      52.976   0.242  18.143  0.00  0.00    +0.000 N 
ATOM     24  C   UNL     1      53.037   1.525  17.679  0.00  0.00    +0.000 C 
ATOM     25  O   UNL     1      54.109   2.037  17.379  0.00  0.00    +0.000 OA
ATOM     26  H   UNL     1      53.847  -0.273  18.149  0.00  0.00    +0.000 HD
ATOM     27  H   UNL     1      52.117  -0.289  18.148  0.00  0.00    +0.000 HD
ENDBRANCH  17  24
ENDBRANCH  16  20
ENDBRANCH  15  16
ENDBRANCH   1  15
TORSDOF 5
ENDMDL
MODEL 6
REMARK VINA RESULT:    -6.421      4.367      6.120
REMARK INTER + INTRA:          -9.109
REMARK INTER:                  -8.248
REMARK INTRA:                  -0.861
REMARK UNBOUND:                -0.811
REMARK  Name = 
REMARK  5 active torsions:
REMARK  status: ('A' for Active; 'I' for Inactive)
REMARK    1  A    between atoms: C_2  and  C_4
REMARK    2  A    between atoms: C_7  and  C_8
REMARK    3  A    between atoms: C_8  and  O_9
REMARK    4  A    between atoms: O_9  and  C_10
REMARK    5  A    between atoms: C_15  and  C_16
REMARK                            x       y       z     vdW  Elec       q    Type
REMARK                         _______ _______ _______ _____ _____    ______ ____
ROOT
ATOM      1  C   UNL     1      48.633   8.173  14.647  0.00  0.00    +0.000 A 
ATOM      2  C   UNL     1      48.387   9.428  15.193  0.00  0.00    +0.000 A 
ATOM      3  C   UNL     1      48.368   9.574  16.570  0.00  0.00    +0.000 A 
ATOM      4  F   UNL     1      48.120  10.778  17.100  0.00  0.00    +0.000 F 
ATOM      5  C   UNL     1      48.604   8.495  17.416  0.00  0.00    +0.000 A 
ATOM      6  C   UNL     1      48.904   7.229  16.899  0.00  0.00    +0.000 A 
ATOM      7  C   UNL     1      48.882   7.085  15.498  0.00  0.00    +0.000 A 
ENDROOT
BRANCH   6   8
ATOM      8  C   UNL     1      49.200   6.016  17.781  0.00  0.00    +0.000 C 
ATOM      9  C   UNL     1      49.004   4.639  17.117  0.00  0.00    +0.000 C 
ATOM     10  C   UNL     1      47.523   4.277  16.955  0.00  0.00    +0.000 C 
ATOM     11  N   UNL     1      46.793   4.322  18.217  0.00  0.00    +0.000 NA
ATOM     12  C   UNL     1      46.938   5.612  18.893  0.00  0.00    +0.000 C 
ATOM     13  C   UNL     1      48.399   6.009  19.103  0.00  0.00    +0.000 C 
ATOM     14  H   UNL     1      47.133   3.578  18.831  0.00  0.00    +0.000 HD
ENDBRANCH   6   8
BRANCH   1  15
ATOM     15  O   UNL     1      48.655   7.875  13.312  0.00  0.00    +0.000 OA
BRANCH  15  16
ATOM     16  C   UNL     1      48.526   6.494  12.970  0.00  0.00    +0.000 C 
BRANCH  16  20
ATOM     17  C   UNL     1      44.454   5.437  11.995  0.00  0.00    +0.000 A 
ATOM     18  C   UNL     1      45.124   6.389  11.220  0.00  0.00    +0.000 A 
ATOM     19  C   UNL     1      46.440   6.742  11.532  0.00  0.00    +0.000 A 
ATOM     20  C   UNL     1      47.091   6.162  12.631  0.00  0.00    +0.000 A 
ATOM     21  C   UNL     1      46.412   5.204  13.398  0.00  0.00    +0.000 A 
ATOM     22  C   UNL     1      45.099   4.852  13.090  0.00  0.00    +0.000 A 
BRANCH  17  24
ATOM     23  N   UNL     1      42.096   6.003  11.781  0.00  0.00    +0.000 N 
ATOM     24  C   UNL     1      43.055   5.035  11.701  0.00  0.00    +0.000 C 
ATOM     25  O   UNL     1      42.772   3.892  11.361  0.00  0.00    +0.000 OA
ATOM     26  H   UNL     1      41.169   5.740  11.471  0.00  0.00    +0.000 HD
ATOM     27  H   UNL     1      42.324   6.987  11.798  0.00  0.00    +0.000 HD
ENDBRANCH  17  24
ENDBRANCH  16  20
ENDBRANCH  15  16
ENDBRANCH   1  15
TORSDOF 5
ENDMDL
MODEL 7
REMARK VINA RESULT:    -6.399      4.094      6.037
REMARK INTER + INTRA:          -9.081
REMARK INTER:                  -8.402
REMARK INTRA:                  -0.679
REMARK UNBOUND:                -0.811
REMARK  Name = 
REMARK  5 active torsions:
REMARK  status: ('A' for Active; 'I' for Inactive)
REMARK    1  A    between atoms: C_2  and  C_4
REMARK    2  A    between atoms: C_7  and  C_8
REMARK    3  A    between atoms: C_8  and  O_9
REMARK    4  A    between atoms: O_9  and  C_10
REMARK    5  A    between atoms: C_15  and  C_16
REMARK                            x       y       z     vdW  Elec       q    Type
REMARK                         _______ _______ _______ _____ _____    ______ ____
ROOT
ATOM      1  C   UNL     1      48.901   7.138  15.103  0.00  0.00    +0.000 A 
ATOM      2  C   UNL     1      50.170   7.681  15.276  0.00  0.00    +0.000 A 
ATOM      3  C   UNL     1      50.995   7.167  16.262  0.00  0.00    +0.000 A 
ATOM      4  F   UNL     1      52.213   7.694  16.440  0.00  0.00    +0.000 F 
ATOM      5  C   UNL     1      50.587   6.113  17.071  0.00  0.00    +0.000 A 
ATOM      6  C   UNL     1      49.336   5.511  16.891  0.00  0.00    +0.000 A 
ATOM      7  C   UNL     1      48.490   6.067  15.911  0.00  0.00    +0.000 A 
ENDROOT
BRANCH   6   8
ATOM      8  C   UNL     1      48.847   4.330  17.731  0.00  0.00    +0.000 C 
ATOM      9  C   UNL     1      49.922   3.301  18.131  0.00  0.00    +0.000 C 
ATOM     10  C   UNL     1      50.343   2.411  16.955  0.00  0.00    +0.000 C 
ATOM     11  N   UNL     1      49.212   1.726  16.339  0.00  0.00    +0.000 NA
ATOM     12  C   UNL     1      48.158   2.656  15.932  0.00  0.00    +0.000 C 
ATOM     13  C   UNL     1      47.684   3.552  17.077  0.00  0.00    +0.000 C 
ATOM     14  H   UNL     1      48.827   1.046  17.000  0.00  0.00    +0.000 HD
ENDBRANCH   6   8
BRANCH   1  15
ATOM     15  O   UNL     1      47.972   7.561  14.192  0.00  0.00    +0.000 OA
BRANCH  15  16
ATOM     16  C   UNL     1      48.141   7.092  12.853  0.00  0.00    +0.000 C 
BRANCH  16  20
ATOM     17  C   UNL     1      45.105   4.202  11.818  0.00  0.00    +0.000 A 
ATOM     18  C   UNL     1      45.262   5.348  11.033  0.00  0.00    +0.000 A 
ATOM     19  C   UNL     1      46.238   6.292  11.364  0.00  0.00    +0.000 A 
ATOM     20  C   UNL     1      47.052   6.108  12.492  0.00  0.00    +0.000 A 
ATOM     21  C   UNL     1      46.890   4.953  13.269  0.00  0.00    +0.000 A 
ATOM     22  C   UNL     1      45.916   4.011  12.942  0.00  0.00    +0.000 A 
BRANCH  17  24
ATOM     23  N   UNL     1      43.639   2.394  12.536  0.00  0.00    +0.000 N 
ATOM     24  C   UNL     1      44.078   3.175  11.505  0.00  0.00    +0.000 C 
ATOM     25  O   UNL     1      43.610   3.056  10.379  0.00  0.00    +0.000 OA
ATOM     26  H   UNL     1      42.863   1.778  12.331  0.00  0.00    +0.000 HD
ATOM     27  H   UNL     1      43.805   2.636  13.503  0.00  0.00    +0.000 HD
ENDBRANCH  17  24
ENDBRANCH  16  20
ENDBRANCH  15  16
ENDBRANCH   1  15
TORSDOF 5
ENDMDL
MODEL 8
REMARK VINA RESULT:    -6.264      4.833      7.333
REMARK INTER + INTRA:          -8.906
REMARK INTER:                  -8.380
REMARK INTRA:                  -0.526
REMARK UNBOUND:                -0.811
REMARK  Name = 
REMARK  5 active torsions:
REMARK  status: ('A' for Active; 'I' for Inactive)
REMARK    1  A    between atoms: C_2  and  C_4
REMARK    2  A    between atoms: C_7  and  C_8
REMARK    3  A    between atoms: C_8  and  O_9
REMARK    4  A    between atoms: O_9  and  C_10
REMARK    5  A    between atoms: C_15  and  C_16
REMARK                            x       y       z     vdW  Elec       q    Type
REMARK                         _______ _______ _______ _____ _____    ______ ____
ROOT
ATOM      1  C   UNL     1      46.771   4.182  13.903  0.00  0.00    +0.000 A 
ATOM      2  C   UNL     1      45.839   3.871  12.919  0.00  0.00    +0.000 A 
ATOM      3  C   UNL     1      45.437   4.857  12.034  0.00  0.00    +0.000 A 
ATOM      4  F   UNL     1      44.531   4.564  11.092  0.00  0.00    +0.000 F 
ATOM      5  C   UNL     1      45.957   6.145  12.099  0.00  0.00    +0.000 A 
ATOM      6  C   UNL     1      46.934   6.478  13.045  0.00  0.00    +0.000 A 
ATOM      7  C   UNL     1      47.306   5.478  13.965  0.00  0.00    +0.000 A 
ENDROOT
BRANCH   6   8
ATOM      8  C   UNL     1      47.561   7.869  13.144  0.00  0.00    +0.000 C 
ATOM      9  C   UNL     1      48.446   8.291  11.955  0.00  0.00    +0.000 C 
ATOM     10  C   UNL     1      49.803   7.577  11.957  0.00  0.00    +0.000 C 
ATOM     11  N   UNL     1      50.533   7.765  13.206  0.00  0.00    +0.000 NA
ATOM     12  C   UNL     1      49.742   7.374  14.373  0.00  0.00    +0.000 C 
ATOM     13  C   UNL     1      48.387   8.079  14.432  0.00  0.00    +0.000 C 
ATOM     14  H   UNL     1      50.805   8.748  13.294  0.00  0.00    +0.000 HD
ENDBRANCH   6   8
BRANCH   1  15
ATOM     15  O   UNL     1      47.238   3.321  14.858  0.00  0.00    +0.000 OA
BRANCH  15  16
ATOM     16  C   UNL     1      47.388   3.858  16.174  0.00  0.00    +0.000 C 
BRANCH  16  20
ATOM     17  C   UNL     1      51.342   3.080  17.725  0.00  0.00    +0.000 A 
ATOM     18  C   UNL     1      50.835   4.383  17.751  0.00  0.00    +0.000 A 
ATOM     19  C   UNL     1      49.559   4.646  17.244  0.00  0.00    +0.000 A 
ATOM     20  C   UNL     1      48.786   3.613  16.693  0.00  0.00    +0.000 A 
ATOM     21  C   UNL     1      49.301   2.309  16.678  0.00  0.00    +0.000 A 
ATOM     22  C   UNL     1      50.574   2.045  17.179  0.00  0.00    +0.000 A 
BRANCH  17  24
ATOM     23  N   UNL     1      52.956   1.448  18.540  0.00  0.00    +0.000 N 
ATOM     24  C   UNL     1      52.694   2.756  18.248  0.00  0.00    +0.000 C 
ATOM     25  O   UNL     1      53.557   3.617  18.375  0.00  0.00    +0.000 OA
ATOM     26  H   UNL     1      53.912   1.229  18.788  0.00  0.00    +0.000 HD
ATOM     27  H   UNL     1      52.372   0.695  18.206  0.00  0.00    +0.000 HD
ENDBRANCH  17  24
ENDBRANCH  16  20
ENDBRANCH  15  16
ENDBRANCH   1  15
TORSDOF 5
ENDMDL
MODEL 9
REMARK VINA RESULT:    -6.195      4.568      8.627
REMARK INTER + INTRA:          -8.817
REMARK INTER:                  -8.220
REMARK INTRA:                  -0.597
REMARK UNBOUND:                -0.811
REMARK  Name = 
REMARK  5 active torsions:
REMARK  status: ('A' for Active; 'I' for Inactive)
REMARK    1  A    between atoms: C_2  and  C_4
REMARK    2  A    between atoms: C_7  and  C_8
REMARK    3  A    between atoms: C_8  and  O_9
REMARK    4  A    between atoms: O_9  and  C_10
REMARK    5  A    between atoms: C_15  and  C_16
REMARK                            x       y       z     vdW  Elec       q    Type
REMARK                         _______ _______ _______ _____ _____    ______ ____
ROOT
ATOM      1  C   UNL     1      47.866   6.826  13.676  0.00  0.00    +0.000 A 
ATOM      2  C   UNL     1      47.439   8.132  13.455  0.00  0.00    +0.000 A 
ATOM      3  C   UNL     1      46.153   8.353  12.992  0.00  0.00    +0.000 A 
ATOM      4  F   UNL     1      45.743   9.607  12.767  0.00  0.00    +0.000 F 
ATOM      5  C   UNL     1      45.276   7.299  12.759  0.00  0.00    +0.000 A 
ATOM      6  C   UNL     1      45.656   5.977  13.020  0.00  0.00    +0.000 A 
ATOM      7  C   UNL     1      46.979   5.762  13.453  0.00  0.00    +0.000 A 
ENDROOT
BRANCH   6   8
ATOM      8  C   UNL     1      44.724   4.783  12.810  0.00  0.00    +0.000 C 
ATOM      9  C   UNL     1      45.075   3.856  11.630  0.00  0.00    +0.000 C 
ATOM     10  C   UNL     1      44.730   4.483  10.274  0.00  0.00    +0.000 C 
ATOM     11  N   UNL     1      43.330   4.887  10.183  0.00  0.00    +0.000 NA
ATOM     12  C   UNL     1      42.939   5.775  11.278  0.00  0.00    +0.000 C 
ATOM     13  C   UNL     1      43.240   5.184  12.656  0.00  0.00    +0.000 C 
ATOM     14  H   UNL     1      42.737   4.053  10.195  0.00  0.00    +0.000 HD
ENDBRANCH   6   8
BRANCH   1  15
ATOM     15  O   UNL     1      49.111   6.457  14.104  0.00  0.00    +0.000 OA
BRANCH  15  16
ATOM     16  C   UNL     1      49.702   7.280  15.112  0.00  0.00    +0.000 C 
BRANCH  16  20
ATOM     17  C   UNL     1      48.467   5.867  19.001  0.00  0.00    +0.000 A 
ATOM     18  C   UNL     1      48.392   7.232  18.707  0.00  0.00    +0.000 A 
ATOM     19  C   UNL     1      48.796   7.700  17.453  0.00  0.00    +0.000 A 
ATOM     20  C   UNL     1      49.294   6.810  16.489  0.00  0.00    +0.000 A 
ATOM     21  C   UNL     1      49.360   5.443  16.792  0.00  0.00    +0.000 A 
ATOM     22  C   UNL     1      48.961   4.975  18.042  0.00  0.00    +0.000 A 
BRANCH  17  24
ATOM     23  N   UNL     1      48.572   4.121  20.695  0.00  0.00    +0.000 N 
ATOM     24  C   UNL     1      48.053   5.328  20.321  0.00  0.00    +0.000 C 
ATOM     25  O   UNL     1      47.309   5.954  21.067  0.00  0.00    +0.000 OA
ATOM     26  H   UNL     1      48.369   3.822  21.641  0.00  0.00    +0.000 HD
ATOM     27  H   UNL     1      49.373   3.714  20.235  0.00  0.00    +0.000 HD
ENDBRANCH  17  24
ENDBRANCH  16  20
ENDBRANCH  15  16
ENDBRANCH   1  15
TORSDOF 5
ENDMDL
