MODEL 1
REMARK VINA RESULT:    -7.635      0.000      0.000
REMARK INTER + INTRA:         -10.054
REMARK INTER:                  -9.421
REMARK INTRA:                  -0.634
REMARK UNBOUND:                -0.634
REMARK  Name = 
REMARK  5 active torsions:
REMARK  status: ('A' for Active; 'I' for Inactive)
REMARK    1  A    between atoms: C_1  and  O_2
REMARK    2  A    between atoms: O_2  and  C_3
REMARK    3  A    between atoms: C_6  and  C_7
REMARK    4  A    between atoms: C_7  and  N_8
REMARK    5  A    between atoms: C_9  and  C_11
REMARK                            x       y       z     vdW  Elec       q    Type
REMARK                         _______ _______ _______ _____ _____    ______ ____
ROOT
ATOM      1  N   UNL     1      44.821   5.104  10.259  0.00  0.00    +0.000 N 
ATOM      2  C   UNL     1      44.095   5.920  11.090  0.00  0.00    +0.000 C 
ATOM      3  O   UNL     1      42.917   5.695  11.355  0.00  0.00    +0.000 OA
ATOM      4  H   UNL     1      45.699   5.444   9.877  0.00  0.00    +0.000 HD
ENDROOT
BRANCH   2   5
ATOM      5  C   UNL     1      44.812   7.040  11.705  0.00  0.00    +0.000 A 
ATOM      6  C   UNL     1      44.469   8.340  11.361  0.00  0.00    +0.000 A 
ATOM      7  S   UNL     1      45.376   9.528  12.181  0.00  0.00    +0.000 S 
ATOM      8  C   UNL     1      46.293   8.345  12.989  0.00  0.00    +0.000 A 
ATOM      9  N   UNL     1      47.293   8.700  13.839  0.00  0.00    +0.000 NA
ATOM     10  C   UNL     1      47.932   7.703  14.356  0.00  0.00    +0.000 A 
ATOM     11  N   UNL     1      47.653   6.383  14.106  0.00  0.00    +0.000 N 
ATOM     12  C   UNL     1      46.624   5.978  13.287  0.00  0.00    +0.000 A 
ATOM     13  O   UNL     1      46.355   4.791  13.134  0.00  0.00    +0.000 OA
ATOM     14  C   UNL     1      45.895   7.062  12.659  0.00  0.00    +0.000 A 
ATOM     15  H   UNL     1      48.183   5.651  14.557  0.00  0.00    +0.000 HD
ENDBRANCH   2   5
BRANCH   1  16
ATOM     16  C   UNL     1      44.204   3.987   9.588  0.00  0.00    +0.000 C 
BRANCH  16  20
ATOM     17  C   UNL     1      47.002   1.834   7.234  0.00  0.00    +0.000 A 
ATOM     18  C   UNL     1      46.878   3.193   7.003  0.00  0.00    +0.000 A 
ATOM     19  C   UNL     1      45.957   3.913   7.759  0.00  0.00    +0.000 A 
ATOM     20  C   UNL     1      45.184   3.254   8.719  0.00  0.00    +0.000 A 
ATOM     21  C   UNL     1      45.383   1.887   8.870  0.00  0.00    +0.000 A 
ATOM     22  N   UNL     1      46.272   1.165   8.152  0.00  0.00    +0.000 NA
BRANCH  17  24
ATOM     23  C   UNL     1      47.420   0.802   5.184  0.00  0.00    +0.000 C 
ATOM     24  O   UNL     1      47.927   1.153   6.469  0.00  0.00    +0.000 OA
ENDBRANCH  17  24
ENDBRANCH  16  20
ENDBRANCH   1  16
TORSDOF 4
ENDMDL
MODEL 2
REMARK VINA RESULT:    -7.311      1.674      2.080
REMARK INTER + INTRA:          -9.655
REMARK INTER:                  -9.042
REMARK INTRA:                  -0.613
REMARK UNBOUND:                -0.634
REMARK  Name = 
REMARK  5 active torsions:
REMARK  status: ('A' for Active; 'I' for Inactive)
REMARK    1  A    between atoms: C_1  and  O_2
REMARK    2  A    between atoms: O_2  and  C_3
REMARK    3  A    between atoms: C_6  and  C_7
REMARK    4  A    between atoms: C_7  and  N_8
REMARK    5  A    between atoms: C_9  and  C_11
REMARK                            x       y       z     vdW  Elec       q    Type
REMARK                         _______ _______ _______ _____ _____    ______ ____
ROOT
ATOM      1  N   UNL     1      45.694   4.925  10.900  0.00  0.00    +0.000 N 
ATOM      2  C   UNL     1      45.779   6.213  11.365  0.00  0.00    +0.000 C 
ATOM      3  O   UNL     1      45.053   7.108  10.940  0.00  0.00    +0.000 OA
ATOM      4  H   UNL     1      46.454   4.279  11.092  0.00  0.00    +0.000 HD
ENDROOT
BRANCH   2   5
ATOM      5  C   UNL     1      46.736   6.460  12.447  0.00  0.00    +0.000 A 
ATOM      6  C   UNL     1      47.599   7.545  12.360  0.00  0.00    +0.000 A 
ATOM      7  S   UNL     1      48.629   7.711  13.707  0.00  0.00    +0.000 S 
ATOM      8  C   UNL     1      47.993   6.310  14.433  0.00  0.00    +0.000 A 
ATOM      9  N   UNL     1      48.475   5.861  15.622  0.00  0.00    +0.000 NA
ATOM     10  C   UNL     1      47.929   4.768  16.040  0.00  0.00    +0.000 A 
ATOM     11  N   UNL     1      46.935   4.089  15.381  0.00  0.00    +0.000 N 
ATOM     12  C   UNL     1      46.387   4.529  14.198  0.00  0.00    +0.000 A 
ATOM     13  O   UNL     1      45.454   3.939  13.664  0.00  0.00    +0.000 OA
ATOM     14  C   UNL     1      46.989   5.739  13.671  0.00  0.00    +0.000 A 
ATOM     15  H   UNL     1      46.540   3.247  15.773  0.00  0.00    +0.000 HD
ENDBRANCH   2   5
BRANCH   1  16
ATOM     16  C   UNL     1      44.798   4.581   9.823  0.00  0.00    +0.000 C 
BRANCH  16  20
ATOM     17  C   UNL     1      46.566   1.658   7.306  0.00  0.00    +0.000 A 
ATOM     18  C   UNL     1      46.637   2.981   6.904  0.00  0.00    +0.000 A 
ATOM     19  C   UNL     1      46.053   3.952   7.713  0.00  0.00    +0.000 A 
ATOM     20  C   UNL     1      45.411   3.573   8.895  0.00  0.00    +0.000 A 
ATOM     21  C   UNL     1      45.392   2.218   9.205  0.00  0.00    +0.000 A 
ATOM     22  N   UNL     1      45.953   1.256   8.440  0.00  0.00    +0.000 NA
BRANCH  17  24
ATOM     23  C   UNL     1      47.361   1.214   5.158  0.00  0.00    +0.000 C 
ATOM     24  O   UNL     1      47.159   0.724   6.481  0.00  0.00    +0.000 OA
ENDBRANCH  17  24
ENDBRANCH  16  20
ENDBRANCH   1  16
TORSDOF 4
ENDMDL
MODEL 3
REMARK VINA RESULT:    -7.254      4.265      7.640
REMARK INTER + INTRA:          -9.584
REMARK INTER:                  -8.815
REMARK INTRA:                  -0.768
REMARK UNBOUND:                -0.634
REMARK  Name = 
REMARK  5 active torsions:
REMARK  status: ('A' for Active; 'I' for Inactive)
REMARK    1  A    between atoms: C_1  and  O_2
REMARK    2  A    between atoms: O_2  and  C_3
REMARK    3  A    between atoms: C_6  and  C_7
REMARK    4  A    between atoms: C_7  and  N_8
REMARK    5  A    between atoms: C_9  and  C_11
REMARK                            x       y       z     vdW  Elec       q    Type
REMARK                         _______ _______ _______ _____ _____    ______ ____
ROOT
ATOM      1  N   UNL     1      47.747   5.787  15.883  0.00  0.00    +0.000 N 
ATOM      2  C   UNL     1      48.125   6.215  14.634  0.00  0.00    +0.000 C 
ATOM      3  O   UNL     1      49.279   6.551  14.384  0.00  0.00    +0.000 OA
ATOM      4  H   UNL     1      46.758   5.750  16.114  0.00  0.00    +0.000 HD
ENDROOT
BRANCH   2   5
ATOM      5  C   UNL     1      47.097   6.188  13.591  0.00  0.00    +0.000 A 
ATOM      6  C   UNL     1      46.666   7.382  13.027  0.00  0.00    +0.000 A 
ATOM      7  S   UNL     1      45.490   7.181  11.811  0.00  0.00    +0.000 S 
ATOM      8  C   UNL     1      45.478   5.493  12.028  0.00  0.00    +0.000 A 
ATOM      9  N   UNL     1      44.642   4.703  11.302  0.00  0.00    +0.000 NA
ATOM     10  C   UNL     1      44.710   3.447  11.594  0.00  0.00    +0.000 A 
ATOM     11  N   UNL     1      45.545   2.908  12.540  0.00  0.00    +0.000 N 
ATOM     12  C   UNL     1      46.437   3.663  13.266  0.00  0.00    +0.000 A 
ATOM     13  O   UNL     1      47.220   3.147  14.057  0.00  0.00    +0.000 OA
ATOM     14  C   UNL     1      46.379   5.087  12.996  0.00  0.00    +0.000 A 
ATOM     15  H   UNL     1      45.559   1.913  12.706  0.00  0.00    +0.000 HD
ENDBRANCH   2   5
BRANCH   1  16
ATOM     16  C   UNL     1      48.678   5.794  16.984  0.00  0.00    +0.000 C 
BRANCH  16  20
ATOM     17  C   UNL     1      50.760   2.114  17.336  0.00  0.00    +0.000 A 
ATOM     18  C   UNL     1      49.409   2.062  17.038  0.00  0.00    +0.000 A 
ATOM     19  C   UNL     1      48.708   3.260  16.929  0.00  0.00    +0.000 A 
ATOM     20  C   UNL     1      49.375   4.473  17.126  0.00  0.00    +0.000 A 
ATOM     21  C   UNL     1      50.731   4.414  17.425  0.00  0.00    +0.000 A 
ATOM     22  N   UNL     1      51.436   3.266  17.534  0.00  0.00    +0.000 NA
BRANCH  17  24
ATOM     23  C   UNL     1      52.791   1.064  17.804  0.00  0.00    +0.000 C 
ATOM     24  O   UNL     1      51.424   0.907  17.432  0.00  0.00    +0.000 OA
ENDBRANCH  17  24
ENDBRANCH  16  20
ENDBRANCH   1  16
TORSDOF 4
ENDMDL
MODEL 4
REMARK VINA RESULT:    -7.133      3.051      4.245
REMARK INTER + INTRA:          -9.435
REMARK INTER:                  -8.948
REMARK INTRA:                  -0.487
REMARK UNBOUND:                -0.634
REMARK  Name = 
REMARK  5 active torsions:
REMARK  status: ('A' for Active; 'I' for Inactive)
REMARK    1  A    between atoms: C_1  and  O_2
REMARK    2  A    between atoms: O_2  and  C_3
REMARK    3  A    between atoms: C_6  and  C_7
REMARK    4  A    between atoms: C_7  and  N_8
REMARK    5  A    between atoms: C_9  and  C_11
REMARK                            x       y       z     vdW  Elec       q    Type
REMARK                         _______ _______ _______ _____ _____    ______ ____
ROOT
ATOM      1  N   UNL     1      45.412   5.090  13.491  0.00  0.00    +0.000 N 
ATOM      2  C   UNL     1      46.464   4.395  14.033  0.00  0.00    +0.000 C 
ATOM      3  O   UNL     1      46.653   3.206  13.790  0.00  0.00    +0.000 OA
ATOM      4  H   UNL     1      45.151   5.985  13.895  0.00  0.00    +0.000 HD
ENDROOT
BRANCH   2   5
ATOM      5  C   UNL     1      47.396   5.158  14.868  0.00  0.00    +0.000 A 
ATOM      6  C   UNL     1      48.108   6.211  14.309  0.00  0.00    +0.000 A 
ATOM      7  S   UNL     1      49.127   7.013  15.415  0.00  0.00    +0.000 S 
ATOM      8  C   UNL     1      48.689   5.951  16.670  0.00  0.00    +0.000 A 
ATOM      9  N   UNL     1      49.243   6.067  17.906  0.00  0.00    +0.000 NA
ATOM     10  C   UNL     1      48.850   5.175  18.752  0.00  0.00    +0.000 A 
ATOM     11  N   UNL     1      47.944   4.181  18.476  0.00  0.00    +0.000 N 
ATOM     12  C   UNL     1      47.327   4.052  17.253  0.00  0.00    +0.000 A 
ATOM     13  O   UNL     1      46.471   3.196  17.054  0.00  0.00    +0.000 OA
ATOM     14  C   UNL     1      47.758   5.014  16.258  0.00  0.00    +0.000 A 
ATOM     15  H   UNL     1      47.668   3.524  19.191  0.00  0.00    +0.000 HD
ENDBRANCH   2   5
BRANCH   1  16
ATOM     16  C   UNL     1      44.427   4.428  12.672  0.00  0.00    +0.000 C 
BRANCH  16  20
ATOM     17  C   UNL     1      45.628   4.337   8.603  0.00  0.00    +0.000 A 
ATOM     18  C   UNL     1      45.050   3.194   9.129  0.00  0.00    +0.000 A 
ATOM     19  C   UNL     1      44.660   3.203  10.465  0.00  0.00    +0.000 A 
ATOM     20  C   UNL     1      44.862   4.351  11.238  0.00  0.00    +0.000 A 
ATOM     21  C   UNL     1      45.454   5.443  10.615  0.00  0.00    +0.000 A 
ATOM     22  N   UNL     1      45.840   5.462   9.320  0.00  0.00    +0.000 NA
BRANCH  17  24
ATOM     23  C   UNL     1      46.876   3.207   6.988  0.00  0.00    +0.000 C 
ATOM     24  O   UNL     1      45.999   4.294   7.274  0.00  0.00    +0.000 OA
ENDBRANCH  17  24
ENDBRANCH  16  20
ENDBRANCH   1  16
TORSDOF 4
ENDMDL
MODEL 5
REMARK VINA RESULT:    -6.910      2.492      3.142
REMARK INTER + INTRA:          -9.160
REMARK INTER:                  -8.528
REMARK INTRA:                  -0.632
REMARK UNBOUND:                -0.634
REMARK  Name = 
REMARK  5 active torsions:
REMARK  status: ('A' for Active; 'I' for Inactive)
REMARK    1  A    between atoms: C_1  and  O_2
REMARK    2  A    between atoms: O_2  and  C_3
REMARK    3  A    between atoms: C_6  and  C_7
REMARK    4  A    between atoms: C_7  and  N_8
REMARK    5  A    between atoms: C_9  and  C_11
REMARK                            x       y       z     vdW  Elec       q    Type
REMARK                         _______ _______ _______ _____ _____    ______ ____
ROOT
ATOM      1  N   UNL     1      45.180   5.000  12.250  0.00  0.00    +0.000 N 
ATOM      2  C   UNL     1      45.984   4.228  13.049  0.00  0.00    +0.000 C 
ATOM      3  O   UNL     1      45.979   3.001  12.986  0.00  0.00    +0.000 OA
ATOM      4  H   UNL     1      45.035   5.977  12.491  0.00  0.00    +0.000 HD
ENDROOT
BRANCH   2   5
ATOM      5  C   UNL     1      46.905   4.939  13.940  0.00  0.00    +0.000 A 
ATOM      6  C   UNL     1      47.102   4.470  15.232  0.00  0.00    +0.000 A 
ATOM      7  S   UNL     1      48.221   5.389  16.131  0.00  0.00    +0.000 S 
ATOM      8  C   UNL     1      48.446   6.476  14.840  0.00  0.00    +0.000 A 
ATOM      9  N   UNL     1      49.274   7.546  14.968  0.00  0.00    +0.000 NA
ATOM     10  C   UNL     1      49.324   8.308  13.926  0.00  0.00    +0.000 A 
ATOM     11  N   UNL     1      48.626   8.090  12.765  0.00  0.00    +0.000 N 
ATOM     12  C   UNL     1      47.810   6.998  12.576  0.00  0.00    +0.000 A 
ATOM     13  O   UNL     1      47.252   6.791  11.504  0.00  0.00    +0.000 OA
ATOM     14  C   UNL     1      47.699   6.126  13.730  0.00  0.00    +0.000 A 
ATOM     15  H   UNL     1      48.723   8.718  11.981  0.00  0.00    +0.000 HD
ENDBRANCH   2   5
BRANCH   1  16
ATOM     16  C   UNL     1      44.224   4.399  11.353  0.00  0.00    +0.000 C 
BRANCH  16  20
ATOM     17  C   UNL     1      46.010   3.259   7.677  0.00  0.00    +0.000 A 
ATOM     18  C   UNL     1      45.474   2.258   8.469  0.00  0.00    +0.000 A 
ATOM     19  C   UNL     1      44.893   2.613   9.683  0.00  0.00    +0.000 A 
ATOM     20  C   UNL     1      44.870   3.956  10.073  0.00  0.00    +0.000 A 
ATOM     21  C   UNL     1      45.439   4.881   9.207  0.00  0.00    +0.000 A 
ATOM     22  N   UNL     1      46.006   4.565   8.022  0.00  0.00    +0.000 NA
BRANCH  17  24
ATOM     23  C   UNL     1      47.788   2.145   6.656  0.00  0.00    +0.000 C 
ATOM     24  O   UNL     1      46.574   2.871   6.478  0.00  0.00    +0.000 OA
ENDBRANCH  17  24
ENDBRANCH  16  20
ENDBRANCH   1  16
TORSDOF 4
ENDMDL
MODEL 6
REMARK VINA RESULT:    -6.856      4.472      7.485
REMARK INTER + INTRA:          -9.093
REMARK INTER:                  -8.569
REMARK INTRA:                  -0.524
REMARK UNBOUND:                -0.634
REMARK  Name = 
REMARK  5 active torsions:
REMARK  status: ('A' for Active; 'I' for Inactive)
REMARK    1  A    between atoms: C_1  and  O_2
REMARK    2  A    between atoms: O_2  and  C_3
REMARK    3  A    between atoms: C_6  and  C_7
REMARK    4  A    between atoms: C_7  and  N_8
REMARK    5  A    between atoms: C_9  and  C_11
REMARK                            x       y       z     vdW  Elec       q    Type
REMARK                         _______ _______ _______ _____ _____    ______ ____
ROOT
ATOM      1  N   UNL     1      46.986   4.571  15.876  0.00  0.00    +0.000 N 
ATOM      2  C   UNL     1      47.018   4.282  14.535  0.00  0.00    +0.000 C 
ATOM      3  O   UNL     1      47.170   3.137  14.119  0.00  0.00    +0.000 OA
ATOM      4  H   UNL     1      47.100   5.535  16.177  0.00  0.00    +0.000 HD
ENDROOT
BRANCH   2   5
ATOM      5  C   UNL     1      46.793   5.401  13.615  0.00  0.00    +0.000 A 
ATOM      6  C   UNL     1      47.837   6.272  13.333  0.00  0.00    +0.000 A 
ATOM      7  S   UNL     1      47.425   7.501  12.227  0.00  0.00    +0.000 S 
ATOM      8  C   UNL     1      45.821   6.942  12.123  0.00  0.00    +0.000 A 
ATOM      9  N   UNL     1      44.907   7.588  11.351  0.00  0.00    +0.000 NA
ATOM     10  C   UNL     1      43.721   7.079  11.392  0.00  0.00    +0.000 A 
ATOM     11  N   UNL     1      43.368   5.976  12.130  0.00  0.00    +0.000 N 
ATOM     12  C   UNL     1      44.269   5.267  12.890  0.00  0.00    +0.000 A 
ATOM     13  O   UNL     1      43.942   4.246  13.485  0.00  0.00    +0.000 OA
ATOM     14  C   UNL     1      45.611   5.817  12.900  0.00  0.00    +0.000 A 
ATOM     15  H   UNL     1      42.424   5.621  12.104  0.00  0.00    +0.000 HD
ENDBRANCH   2   5
BRANCH   1  16
ATOM     16  C   UNL     1      47.216   3.545  16.864  0.00  0.00    +0.000 C 
BRANCH  16  20
ATOM     17  C   UNL     1      51.331   2.701  17.458  0.00  0.00    +0.000 A 
ATOM     18  C   UNL     1      50.862   3.937  17.869  0.00  0.00    +0.000 A 
ATOM     19  C   UNL     1      49.517   4.235  17.672  0.00  0.00    +0.000 A 
ATOM     20  C   UNL     1      48.681   3.292  17.066  0.00  0.00    +0.000 A 
ATOM     21  C   UNL     1      49.252   2.083  16.687  0.00  0.00    +0.000 A 
ATOM     22  N   UNL     1      50.553   1.768  16.869  0.00  0.00    +0.000 NA
BRANCH  17  24
ATOM     23  C   UNL     1      52.945   1.044  17.764  0.00  0.00    +0.000 C 
ATOM     24  O   UNL     1      52.669   2.439  17.673  0.00  0.00    +0.000 OA
ENDBRANCH  17  24
ENDBRANCH  16  20
ENDBRANCH   1  16
TORSDOF 4
ENDMDL
MODEL 7
REMARK VINA RESULT:    -6.767      3.294      5.440
REMARK INTER + INTRA:          -8.983
REMARK INTER:                  -8.175
REMARK INTRA:                  -0.808
REMARK UNBOUND:                -0.634
REMARK  Name = 
REMARK  5 active torsions:
REMARK  status: ('A' for Active; 'I' for Inactive)
REMARK    1  A    between atoms: C_1  and  O_2
REMARK    2  A    between atoms: O_2  and  C_3
REMARK    3  A    between atoms: C_6  and  C_7
REMARK    4  A    between atoms: C_7  and  N_8
REMARK    5  A    between atoms: C_9  and  C_11
REMARK                            x       y       z     vdW  Elec       q    Type
REMARK                         _______ _______ _______ _____ _____    ______ ____
ROOT
ATOM      1  N   UNL     1      46.957   7.163  14.020  0.00  0.00    +0.000 N 
ATOM      2  C   UNL     1      48.207   6.604  14.105  0.00  0.00    +0.000 C 
ATOM      3  O   UNL     1      48.941   6.500  13.125  0.00  0.00    +0.000 OA
ATOM      4  H   UNL     1      46.298   7.015  14.779  0.00  0.00    +0.000 HD
ENDROOT
BRANCH   2   5
ATOM      5  C   UNL     1      48.657   6.196  15.438  0.00  0.00    +0.000 A 
ATOM      6  C   UNL     1      49.672   6.908  16.064  0.00  0.00    +0.000 A 
ATOM      7  S   UNL     1      50.061   6.326  17.617  0.00  0.00    +0.000 S 
ATOM      8  C   UNL     1      48.920   5.070  17.490  0.00  0.00    +0.000 A 
ATOM      9  N   UNL     1      48.768   4.163  18.492  0.00  0.00    +0.000 NA
ATOM     10  C   UNL     1      47.895   3.243  18.249  0.00  0.00    +0.000 A 
ATOM     11  N   UNL     1      47.153   3.154  17.097  0.00  0.00    +0.000 N 
ATOM     12  C   UNL     1      47.243   4.073  16.077  0.00  0.00    +0.000 A 
ATOM     13  O   UNL     1      46.520   4.007  15.089  0.00  0.00    +0.000 OA
ATOM     14  C   UNL     1      48.233   5.111  16.290  0.00  0.00    +0.000 A 
ATOM     15  H   UNL     1      46.474   2.416  16.979  0.00  0.00    +0.000 HD
ENDBRANCH   2   5
BRANCH   1  16
ATOM     16  C   UNL     1      46.412   7.579  12.751  0.00  0.00    +0.000 C 
BRANCH  16  20
ATOM     17  C   UNL     1      44.264   4.376  10.980  0.00  0.00    +0.000 A 
ATOM     18  C   UNL     1      45.258   4.979  10.227  0.00  0.00    +0.000 A 
ATOM     19  C   UNL     1      45.966   6.038  10.789  0.00  0.00    +0.000 A 
ATOM     20  C   UNL     1      45.657   6.468  12.083  0.00  0.00    +0.000 A 
ATOM     21  C   UNL     1      44.639   5.798  12.752  0.00  0.00    +0.000 A 
ATOM     22  N   UNL     1      43.939   4.766  12.232  0.00  0.00    +0.000 NA
BRANCH  17  24
ATOM     23  C   UNL     1      44.409   2.575   9.504  0.00  0.00    +0.000 C 
ATOM     24  O   UNL     1      43.586   3.328  10.393  0.00  0.00    +0.000 OA
ENDBRANCH  17  24
ENDBRANCH  16  20
ENDBRANCH   1  16
TORSDOF 4
ENDMDL
MODEL 8
REMARK VINA RESULT:    -6.499      3.848      8.454
REMARK INTER + INTRA:          -8.652
REMARK INTER:                  -8.111
REMARK INTRA:                  -0.541
REMARK UNBOUND:                -0.634
REMARK  Name = 
REMARK  5 active torsions:
REMARK  status: ('A' for Active; 'I' for Inactive)
REMARK    1  A    between atoms: C_1  and  O_2
REMARK    2  A    between atoms: O_2  and  C_3
REMARK    3  A    between atoms: C_6  and  C_7
REMARK    4  A    between atoms: C_7  and  N_8
REMARK    5  A    between atoms: C_9  and  C_11
REMARK                            x       y       z     vdW  Elec       q    Type
REMARK                         _______ _______ _______ _____ _____    ______ ____
ROOT
ATOM      1  N   UNL     1      47.715   6.389  14.862  0.00  0.00    +0.000 N 
ATOM      2  C   UNL     1      47.767   6.212  13.502  0.00  0.00    +0.000 C 
ATOM      3  O   UNL     1      48.832   6.107  12.900  0.00  0.00    +0.000 OA
ATOM      4  H   UNL     1      46.848   6.709  15.285  0.00  0.00    +0.000 HD
ENDROOT
BRANCH   2   5
ATOM      5  C   UNL     1      46.484   6.086  12.805  0.00  0.00    +0.000 A 
ATOM      6  C   UNL     1      45.888   7.217  12.264  0.00  0.00    +0.000 A 
ATOM      7  S   UNL     1      44.417   6.900  11.464  0.00  0.00    +0.000 S 
ATOM      8  C   UNL     1      44.499   5.246  11.855  0.00  0.00    +0.000 A 
ATOM      9  N   UNL     1      43.506   4.393  11.487  0.00  0.00    +0.000 NA
ATOM     10  C   UNL     1      43.678   3.175  11.880  0.00  0.00    +0.000 A 
ATOM     11  N   UNL     1      44.760   2.731  12.599  0.00  0.00    +0.000 N 
ATOM     12  C   UNL     1      45.808   3.549  12.955  0.00  0.00    +0.000 A 
ATOM     13  O   UNL     1      46.793   3.112  13.539  0.00  0.00    +0.000 OA
ATOM     14  C   UNL     1      45.647   4.936  12.562  0.00  0.00    +0.000 A 
ATOM     15  H   UNL     1      44.839   1.759  12.861  0.00  0.00    +0.000 HD
ENDBRANCH   2   5
BRANCH   1  16
ATOM     16  C   UNL     1      48.920   6.546  15.638  0.00  0.00    +0.000 C 
BRANCH  16  20
ATOM     17  C   UNL     1      48.636   4.809  19.499  0.00  0.00    +0.000 A 
ATOM     18  C   UNL     1      48.815   3.957  18.422  0.00  0.00    +0.000 A 
ATOM     19  C   UNL     1      48.900   4.509  17.147  0.00  0.00    +0.000 A 
ATOM     20  C   UNL     1      48.798   5.894  16.985  0.00  0.00    +0.000 A 
ATOM     21  C   UNL     1      48.615   6.660  18.130  0.00  0.00    +0.000 A 
ATOM     22  N   UNL     1      48.532   6.150  19.379  0.00  0.00    +0.000 NA
BRANCH  17  24
ATOM     23  C   UNL     1      48.242   5.168  21.771  0.00  0.00    +0.000 C 
ATOM     24  O   UNL     1      48.560   4.227  20.749  0.00  0.00    +0.000 OA
ENDBRANCH  17  24
ENDBRANCH  16  20
ENDBRANCH   1  16
TORSDOF 4
ENDMDL
MODEL 9
REMARK VINA RESULT:    -5.677      2.483      3.627
REMARK INTER + INTRA:          -7.638
REMARK INTER:                  -6.958
REMARK INTRA:                  -0.681
REMARK UNBOUND:                -0.634
REMARK  Name = 
REMARK  5 active torsions:
REMARK  status: ('A' for Active; 'I' for Inactive)
REMARK    1  A    between atoms: C_1  and  O_2
REMARK    2  A    between atoms: O_2  and  C_3
REMARK    3  A    between atoms: C_6  and  C_7
REMARK    4  A    between atoms: C_7  and  N_8
REMARK    5  A    between atoms: C_9  and  C_11
REMARK                            x       y       z     vdW  Elec       q    Type
REMARK                         _______ _______ _______ _____ _____    ______ ____
ROOT
ATOM      1  N   UNL     1      45.225   6.917  11.318  0.00  0.00    +0.000 N 
ATOM      2  C   UNL     1      46.213   6.838  12.267  0.00  0.00    +0.000 C 
ATOM      3  O   UNL     1      46.228   5.952  13.118  0.00  0.00    +0.000 OA
ATOM      4  H   UNL     1      45.112   7.780  10.794  0.00  0.00    +0.000 HD
ENDROOT
BRANCH   2   5
ATOM      5  C   UNL     1      47.293   7.824  12.177  0.00  0.00    +0.000 A 
ATOM      6  C   UNL     1      48.611   7.388  12.113  0.00  0.00    +0.000 A 
ATOM      7  S   UNL     1      49.745   8.653  11.984  0.00  0.00    +0.000 S 
ATOM      8  C   UNL     1      48.519   9.831  12.057  0.00  0.00    +0.000 A 
ATOM      9  N   UNL     1      48.824  11.156  12.031  0.00  0.00    +0.000 NA
ATOM     10  C   UNL     1      47.802  11.939  12.131  0.00  0.00    +0.000 A 
ATOM     11  N   UNL     1      46.501  11.516  12.245  0.00  0.00    +0.000 N 
ATOM     12  C   UNL     1      46.143  10.188  12.232  0.00  0.00    +0.000 A 
ATOM     13  O   UNL     1      44.968   9.839  12.267  0.00  0.00    +0.000 OA
ATOM     14  C   UNL     1      47.260   9.266  12.151  0.00  0.00    +0.000 A 
ATOM     15  H   UNL     1      45.746  12.184  12.303  0.00  0.00    +0.000 HD
ENDBRANCH   2   5
BRANCH   1  16
ATOM     16  C   UNL     1      44.106   6.007  11.331  0.00  0.00    +0.000 C 
BRANCH  16  20
ATOM     17  C   UNL     1      45.011   2.454   9.196  0.00  0.00    +0.000 A 
ATOM     18  C   UNL     1      44.221   2.341  10.328  0.00  0.00    +0.000 A 
ATOM     19  C   UNL     1      43.923   3.496  11.046  0.00  0.00    +0.000 A 
ATOM     20  C   UNL     1      44.426   4.727  10.617  0.00  0.00    +0.000 A 
ATOM     21  C   UNL     1      45.213   4.731   9.471  0.00  0.00    +0.000 A 
ATOM     22  N   UNL     1      45.515   3.626   8.754  0.00  0.00    +0.000 NA
BRANCH  17  24
ATOM     23  C   UNL     1      46.565   1.310   7.886  0.00  0.00    +0.000 C 
ATOM     24  O   UNL     1      45.283   1.289   8.507  0.00  0.00    +0.000 OA
ENDBRANCH  17  24
ENDBRANCH  16  20
ENDBRANCH   1  16
TORSDOF 4
ENDMDL
