MODEL 1
REMARK VINA RESULT:    -7.989      0.000      0.000
REMARK INTER + INTRA:         -11.140
REMARK INTER:                 -10.324
REMARK INTRA:                  -0.816
REMARK UNBOUND:                -0.816
REMARK  Name = 
REMARK  5 active torsions:
REMARK  status: ('A' for Active; 'I' for Inactive)
REMARK    1  A    between atoms: C_2  and  C_4
REMARK    2  A    between atoms: C_9  and  O_10
REMARK    3  A    between atoms: O_10  and  C_11
REMARK    4  A    between atoms: C_11  and  C_12
REMARK    5  A    between atoms: C_17  and  C_18
REMARK                            x       y       z     vdW  Elec       q    Type
REMARK                         _______ _______ _______ _____ _____    ______ ____
ROOT
ATOM      1  C   UNL     1      44.918   6.559  11.086  0.00  0.00    +0.000 C 
ENDROOT
BRANCH   1   2
ATOM      2  C   UNL     1      44.674   5.134  10.662  0.00  0.00    +0.000 A 
ATOM      3  C   UNL     1      43.912   4.270  11.454  0.00  0.00    +0.000 A 
ATOM      4  C   UNL     1      43.699   2.960  11.041  0.00  0.00    +0.000 A 
ATOM      5  F   UNL     1      42.950   2.145  11.797  0.00  0.00    +0.000 F 
ATOM      6  C   UNL     1      44.244   2.478   9.854  0.00  0.00    +0.000 A 
ATOM      7  C   UNL     1      45.028   3.317   9.053  0.00  0.00    +0.000 A 
ATOM      8  C   UNL     1      45.230   4.647   9.468  0.00  0.00    +0.000 A 
BRANCH   7   9
ATOM      9  C   UNL     1      45.630   2.802   7.757  0.00  0.00    +0.000 C 
ATOM     10  C   UNL     1      46.513   1.564   7.999  0.00  0.00    +0.000 C 
ATOM     11  C   UNL     1      47.160   1.081   6.704  0.00  0.00    +0.000 C 
ATOM     12  C   UNL     1      47.871   2.230   5.999  0.00  0.00    +0.000 C 
ATOM     13  C   UNL     1      46.943   3.429   5.819  0.00  0.00    +0.000 C 
ATOM     14  N   UNL     1      46.395   3.872   7.099  0.00  0.00    +0.000 NA
ATOM     15  H   UNL     1      45.777   4.668   6.947  0.00  0.00    +0.000 HD
ENDBRANCH   7   9
ENDBRANCH   1   2
BRANCH   1  16
ATOM     16  O   UNL     1      46.326   6.797  11.089  0.00  0.00    +0.000 OA
BRANCH  16  22
ATOM     17  C   UNL     1      47.551   5.514  14.360  0.00  0.00    +0.000 A 
ATOM     18  C   UNL     1      48.440   6.542  14.681  0.00  0.00    +0.000 A 
ATOM     19  C   UNL     1      48.586   7.604  13.799  0.00  0.00    +0.000 A 
ATOM     20  F   UNL     1      49.445   8.587  14.098  0.00  0.00    +0.000 F 
ATOM     21  C   UNL     1      47.866   7.662  12.610  0.00  0.00    +0.000 A 
ATOM     22  C   UNL     1      46.977   6.637  12.281  0.00  0.00    +0.000 A 
ATOM     23  C   UNL     1      46.825   5.561  13.158  0.00  0.00    +0.000 A 
BRANCH  17  25
ATOM     24  N   UNL     1      47.075   4.559  16.550  0.00  0.00    +0.000 N 
ATOM     25  C   UNL     1      47.374   4.332  15.237  0.00  0.00    +0.000 C 
ATOM     26  O   UNL     1      47.462   3.192  14.796  0.00  0.00    +0.000 OA
ATOM     27  H   UNL     1      46.872   3.741  17.113  0.00  0.00    +0.000 HD
ATOM     28  H   UNL     1      46.766   5.455  16.898  0.00  0.00    +0.000 HD
ENDBRANCH  17  25
ENDBRANCH  16  22
ENDBRANCH   1  16
TORSDOF 5
ENDMDL
MODEL 2
REMARK VINA RESULT:    -7.284      2.140      2.721
REMARK INTER + INTRA:         -10.229
REMARK INTER:                  -9.325
REMARK INTRA:                  -0.904
REMARK UNBOUND:                -0.816
REMARK  Name = 
REMARK  5 active torsions:
REMARK  status: ('A' for Active; 'I' for Inactive)
REMARK    1  A    between atoms: C_2  and  C_4
REMARK    2  A    between atoms: C_9  and  O_10
REMARK    3  A    between atoms: O_10  and  C_11
REMARK    4  A    between atoms: C_11  and  C_12
REMARK    5  A    between atoms: C_17  and  C_18
REMARK                            x       y       z     vdW  Elec       q    Type
REMARK                         _______ _______ _______ _____ _____    ______ ____
ROOT
ATOM      1  C   UNL     1      44.040   6.513  10.987  0.00  0.00    +0.000 C 
ENDROOT
BRANCH   1   2
ATOM      2  C   UNL     1      44.180   5.046  10.671  0.00  0.00    +0.000 A 
ATOM      3  C   UNL     1      43.419   4.091  11.350  0.00  0.00    +0.000 A 
ATOM      4  C   UNL     1      43.564   2.743  11.041  0.00  0.00    +0.000 A 
ATOM      5  F   UNL     1      42.815   1.836  11.682  0.00  0.00    +0.000 F 
ATOM      6  C   UNL     1      44.469   2.318  10.073  0.00  0.00    +0.000 A 
ATOM      7  C   UNL     1      45.258   3.253   9.393  0.00  0.00    +0.000 A 
ATOM      8  C   UNL     1      45.098   4.617   9.700  0.00  0.00    +0.000 A 
BRANCH   7   9
ATOM      9  C   UNL     1      46.251   2.800   8.336  0.00  0.00    +0.000 C 
ATOM     10  C   UNL     1      45.944   3.435   6.967  0.00  0.00    +0.000 C 
ATOM     11  C   UNL     1      46.910   2.937   5.895  0.00  0.00    +0.000 C 
ATOM     12  C   UNL     1      46.958   1.414   5.883  0.00  0.00    +0.000 C 
ATOM     13  C   UNL     1      47.239   0.857   7.276  0.00  0.00    +0.000 C 
ATOM     14  N   UNL     1      46.254   1.332   8.245  0.00  0.00    +0.000 NA
ATOM     15  H   UNL     1      46.470   0.950   9.165  0.00  0.00    +0.000 HD
ENDBRANCH   7   9
ENDBRANCH   1   2
BRANCH   1  16
ATOM     16  O   UNL     1      44.355   6.713  12.366  0.00  0.00    +0.000 OA
BRANCH  16  22
ATOM     17  C   UNL     1      48.048   6.700  12.819  0.00  0.00    +0.000 A 
ATOM     18  C   UNL     1      48.157   5.627  13.706  0.00  0.00    +0.000 A 
ATOM     19  C   UNL     1      47.004   4.966  14.106  0.00  0.00    +0.000 A 
ATOM     20  F   UNL     1      47.103   3.943  14.966  0.00  0.00    +0.000 F 
ATOM     21  C   UNL     1      45.750   5.350  13.641  0.00  0.00    +0.000 A 
ATOM     22  C   UNL     1      45.633   6.422  12.755  0.00  0.00    +0.000 A 
ATOM     23  C   UNL     1      46.786   7.099  12.349  0.00  0.00    +0.000 A 
BRANCH  17  25
ATOM     24  N   UNL     1      50.292   7.550  13.239  0.00  0.00    +0.000 N 
ATOM     25  C   UNL     1      49.234   7.474  12.380  0.00  0.00    +0.000 C 
ATOM     26  O   UNL     1      49.277   8.002  11.275  0.00  0.00    +0.000 OA
ATOM     27  H   UNL     1      51.125   8.007  12.888  0.00  0.00    +0.000 HD
ATOM     28  H   UNL     1      50.393   6.947  14.044  0.00  0.00    +0.000 HD
ENDBRANCH  17  25
ENDBRANCH  16  22
ENDBRANCH   1  16
TORSDOF 5
ENDMDL
MODEL 3
REMARK VINA RESULT:    -7.205      2.694      4.192
REMARK INTER + INTRA:         -10.127
REMARK INTER:                  -9.171
REMARK INTRA:                  -0.956
REMARK UNBOUND:                -0.816
REMARK  Name = 
REMARK  5 active torsions:
REMARK  status: ('A' for Active; 'I' for Inactive)
REMARK    1  A    between atoms: C_2  and  C_4
REMARK    2  A    between atoms: C_9  and  O_10
REMARK    3  A    between atoms: O_10  and  C_11
REMARK    4  A    between atoms: C_11  and  C_12
REMARK    5  A    between atoms: C_17  and  C_18
REMARK                            x       y       z     vdW  Elec       q    Type
REMARK                         _______ _______ _______ _____ _____    ______ ____
ROOT
ATOM      1  C   UNL     1      48.726   6.963  13.218  0.00  0.00    +0.000 C 
ENDROOT
BRANCH   1   2
ATOM      2  C   UNL     1      47.346   7.173  12.649  0.00  0.00    +0.000 A 
ATOM      3  C   UNL     1      46.641   8.355  12.896  0.00  0.00    +0.000 A 
ATOM      4  C   UNL     1      45.371   8.527  12.359  0.00  0.00    +0.000 A 
ATOM      5  F   UNL     1      44.711   9.672  12.585  0.00  0.00    +0.000 F 
ATOM      6  C   UNL     1      44.772   7.536  11.588  0.00  0.00    +0.000 A 
ATOM      7  C   UNL     1      45.447   6.335  11.343  0.00  0.00    +0.000 A 
ATOM      8  C   UNL     1      46.740   6.170  11.877  0.00  0.00    +0.000 A 
BRANCH   7   9
ATOM      9  C   UNL     1      44.803   5.245  10.504  0.00  0.00    +0.000 C 
ATOM     10  C   UNL     1      44.806   3.892  11.240  0.00  0.00    +0.000 C 
ATOM     11  C   UNL     1      44.207   2.787  10.375  0.00  0.00    +0.000 C 
ATOM     12  C   UNL     1      44.875   2.757   9.005  0.00  0.00    +0.000 C 
ATOM     13  C   UNL     1      44.858   4.136   8.349  0.00  0.00    +0.000 C 
ATOM     14  N   UNL     1      45.488   5.138   9.207  0.00  0.00    +0.000 NA
ATOM     15  H   UNL     1      45.456   6.047   8.746  0.00  0.00    +0.000 HD
ENDBRANCH   7   9
ENDBRANCH   1   2
BRANCH   1  16
ATOM     16  O   UNL     1      48.789   7.589  14.500  0.00  0.00    +0.000 OA
BRANCH  16  22
ATOM     17  C   UNL     1      48.192   4.695  16.760  0.00  0.00    +0.000 A 
ATOM     18  C   UNL     1      48.434   5.319  17.986  0.00  0.00    +0.000 A 
ATOM     19  C   UNL     1      48.781   6.663  17.998  0.00  0.00    +0.000 A 
ATOM     20  F   UNL     1      49.024   7.263  19.171  0.00  0.00    +0.000 F 
ATOM     21  C   UNL     1      48.890   7.395  16.820  0.00  0.00    +0.000 A 
ATOM     22  C   UNL     1      48.651   6.777  15.591  0.00  0.00    +0.000 A 
ATOM     23  C   UNL     1      48.306   5.424  15.565  0.00  0.00    +0.000 A 
BRANCH  17  25
ATOM     24  N   UNL     1      46.936   2.765  17.554  0.00  0.00    +0.000 N 
ATOM     25  C   UNL     1      47.855   3.254  16.671  0.00  0.00    +0.000 C 
ATOM     26  O   UNL     1      48.358   2.533  15.817  0.00  0.00    +0.000 OA
ATOM     27  H   UNL     1      46.653   1.800  17.421  0.00  0.00    +0.000 HD
ATOM     28  H   UNL     1      46.332   3.356  18.107  0.00  0.00    +0.000 HD
ENDBRANCH  17  25
ENDBRANCH  16  22
ENDBRANCH   1  16
TORSDOF 5
ENDMDL
MODEL 4
REMARK VINA RESULT:    -7.142      2.468      3.102
REMARK INTER + INTRA:         -10.046
REMARK INTER:                  -9.219
REMARK INTRA:                  -0.826
REMARK UNBOUND:                -0.816
REMARK  Name = 
REMARK  5 active torsions:
REMARK  status: ('A' for Active; 'I' for Inactive)
REMARK    1  A    between atoms: C_2  and  C_4
REMARK    2  A    between atoms: C_9  and  O_10
REMARK    3  A    between atoms: O_10  and  C_11
REMARK    4  A    between atoms: C_11  and  C_12
REMARK    5  A    between atoms: C_17  and  C_18
REMARK                            x       y       z     vdW  Elec       q    Type
REMARK                         _______ _______ _______ _____ _____    ______ ____
ROOT
ATOM      1  C   UNL     1      46.514   6.831  12.571  0.00  0.00    +0.000 C 
ENDROOT
BRANCH   1   2
ATOM      2  C   UNL     1      45.430   6.109  11.813  0.00  0.00    +0.000 A 
ATOM      3  C   UNL     1      44.090   6.224  12.194  0.00  0.00    +0.000 A 
ATOM      4  C   UNL     1      43.107   5.551  11.478  0.00  0.00    +0.000 A 
ATOM      5  F   UNL     1      41.823   5.683  11.839  0.00  0.00    +0.000 F 
ATOM      6  C   UNL     1      43.430   4.744  10.391  0.00  0.00    +0.000 A 
ATOM      7  C   UNL     1      44.766   4.595  10.000  0.00  0.00    +0.000 A 
ATOM      8  C   UNL     1      45.757   5.290  10.720  0.00  0.00    +0.000 A 
BRANCH   7   9
ATOM      9  C   UNL     1      45.130   3.717   8.816  0.00  0.00    +0.000 C 
ATOM     10  C   UNL     1      45.597   2.322   9.273  0.00  0.00    +0.000 C 
ATOM     11  C   UNL     1      46.014   1.459   8.085  0.00  0.00    +0.000 C 
ATOM     12  C   UNL     1      47.017   2.201   7.210  0.00  0.00    +0.000 C 
ATOM     13  C   UNL     1      46.498   3.583   6.820  0.00  0.00    +0.000 C 
ATOM     14  N   UNL     1      46.163   4.375   8.001  0.00  0.00    +0.000 NA
ATOM     15  H   UNL     1      45.814   5.288   7.710  0.00  0.00    +0.000 HD
ENDBRANCH   7   9
ENDBRANCH   1   2
BRANCH   1  16
ATOM     16  O   UNL     1      47.516   5.883  12.943  0.00  0.00    +0.000 OA
BRANCH  16  22
ATOM     17  C   UNL     1      48.738   6.398  16.419  0.00  0.00    +0.000 A 
ATOM     18  C   UNL     1      48.174   5.271  17.021  0.00  0.00    +0.000 A 
ATOM     19  C   UNL     1      47.420   4.402  16.243  0.00  0.00    +0.000 A 
ATOM     20  F   UNL     1      46.868   3.325  16.818  0.00  0.00    +0.000 F 
ATOM     21  C   UNL     1      47.219   4.631  14.886  0.00  0.00    +0.000 A 
ATOM     22  C   UNL     1      47.779   5.756  14.279  0.00  0.00    +0.000 A 
ATOM     23  C   UNL     1      48.535   6.642  15.051  0.00  0.00    +0.000 A 
BRANCH  17  25
ATOM     24  N   UNL     1      50.838   7.112  17.425  0.00  0.00    +0.000 N 
ATOM     25  C   UNL     1      49.521   7.388  17.197  0.00  0.00    +0.000 C 
ATOM     26  O   UNL     1      49.015   8.431  17.594  0.00  0.00    +0.000 OA
ATOM     27  H   UNL     1      51.378   7.839  17.881  0.00  0.00    +0.000 HD
ATOM     28  H   UNL     1      51.346   6.395  16.927  0.00  0.00    +0.000 HD
ENDBRANCH  17  25
ENDBRANCH  16  22
ENDBRANCH   1  16
TORSDOF 5
ENDMDL
MODEL 5
REMARK VINA RESULT:    -7.104      2.777      3.871
REMARK INTER + INTRA:          -9.996
REMARK INTER:                  -9.152
REMARK INTRA:                  -0.845
REMARK UNBOUND:                -0.816
REMARK  Name = 
REMARK  5 active torsions:
REMARK  status: ('A' for Active; 'I' for Inactive)
REMARK    1  A    between atoms: C_2  and  C_4
REMARK    2  A    between atoms: C_9  and  O_10
REMARK    3  A    between atoms: O_10  and  C_11
REMARK    4  A    between atoms: C_11  and  C_12
REMARK    5  A    between atoms: C_17  and  C_18
REMARK                            x       y       z     vdW  Elec       q    Type
REMARK                         _______ _______ _______ _____ _____    ______ ____
ROOT
ATOM      1  C   UNL     1      46.426   6.116  13.249  0.00  0.00    +0.000 C 
ENDROOT
BRANCH   1   2
ATOM      2  C   UNL     1      45.350   5.666  12.295  0.00  0.00    +0.000 A 
ATOM      3  C   UNL     1      44.002   5.919  12.564  0.00  0.00    +0.000 A 
ATOM      4  C   UNL     1      43.027   5.496  11.669  0.00  0.00    +0.000 A 
ATOM      5  F   UNL     1      41.738   5.761  11.925  0.00  0.00    +0.000 F 
ATOM      6  C   UNL     1      43.363   4.806  10.507  0.00  0.00    +0.000 A 
ATOM      7  C   UNL     1      44.704   4.521  10.224  0.00  0.00    +0.000 A 
ATOM      8  C   UNL     1      45.689   4.964  11.127  0.00  0.00    +0.000 A 
BRANCH   7   9
ATOM      9  C   UNL     1      45.082   3.768   8.961  0.00  0.00    +0.000 C 
ATOM     10  C   UNL     1      45.578   2.346   9.282  0.00  0.00    +0.000 C 
ATOM     11  C   UNL     1      46.009   1.609   8.017  0.00  0.00    +0.000 C 
ATOM     12  C   UNL     1      46.995   2.451   7.215  0.00  0.00    +0.000 C 
ATOM     13  C   UNL     1      46.447   3.853   6.960  0.00  0.00    +0.000 C 
ATOM     14  N   UNL     1      46.099   4.521   8.212  0.00  0.00    +0.000 NA
ATOM     15  H   UNL     1      45.731   5.451   8.010  0.00  0.00    +0.000 HD
ENDBRANCH   7   9
ENDBRANCH   1   2
BRANCH   1  16
ATOM     16  O   UNL     1      47.557   6.544  12.489  0.00  0.00    +0.000 OA
BRANCH  16  22
ATOM     17  C   UNL     1      46.718  10.096  11.765  0.00  0.00    +0.000 A 
ATOM     18  C   UNL     1      47.997  10.568  11.464  0.00  0.00    +0.000 A 
ATOM     19  C   UNL     1      49.068   9.685  11.516  0.00  0.00    +0.000 A 
ATOM     20  F   UNL     1      50.299  10.136  11.238  0.00  0.00    +0.000 F 
ATOM     21  C   UNL     1      48.890   8.349  11.859  0.00  0.00    +0.000 A 
ATOM     22  C   UNL     1      47.614   7.871  12.163  0.00  0.00    +0.000 A 
ATOM     23  C   UNL     1      46.530   8.750  12.119  0.00  0.00    +0.000 A 
BRANCH  17  25
ATOM     24  N   UNL     1      45.690  12.239  12.299  0.00  0.00    +0.000 N 
ATOM     25  C   UNL     1      45.536  10.992  11.767  0.00  0.00    +0.000 C 
ATOM     26  O   UNL     1      44.468  10.638  11.280  0.00  0.00    +0.000 OA
ATOM     27  H   UNL     1      44.898  12.866  12.212  0.00  0.00    +0.000 HD
ATOM     28  H   UNL     1      46.592  12.650  12.492  0.00  0.00    +0.000 HD
ENDBRANCH  17  25
ENDBRANCH  16  22
ENDBRANCH   1  16
TORSDOF 5
ENDMDL
MODEL 6
REMARK VINA RESULT:    -6.999      2.012      7.834
REMARK INTER + INTRA:          -9.861
REMARK INTER:                  -8.977
REMARK INTRA:                  -0.884
REMARK UNBOUND:                -0.816
REMARK  Name = 
REMARK  5 active torsions:
REMARK  status: ('A' for Active; 'I' for Inactive)
REMARK    1  A    between atoms: C_2  and  C_4
REMARK    2  A    between atoms: C_9  and  O_10
REMARK    3  A    between atoms: O_10  and  C_11
REMARK    4  A    between atoms: C_11  and  C_12
REMARK    5  A    between atoms: C_17  and  C_18
REMARK                            x       y       z     vdW  Elec       q    Type
REMARK                         _______ _______ _______ _____ _____    ______ ____
ROOT
ATOM      1  C   UNL     1      45.177   6.693  12.454  0.00  0.00    +0.000 C 
ENDROOT
BRANCH   1   2
ATOM      2  C   UNL     1      46.639   6.922  12.734  0.00  0.00    +0.000 A 
ATOM      3  C   UNL     1      47.500   7.370  11.728  0.00  0.00    +0.000 A 
ATOM      4  C   UNL     1      48.846   7.576  12.010  0.00  0.00    +0.000 A 
ATOM      5  F   UNL     1      49.659   8.025  11.044  0.00  0.00    +0.000 F 
ATOM      6  C   UNL     1      49.364   7.330  13.278  0.00  0.00    +0.000 A 
ATOM      7  C   UNL     1      48.528   6.862  14.298  0.00  0.00    +0.000 A 
ATOM      8  C   UNL     1      47.163   6.667  14.012  0.00  0.00    +0.000 A 
BRANCH   7   9
ATOM      9  C   UNL     1      49.082   6.588  15.685  0.00  0.00    +0.000 C 
ATOM     10  C   UNL     1      50.588   6.900  15.761  0.00  0.00    +0.000 C 
ATOM     11  C   UNL     1      51.155   6.573  17.140  0.00  0.00    +0.000 C 
ATOM     12  C   UNL     1      50.788   5.151  17.547  0.00  0.00    +0.000 C 
ATOM     13  C   UNL     1      49.286   4.908  17.420  0.00  0.00    +0.000 C 
ATOM     14  N   UNL     1      48.816   5.193  16.067  0.00  0.00    +0.000 NA
ATOM     15  H   UNL     1      47.811   5.028  16.014  0.00  0.00    +0.000 HD
ENDBRANCH   7   9
ENDBRANCH   1   2
BRANCH   1  16
ATOM     16  O   UNL     1      44.995   6.590  11.041  0.00  0.00    +0.000 OA
BRANCH  16  22
ATOM     17  C   UNL     1      45.337   3.542   8.934  0.00  0.00    +0.000 A 
ATOM     18  C   UNL     1      44.517   2.678   9.663  0.00  0.00    +0.000 A 
ATOM     19  C   UNL     1      43.896   3.150  10.811  0.00  0.00    +0.000 A 
ATOM     20  F   UNL     1      43.117   2.321  11.519  0.00  0.00    +0.000 F 
ATOM     21  C   UNL     1      44.072   4.460  11.245  0.00  0.00    +0.000 A 
ATOM     22  C   UNL     1      44.891   5.329  10.523  0.00  0.00    +0.000 A 
ATOM     23  C   UNL     1      45.527   4.864   9.369  0.00  0.00    +0.000 A 
BRANCH  17  25
ATOM     24  N   UNL     1      46.536   1.814   7.706  0.00  0.00    +0.000 N 
ATOM     25  C   UNL     1      46.061   3.094   7.721  0.00  0.00    +0.000 C 
ATOM     26  O   UNL     1      46.202   3.833   6.754  0.00  0.00    +0.000 OA
ATOM     27  H   UNL     1      46.949   1.498   6.836  0.00  0.00    +0.000 HD
ATOM     28  H   UNL     1      46.243   1.109   8.368  0.00  0.00    +0.000 HD
ENDBRANCH  17  25
ENDBRANCH  16  22
ENDBRANCH   1  16
TORSDOF 5
ENDMDL
MODEL 7
REMARK VINA RESULT:    -6.987      2.975      4.891
REMARK INTER + INTRA:          -9.846
REMARK INTER:                  -8.996
REMARK INTRA:                  -0.850
REMARK UNBOUND:                -0.816
REMARK  Name = 
REMARK  5 active torsions:
REMARK  status: ('A' for Active; 'I' for Inactive)
REMARK    1  A    between atoms: C_2  and  C_4
REMARK    2  A    between atoms: C_9  and  O_10
REMARK    3  A    between atoms: O_10  and  C_11
REMARK    4  A    between atoms: C_11  and  C_12
REMARK    5  A    between atoms: C_17  and  C_18
REMARK                            x       y       z     vdW  Elec       q    Type
REMARK                         _______ _______ _______ _____ _____    ______ ____
ROOT
ATOM      1  C   UNL     1      48.099   6.748  14.062  0.00  0.00    +0.000 C 
ENDROOT
BRANCH   1   2
ATOM      2  C   UNL     1      46.924   7.054  13.169  0.00  0.00    +0.000 A 
ATOM      3  C   UNL     1      46.358   8.332  13.143  0.00  0.00    +0.000 A 
ATOM      4  C   UNL     1      45.277   8.592  12.309  0.00  0.00    +0.000 A 
ATOM      5  F   UNL     1      44.753   9.825  12.275  0.00  0.00    +0.000 F 
ATOM      6  C   UNL     1      44.728   7.597  11.505  0.00  0.00    +0.000 A 
ATOM      7  C   UNL     1      45.264   6.304  11.528  0.00  0.00    +0.000 A 
ATOM      8  C   UNL     1      46.368   6.049  12.363  0.00  0.00    +0.000 A 
BRANCH   7   9
ATOM      9  C   UNL     1      44.673   5.209  10.656  0.00  0.00    +0.000 C 
ATOM     10  C   UNL     1      44.687   3.848  11.376  0.00  0.00    +0.000 C 
ATOM     11  C   UNL     1      44.142   2.740  10.478  0.00  0.00    +0.000 C 
ATOM     12  C   UNL     1      44.854   2.744   9.130  0.00  0.00    +0.000 C 
ATOM     13  C   UNL     1      44.823   4.130   8.491  0.00  0.00    +0.000 C 
ATOM     14  N   UNL     1      45.401   5.136   9.380  0.00  0.00    +0.000 NA
ATOM     15  H   UNL     1      45.361   6.050   8.930  0.00  0.00    +0.000 HD
ENDBRANCH   7   9
ENDBRANCH   1   2
BRANCH   1  16
ATOM     16  O   UNL     1      48.046   5.367  14.424  0.00  0.00    +0.000 OA
BRANCH  16  22
ATOM     17  C   UNL     1      48.663   5.444  18.093  0.00  0.00    +0.000 A 
ATOM     18  C   UNL     1      48.008   4.264  18.452  0.00  0.00    +0.000 A 
ATOM     19  C   UNL     1      47.397   3.507  17.460  0.00  0.00    +0.000 A 
ATOM     20  F   UNL     1      46.758   2.380  17.801  0.00  0.00    +0.000 F 
ATOM     21  C   UNL     1      47.428   3.899  16.126  0.00  0.00    +0.000 A 
ATOM     22  C   UNL     1      48.080   5.078  15.761  0.00  0.00    +0.000 A 
ATOM     23  C   UNL     1      48.693   5.851  16.749  0.00  0.00    +0.000 A 
BRANCH  17  25
ATOM     24  N   UNL     1      49.199   7.669  18.926  0.00  0.00    +0.000 N 
ATOM     25  C   UNL     1      49.302   6.319  19.104  0.00  0.00    +0.000 C 
ATOM     26  O   UNL     1      49.876   5.852  20.081  0.00  0.00    +0.000 OA
ATOM     27  H   UNL     1      49.565   8.250  19.672  0.00  0.00    +0.000 HD
ATOM     28  H   UNL     1      48.548   8.092  18.280  0.00  0.00    +0.000 HD
ENDBRANCH  17  25
ENDBRANCH  16  22
ENDBRANCH   1  16
TORSDOF 5
ENDMDL
MODEL 8
REMARK VINA RESULT:    -6.848      2.510      7.073
REMARK INTER + INTRA:          -9.666
REMARK INTER:                  -8.770
REMARK INTRA:                  -0.895
REMARK UNBOUND:                -0.816
REMARK  Name = 
REMARK  5 active torsions:
REMARK  status: ('A' for Active; 'I' for Inactive)
REMARK    1  A    between atoms: C_2  and  C_4
REMARK    2  A    between atoms: C_9  and  O_10
REMARK    3  A    between atoms: O_10  and  C_11
REMARK    4  A    between atoms: C_11  and  C_12
REMARK    5  A    between atoms: C_17  and  C_18
REMARK                            x       y       z     vdW  Elec       q    Type
REMARK                         _______ _______ _______ _____ _____    ______ ____
ROOT
ATOM      1  C   UNL     1      44.717   6.434  11.695  0.00  0.00    +0.000 C 
ENDROOT
BRANCH   1   2
ATOM      2  C   UNL     1      45.957   6.287  12.539  0.00  0.00    +0.000 A 
ATOM      3  C   UNL     1      46.034   5.309  13.535  0.00  0.00    +0.000 A 
ATOM      4  C   UNL     1      47.189   5.192  14.300  0.00  0.00    +0.000 A 
ATOM      5  F   UNL     1      47.262   4.238  15.239  0.00  0.00    +0.000 F 
ATOM      6  C   UNL     1      48.273   6.042  14.108  0.00  0.00    +0.000 A 
ATOM      7  C   UNL     1      48.214   7.043  13.131  0.00  0.00    +0.000 A 
ATOM      8  C   UNL     1      47.048   7.150  12.349  0.00  0.00    +0.000 A 
BRANCH   7   9
ATOM      9  C   UNL     1      49.390   7.979  12.912  0.00  0.00    +0.000 C 
ATOM     10  C   UNL     1      49.842   7.980  11.440  0.00  0.00    +0.000 C 
ATOM     11  C   UNL     1      51.058   8.879  11.234  0.00  0.00    +0.000 C 
ATOM     12  C   UNL     1      52.159   8.528  12.227  0.00  0.00    +0.000 C 
ATOM     13  C   UNL     1      51.631   8.519  13.660  0.00  0.00    +0.000 C 
ATOM     14  N   UNL     1      50.501   7.605  13.802  0.00  0.00    +0.000 NA
ATOM     15  H   UNL     1      50.167   7.625  14.765  0.00  0.00    +0.000 HD
ENDBRANCH   7   9
ENDBRANCH   1   2
BRANCH   1  16
ATOM     16  O   UNL     1      45.077   6.252  10.325  0.00  0.00    +0.000 OA
BRANCH  16  22
ATOM     17  C   UNL     1      45.736   3.153   8.373  0.00  0.00    +0.000 A 
ATOM     18  C   UNL     1      44.922   2.268   9.083  0.00  0.00    +0.000 A 
ATOM     19  C   UNL     1      44.200   2.744  10.169  0.00  0.00    +0.000 A 
ATOM     20  F   UNL     1      43.426   1.896  10.860  0.00  0.00    +0.000 F 
ATOM     21  C   UNL     1      44.270   4.078  10.558  0.00  0.00    +0.000 A 
ATOM     22  C   UNL     1      45.082   4.968   9.854  0.00  0.00    +0.000 A 
ATOM     23  C   UNL     1      45.819   4.500   8.763  0.00  0.00    +0.000 A 
BRANCH  17  25
ATOM     24  N   UNL     1      46.847   3.621   6.256  0.00  0.00    +0.000 N 
ATOM     25  C   UNL     1      46.564   2.705   7.228  0.00  0.00    +0.000 C 
ATOM     26  O   UNL     1      47.006   1.563   7.169  0.00  0.00    +0.000 OA
ATOM     27  H   UNL     1      47.485   3.322   5.528  0.00  0.00    +0.000 HD
ATOM     28  H   UNL     1      46.707   4.614   6.376  0.00  0.00    +0.000 HD
ENDBRANCH  17  25
ENDBRANCH  16  22
ENDBRANCH   1  16
TORSDOF 5
ENDMDL
MODEL 9
REMARK VINA RESULT:    -6.827      2.417      7.804
REMARK INTER + INTRA:          -9.639
REMARK INTER:                  -8.761
REMARK INTRA:                  -0.878
REMARK UNBOUND:                -0.816
REMARK  Name = 
REMARK  5 active torsions:
REMARK  status: ('A' for Active; 'I' for Inactive)
REMARK    1  A    between atoms: C_2  and  C_4
REMARK    2  A    between atoms: C_9  and  O_10
REMARK    3  A    between atoms: O_10  and  C_11
REMARK    4  A    between atoms: C_11  and  C_12
REMARK    5  A    between atoms: C_17  and  C_18
REMARK                            x       y       z     vdW  Elec       q    Type
REMARK                         _______ _______ _______ _____ _____    ______ ____
ROOT
ATOM      1  C   UNL     1      47.613   7.094  11.719  0.00  0.00    +0.000 C 
ENDROOT
BRANCH   1   2
ATOM      2  C   UNL     1      48.459   7.151  12.965  0.00  0.00    +0.000 A 
ATOM      3  C   UNL     1      49.605   7.950  13.018  0.00  0.00    +0.000 A 
ATOM      4  C   UNL     1      50.369   7.988  14.179  0.00  0.00    +0.000 A 
ATOM      5  F   UNL     1      51.454   8.772  14.227  0.00  0.00    +0.000 F 
ATOM      6  C   UNL     1      50.026   7.230  15.294  0.00  0.00    +0.000 A 
ATOM      7  C   UNL     1      48.895   6.406  15.261  0.00  0.00    +0.000 A 
ATOM      8  C   UNL     1      48.116   6.381  14.088  0.00  0.00    +0.000 A 
BRANCH   7   9
ATOM      9  C   UNL     1      48.511   5.573  16.472  0.00  0.00    +0.000 C 
ATOM     10  C   UNL     1      49.743   5.224  17.327  0.00  0.00    +0.000 C 
ATOM     11  C   UNL     1      49.363   4.342  18.514  0.00  0.00    +0.000 C 
ATOM     12  C   UNL     1      48.561   3.133  18.047  0.00  0.00    +0.000 C 
ATOM     13  C   UNL     1      47.375   3.554  17.183  0.00  0.00    +0.000 C 
ATOM     14  N   UNL     1      47.810   4.354  16.041  0.00  0.00    +0.000 NA
ATOM     15  H   UNL     1      46.997   4.625  15.487  0.00  0.00    +0.000 HD
ENDBRANCH   7   9
ENDBRANCH   1   2
BRANCH   1  16
ATOM     16  O   UNL     1      46.246   7.277  12.090  0.00  0.00    +0.000 OA
BRANCH  16  22
ATOM     17  C   UNL     1      44.499   4.379  10.541  0.00  0.00    +0.000 A 
ATOM     18  C   UNL     1      43.510   4.177  11.505  0.00  0.00    +0.000 A 
ATOM     19  C   UNL     1      43.475   5.009  12.616  0.00  0.00    +0.000 A 
ATOM     20  F   UNL     1      42.534   4.812  13.549  0.00  0.00    +0.000 F 
ATOM     21  C   UNL     1      44.399   6.035  12.783  0.00  0.00    +0.000 A 
ATOM     22  C   UNL     1      45.391   6.243  11.823  0.00  0.00    +0.000 A 
ATOM     23  C   UNL     1      45.441   5.409  10.704  0.00  0.00    +0.000 A 
BRANCH  17  25
ATOM     24  N   UNL     1      44.772   2.164   9.564  0.00  0.00    +0.000 N 
ATOM     25  C   UNL     1      44.620   3.504   9.350  0.00  0.00    +0.000 C 
ATOM     26  O   UNL     1      44.553   3.960   8.215  0.00  0.00    +0.000 OA
ATOM     27  H   UNL     1      44.764   1.574   8.741  0.00  0.00    +0.000 HD
ATOM     28  H   UNL     1      44.598   1.725  10.457  0.00  0.00    +0.000 HD
ENDBRANCH  17  25
ENDBRANCH  16  22
ENDBRANCH   1  16
TORSDOF 5
ENDMDL
