MODEL 1
REMARK VINA RESULT:    -7.972      0.000      0.000
REMARK INTER + INTRA:         -14.149
REMARK INTER:                 -12.399
REMARK INTRA:                  -1.750
REMARK UNBOUND:                -1.750
REMARK  Name = 
REMARK  10 active torsions:
REMARK  status: ('A' for Active; 'I' for Inactive)
REMARK    1  A    between atoms: C_2  and  C_23
REMARK    2  A    between atoms: N_3  and  C_4
REMARK    3  A    between atoms: C_4  and  C_5
REMARK    4  A    between atoms: C_8  and  C_9
REMARK    5  A    between atoms: C_9  and  N_10
REMARK    6  A    between atoms: N_10  and  C_11
REMARK    7  A    between atoms: N_10  and  C_14
REMARK    8  A    between atoms: C_11  and  C_12
REMARK    9  A    between atoms: C_12  and  O_13
REMARK   10  A    between atoms: C_14  and  C_15
REMARK                            x       y       z     vdW  Elec       q    Type
REMARK                         _______ _______ _______ _____ _____    ______ ____
ROOT
ATOM      1  C   UNL     1      46.672   7.759  12.708  0.00  0.00    +0.000 A 
ATOM      2  C   UNL     1      47.167   6.736  11.891  0.00  0.00    +0.000 A 
ATOM      3  C   UNL     1      46.306   6.012  11.070  0.00  0.00    +0.000 A 
ATOM      4  C   UNL     1      44.935   6.299  11.057  0.00  0.00    +0.000 A 
ATOM      5  C   UNL     1      44.462   7.407  11.774  0.00  0.00    +0.000 A 
ATOM      6  C   UNL     1      45.328   8.137  12.589  0.00  0.00    +0.000 A 
ENDROOT
BRANCH   1   7
ATOM      7  C   UNL     1      47.573   8.421  13.714  0.00  0.00    +0.000 C 
BRANCH   7  10
ATOM      8  O   UNL     1      50.032   7.160  14.235  0.00  0.00    +0.000 OA
ATOM      9  C   UNL     1      49.105   7.020  15.029  0.00  0.00    +0.000 C 
ATOM     10  N   UNL     1      47.860   7.556  14.817  0.00  0.00    +0.000 N 
ATOM     11  H   UNL     1      47.190   7.568  15.577  0.00  0.00    +0.000 HD
BRANCH   9  12
ATOM     12  C   UNL     1      49.253   6.215  16.245  0.00  0.00    +0.000 A 
ATOM     13  C   UNL     1      50.172   6.594  17.213  0.00  0.00    +0.000 A 
ATOM     14  S   UNL     1      50.219   5.543  18.554  0.00  0.00    +0.000 S 
ATOM     15  C   UNL     1      48.978   4.575  17.908  0.00  0.00    +0.000 A 
ATOM     16  N   UNL     1      48.503   3.500  18.594  0.00  0.00    +0.000 NA
ATOM     17  C   UNL     1      47.533   2.879  18.009  0.00  0.00    +0.000 A 
ATOM     18  N   UNL     1      47.008   3.221  16.792  0.00  0.00    +0.000 N 
ATOM     19  C   UNL     1      47.515   4.244  16.025  0.00  0.00    +0.000 A 
ATOM     20  O   UNL     1      47.124   4.425  14.875  0.00  0.00    +0.000 OA
ATOM     21  C   UNL     1      48.561   5.020  16.667  0.00  0.00    +0.000 A 
ATOM     22  H   UNL     1      46.275   2.673  16.372  0.00  0.00    +0.000 HD
ENDBRANCH   9  12
ENDBRANCH   7  10
ENDBRANCH   1   7
BRANCH   4  23
ATOM     23  C   UNL     1      43.970   5.379  10.338  0.00  0.00    +0.000 C 
BRANCH  23  24
ATOM     24  N   UNL     1      44.510   4.003  10.144  0.00  0.00    +0.000 NA
BRANCH  24  25
ATOM     25  C   UNL     1      43.806   3.037  11.025  0.00  0.00    +0.000 C 
BRANCH  25  26
ATOM     26  C   UNL     1      44.165   3.127  12.521  0.00  0.00    +0.000 C 
BRANCH  26  27
ATOM     27  O   UNL     1      45.542   2.819  12.726  0.00  0.00    +0.000 OA
ATOM     28  H   UNL     1      45.772   3.113  13.625  0.00  0.00    +0.000 HD
ENDBRANCH  26  27
ENDBRANCH  25  26
ENDBRANCH  24  25
BRANCH  24  29
ATOM     29  C   UNL     1      44.362   3.612   8.720  0.00  0.00    +0.000 C 
BRANCH  29  30
ATOM     30  C   UNL     1      45.538   2.851   8.151  0.00  0.00    +0.000 A 
ATOM     31  C   UNL     1      46.462   3.469   7.316  0.00  0.00    +0.000 A 
ATOM     32  C   UNL     1      47.500   2.708   6.798  0.00  0.00    +0.000 A 
ATOM     33  C   UNL     1      47.560   1.373   7.143  0.00  0.00    +0.000 A 
ATOM     34  N   UNL     1      46.661   0.792   7.962  0.00  0.00    +0.000 NA
ATOM     35  N   UNL     1      45.640   1.538   8.468  0.00  0.00    +0.000 NA
ENDBRANCH  29  30
ENDBRANCH  24  29
ENDBRANCH  23  24
ENDBRANCH   4  23
TORSDOF 10
ENDMDL
MODEL 2
REMARK VINA RESULT:    -7.390      1.436      1.600
REMARK INTER + INTRA:         -13.243
REMARK INTER:                 -11.759
REMARK INTRA:                  -1.484
REMARK UNBOUND:                -1.750
REMARK  Name = 
REMARK  10 active torsions:
REMARK  status: ('A' for Active; 'I' for Inactive)
REMARK    1  A    between atoms: C_2  and  C_23
REMARK    2  A    between atoms: N_3  and  C_4
REMARK    3  A    between atoms: C_4  and  C_5
REMARK    4  A    between atoms: C_8  and  C_9
REMARK    5  A    between atoms: C_9  and  N_10
REMARK    6  A    between atoms: N_10  and  C_11
REMARK    7  A    between atoms: N_10  and  C_14
REMARK    8  A    between atoms: C_11  and  C_12
REMARK    9  A    between atoms: C_12  and  O_13
REMARK   10  A    between atoms: C_14  and  C_15
REMARK                            x       y       z     vdW  Elec       q    Type
REMARK                         _______ _______ _______ _____ _____    ______ ____
ROOT
ATOM      1  C   UNL     1      47.747   7.876  12.878  0.00  0.00    +0.000 A 
ATOM      2  C   UNL     1      47.830   6.848  11.931  0.00  0.00    +0.000 A 
ATOM      3  C   UNL     1      46.682   6.382  11.296  0.00  0.00    +0.000 A 
ATOM      4  C   UNL     1      45.431   6.934  11.602  0.00  0.00    +0.000 A 
ATOM      5  C   UNL     1      45.366   8.048  12.449  0.00  0.00    +0.000 A 
ATOM      6  C   UNL     1      46.519   8.520  13.078  0.00  0.00    +0.000 A 
ENDROOT
BRANCH   1   7
ATOM      7  C   UNL     1      48.959   8.258  13.682  0.00  0.00    +0.000 C 
BRANCH   7  10
ATOM      8  O   UNL     1      48.272   8.771  16.360  0.00  0.00    +0.000 OA
ATOM      9  C   UNL     1      48.749   7.680  16.061  0.00  0.00    +0.000 C 
ATOM     10  N   UNL     1      49.160   7.374  14.789  0.00  0.00    +0.000 N 
ATOM     11  H   UNL     1      49.375   6.411  14.556  0.00  0.00    +0.000 HD
BRANCH   9  12
ATOM     12  C   UNL     1      48.963   6.636  17.068  0.00  0.00    +0.000 A 
ATOM     13  C   UNL     1      49.744   6.906  18.183  0.00  0.00    +0.000 A 
ATOM     14  S   UNL     1      49.893   5.580  19.244  0.00  0.00    +0.000 S 
ATOM     15  C   UNL     1      48.881   4.618  18.273  0.00  0.00    +0.000 A 
ATOM     16  N   UNL     1      48.561   3.348  18.643  0.00  0.00    +0.000 NA
ATOM     17  C   UNL     1      47.751   2.745  17.837  0.00  0.00    +0.000 A 
ATOM     18  N   UNL     1      47.246   3.287  16.687  0.00  0.00    +0.000 N 
ATOM     19  C   UNL     1      47.611   4.532  16.229  0.00  0.00    +0.000 A 
ATOM     20  O   UNL     1      47.263   4.925  15.119  0.00  0.00    +0.000 OA
ATOM     21  C   UNL     1      48.467   5.281  17.132  0.00  0.00    +0.000 A 
ATOM     22  H   UNL     1      46.647   2.751  16.081  0.00  0.00    +0.000 HD
ENDBRANCH   9  12
ENDBRANCH   7  10
ENDBRANCH   1   7
BRANCH   4  23
ATOM     23  C   UNL     1      44.164   6.288  11.081  0.00  0.00    +0.000 C 
BRANCH  23  24
ATOM     24  N   UNL     1      44.317   4.828  10.822  0.00  0.00    +0.000 NA
BRANCH  24  25
ATOM     25  C   UNL     1      43.443   4.042  11.728  0.00  0.00    +0.000 C 
BRANCH  25  26
ATOM     26  C   UNL     1      43.543   4.408  13.222  0.00  0.00    +0.000 C 
BRANCH  26  27
ATOM     27  O   UNL     1      42.529   5.346  13.577  0.00  0.00    +0.000 OA
ATOM     28  H   UNL     1      41.834   5.291  12.898  0.00  0.00    +0.000 HD
ENDBRANCH  26  27
ENDBRANCH  25  26
ENDBRANCH  24  25
BRANCH  24  29
ATOM     29  C   UNL     1      43.986   4.542   9.403  0.00  0.00    +0.000 C 
BRANCH  29  30
ATOM     30  C   UNL     1      45.060   3.794   8.645  0.00  0.00    +0.000 A 
ATOM     31  C   UNL     1      45.205   2.417   8.770  0.00  0.00    +0.000 A 
ATOM     32  C   UNL     1      46.231   1.794   8.075  0.00  0.00    +0.000 A 
ATOM     33  C   UNL     1      47.054   2.578   7.292  0.00  0.00    +0.000 A 
ATOM     34  N   UNL     1      46.892   3.911   7.174  0.00  0.00    +0.000 NA
ATOM     35  N   UNL     1      45.887   4.524   7.859  0.00  0.00    +0.000 NA
ENDBRANCH  29  30
ENDBRANCH  24  29
ENDBRANCH  23  24
ENDBRANCH   4  23
TORSDOF 10
ENDMDL
MODEL 3
REMARK VINA RESULT:    -7.075      1.517      1.867
REMARK INTER + INTRA:         -12.754
REMARK INTER:                 -11.111
REMARK INTRA:                  -1.643
REMARK UNBOUND:                -1.750
REMARK  Name = 
REMARK  10 active torsions:
REMARK  status: ('A' for Active; 'I' for Inactive)
REMARK    1  A    between atoms: C_2  and  C_23
REMARK    2  A    between atoms: N_3  and  C_4
REMARK    3  A    between atoms: C_4  and  C_5
REMARK    4  A    between atoms: C_8  and  C_9
REMARK    5  A    between atoms: C_9  and  N_10
REMARK    6  A    between atoms: N_10  and  C_11
REMARK    7  A    between atoms: N_10  and  C_14
REMARK    8  A    between atoms: C_11  and  C_12
REMARK    9  A    between atoms: C_12  and  O_13
REMARK   10  A    between atoms: C_14  and  C_15
REMARK                            x       y       z     vdW  Elec       q    Type
REMARK                         _______ _______ _______ _____ _____    ______ ____
ROOT
ATOM      1  C   UNL     1      47.756   7.787  13.365  0.00  0.00    +0.000 A 
ATOM      2  C   UNL     1      46.554   8.497  13.270  0.00  0.00    +0.000 A 
ATOM      3  C   UNL     1      45.490   7.984  12.530  0.00  0.00    +0.000 A 
ATOM      4  C   UNL     1      45.617   6.755  11.870  0.00  0.00    +0.000 A 
ATOM      5  C   UNL     1      46.770   5.987  12.074  0.00  0.00    +0.000 A 
ATOM      6  C   UNL     1      47.831   6.497  12.823  0.00  0.00    +0.000 A 
ENDROOT
BRANCH   1   7
ATOM      7  C   UNL     1      48.954   8.419  14.020  0.00  0.00    +0.000 C 
BRANCH   7  10
ATOM      8  O   UNL     1      47.977   9.312  16.501  0.00  0.00    +0.000 OA
ATOM      9  C   UNL     1      48.671   8.300  16.458  0.00  0.00    +0.000 C 
ATOM     10  N   UNL     1      49.230   7.833  15.296  0.00  0.00    +0.000 N 
ATOM     11  H   UNL     1      49.638   6.906  15.280  0.00  0.00    +0.000 HD
BRANCH   9  12
ATOM     12  C   UNL     1      48.998   7.543  17.670  0.00  0.00    +0.000 A 
ATOM     13  C   UNL     1      49.482   8.210  18.787  0.00  0.00    +0.000 A 
ATOM     14  S   UNL     1      49.817   7.178  20.102  0.00  0.00    +0.000 S 
ATOM     15  C   UNL     1      49.281   5.813  19.238  0.00  0.00    +0.000 A 
ATOM     16  N   UNL     1      49.268   4.582  19.818  0.00  0.00    +0.000 NA
ATOM     17  C   UNL     1      48.798   3.643  19.065  0.00  0.00    +0.000 A 
ATOM     18  N   UNL     1      48.357   3.817  17.781  0.00  0.00    +0.000 N 
ATOM     19  C   UNL     1      48.434   5.025  17.126  0.00  0.00    +0.000 A 
ATOM     20  O   UNL     1      48.177   5.113  15.929  0.00  0.00    +0.000 OA
ATOM     21  C   UNL     1      48.892   6.131  17.950  0.00  0.00    +0.000 A 
ATOM     22  H   UNL     1      48.036   3.036  17.233  0.00  0.00    +0.000 HD
ENDBRANCH   9  12
ENDBRANCH   7  10
ENDBRANCH   1   7
BRANCH   4  23
ATOM     23  C   UNL     1      44.551   6.301  10.894  0.00  0.00    +0.000 C 
BRANCH  23  24
ATOM     24  N   UNL     1      44.403   4.819  10.839  0.00  0.00    +0.000 NA
BRANCH  24  25
ATOM     25  C   UNL     1      43.370   4.361  11.801  0.00  0.00    +0.000 C 
BRANCH  25  26
ATOM     26  C   UNL     1      43.596   2.957  12.393  0.00  0.00    +0.000 C 
BRANCH  26  27
ATOM     27  O   UNL     1      42.937   1.968  11.606  0.00  0.00    +0.000 OA
ATOM     28  H   UNL     1      43.249   2.073  10.691  0.00  0.00    +0.000 HD
ENDBRANCH  26  27
ENDBRANCH  25  26
ENDBRANCH  24  25
BRANCH  24  29
ATOM     29  C   UNL     1      44.046   4.411   9.457  0.00  0.00    +0.000 C 
BRANCH  29  30
ATOM     30  C   UNL     1      45.039   3.479   8.798  0.00  0.00    +0.000 A 
ATOM     31  C   UNL     1      45.936   3.940   7.842  0.00  0.00    +0.000 A 
ATOM     32  C   UNL     1      46.798   3.029   7.249  0.00  0.00    +0.000 A 
ATOM     33  C   UNL     1      46.720   1.710   7.646  0.00  0.00    +0.000 A 
ATOM     34  N   UNL     1      45.851   1.282   8.583  0.00  0.00    +0.000 NA
ATOM     35  N   UNL     1      45.002   2.175   9.162  0.00  0.00    +0.000 NA
ENDBRANCH  29  30
ENDBRANCH  24  29
ENDBRANCH  23  24
ENDBRANCH   4  23
TORSDOF 10
ENDMDL
MODEL 4
REMARK VINA RESULT:    -7.047      2.415      2.941
REMARK INTER + INTRA:         -12.710
REMARK INTER:                 -11.817
REMARK INTRA:                  -0.893
REMARK UNBOUND:                -1.750
REMARK  Name = 
REMARK  10 active torsions:
REMARK  status: ('A' for Active; 'I' for Inactive)
REMARK    1  A    between atoms: C_2  and  C_23
REMARK    2  A    between atoms: N_3  and  C_4
REMARK    3  A    between atoms: C_4  and  C_5
REMARK    4  A    between atoms: C_8  and  C_9
REMARK    5  A    between atoms: C_9  and  N_10
REMARK    6  A    between atoms: N_10  and  C_11
REMARK    7  A    between atoms: N_10  and  C_14
REMARK    8  A    between atoms: C_11  and  C_12
REMARK    9  A    between atoms: C_12  and  O_13
REMARK   10  A    between atoms: C_14  and  C_15
REMARK                            x       y       z     vdW  Elec       q    Type
REMARK                         _______ _______ _______ _____ _____    ______ ____
ROOT
ATOM      1  C   UNL     1      47.656   6.788  13.811  0.00  0.00    +0.000 A 
ATOM      2  C   UNL     1      46.905   7.823  13.241  0.00  0.00    +0.000 A 
ATOM      3  C   UNL     1      45.931   7.542  12.287  0.00  0.00    +0.000 A 
ATOM      4  C   UNL     1      45.697   6.221  11.883  0.00  0.00    +0.000 A 
ATOM      5  C   UNL     1      46.355   5.178  12.548  0.00  0.00    +0.000 A 
ATOM      6  C   UNL     1      47.324   5.460  13.511  0.00  0.00    +0.000 A 
ENDROOT
BRANCH   1   7
ATOM      7  C   UNL     1      48.817   7.108  14.712  0.00  0.00    +0.000 C 
BRANCH   7  10
ATOM      8  O   UNL     1      50.540   5.757  16.476  0.00  0.00    +0.000 OA
ATOM      9  C   UNL     1      49.455   6.159  16.887  0.00  0.00    +0.000 C 
ATOM     10  N   UNL     1      48.537   6.776  16.075  0.00  0.00    +0.000 N 
ATOM     11  H   UNL     1      47.743   7.247  16.494  0.00  0.00    +0.000 HD
BRANCH   9  12
ATOM     12  C   UNL     1      49.039   5.955  18.277  0.00  0.00    +0.000 A 
ATOM     13  C   UNL     1      49.280   4.736  18.896  0.00  0.00    +0.000 A 
ATOM     14  S   UNL     1      48.726   4.670  20.506  0.00  0.00    +0.000 S 
ATOM     15  C   UNL     1      48.189   6.283  20.446  0.00  0.00    +0.000 A 
ATOM     16  N   UNL     1      47.634   6.875  21.539  0.00  0.00    +0.000 NA
ATOM     17  C   UNL     1      47.309   8.114  21.368  0.00  0.00    +0.000 A 
ATOM     18  N   UNL     1      47.471   8.810  20.200  0.00  0.00    +0.000 N 
ATOM     19  C   UNL     1      47.945   8.228  19.047  0.00  0.00    +0.000 A 
ATOM     20  O   UNL     1      47.931   8.836  17.980  0.00  0.00    +0.000 OA
ATOM     21  C   UNL     1      48.389   6.854  19.202  0.00  0.00    +0.000 A 
ATOM     22  H   UNL     1      47.163   9.765  20.120  0.00  0.00    +0.000 HD
ENDBRANCH   9  12
ENDBRANCH   7  10
ENDBRANCH   1   7
BRANCH   4  23
ATOM     23  C   UNL     1      44.800   5.933  10.697  0.00  0.00    +0.000 C 
BRANCH  23  24
ATOM     24  N   UNL     1      44.463   4.488  10.556  0.00  0.00    +0.000 NA
BRANCH  24  25
ATOM     25  C   UNL     1      43.273   4.147  11.376  0.00  0.00    +0.000 C 
BRANCH  25  26
ATOM     26  C   UNL     1      42.477   5.350  11.916  0.00  0.00    +0.000 C 
BRANCH  26  27
ATOM     27  O   UNL     1      42.547   5.400  13.339  0.00  0.00    +0.000 OA
ATOM     28  H   UNL     1      41.780   4.910  13.683  0.00  0.00    +0.000 HD
ENDBRANCH  26  27
ENDBRANCH  25  26
ENDBRANCH  24  25
BRANCH  24  29
ATOM     29  C   UNL     1      44.216   4.177   9.126  0.00  0.00    +0.000 C 
BRANCH  29  30
ATOM     30  C   UNL     1      45.235   3.252   8.498  0.00  0.00    +0.000 A 
ATOM     31  C   UNL     1      46.079   3.689   7.484  0.00  0.00    +0.000 A 
ATOM     32  C   UNL     1      46.967   2.782   6.925  0.00  0.00    +0.000 A 
ATOM     33  C   UNL     1      46.967   1.490   7.410  0.00  0.00    +0.000 A 
ATOM     34  N   UNL     1      46.149   1.086   8.402  0.00  0.00    +0.000 NA
ATOM     35  N   UNL     1      45.273   1.975   8.949  0.00  0.00    +0.000 NA
ENDBRANCH  29  30
ENDBRANCH  24  29
ENDBRANCH  23  24
ENDBRANCH   4  23
TORSDOF 10
ENDMDL
MODEL 5
REMARK VINA RESULT:    -6.306      3.142      8.196
REMARK INTER + INTRA:         -11.558
REMARK INTER:                 -10.031
REMARK INTRA:                  -1.527
REMARK UNBOUND:                -1.750
REMARK  Name = 
REMARK  10 active torsions:
REMARK  status: ('A' for Active; 'I' for Inactive)
REMARK    1  A    between atoms: C_2  and  C_23
REMARK    2  A    between atoms: N_3  and  C_4
REMARK    3  A    between atoms: C_4  and  C_5
REMARK    4  A    between atoms: C_8  and  C_9
REMARK    5  A    between atoms: C_9  and  N_10
REMARK    6  A    between atoms: N_10  and  C_11
REMARK    7  A    between atoms: N_10  and  C_14
REMARK    8  A    between atoms: C_11  and  C_12
REMARK    9  A    between atoms: C_12  and  O_13
REMARK   10  A    between atoms: C_14  and  C_15
REMARK                            x       y       z     vdW  Elec       q    Type
REMARK                         _______ _______ _______ _____ _____    ______ ____
ROOT
ATOM      1  C   UNL     1      49.035   7.435  13.604  0.00  0.00    +0.000 A 
ATOM      2  C   UNL     1      50.327   7.862  13.934  0.00  0.00    +0.000 A 
ATOM      3  C   UNL     1      50.846   7.619  15.203  0.00  0.00    +0.000 A 
ATOM      4  C   UNL     1      50.078   6.949  16.164  0.00  0.00    +0.000 A 
ATOM      5  C   UNL     1      48.840   6.408  15.792  0.00  0.00    +0.000 A 
ATOM      6  C   UNL     1      48.325   6.644  14.517  0.00  0.00    +0.000 A 
ENDROOT
BRANCH   1   7
ATOM      7  C   UNL     1      48.418   7.846  12.296  0.00  0.00    +0.000 C 
BRANCH   7  10
ATOM      8  O   UNL     1      45.635   7.862  11.894  0.00  0.00    +0.000 OA
ATOM      9  C   UNL     1      46.291   6.896  11.512  0.00  0.00    +0.000 C 
ATOM     10  N   UNL     1      47.642   6.789  11.721  0.00  0.00    +0.000 N 
ATOM     11  H   UNL     1      48.164   6.070  11.234  0.00  0.00    +0.000 HD
BRANCH   9  12
ATOM     12  C   UNL     1      45.658   5.754  10.846  0.00  0.00    +0.000 A 
ATOM     13  C   UNL     1      45.853   5.556   9.486  0.00  0.00    +0.000 A 
ATOM     14  S   UNL     1      45.040   4.189   8.875  0.00  0.00    +0.000 S 
ATOM     15  C   UNL     1      44.438   3.790  10.416  0.00  0.00    +0.000 A 
ATOM     16  N   UNL     1      43.678   2.677  10.601  0.00  0.00    +0.000 NA
ATOM     17  C   UNL     1      43.324   2.469  11.826  0.00  0.00    +0.000 A 
ATOM     18  N   UNL     1      43.644   3.282  12.880  0.00  0.00    +0.000 N 
ATOM     19  C   UNL     1      44.334   4.462  12.726  0.00  0.00    +0.000 A 
ATOM     20  O   UNL     1      44.470   5.243  13.664  0.00  0.00    +0.000 OA
ATOM     21  C   UNL     1      44.816   4.709  11.378  0.00  0.00    +0.000 A 
ATOM     22  H   UNL     1      43.305   3.085  13.808  0.00  0.00    +0.000 HD
ENDBRANCH   9  12
ENDBRANCH   7  10
ENDBRANCH   1   7
BRANCH   4  23
ATOM     23  C   UNL     1      50.549   6.876  17.602  0.00  0.00    +0.000 C 
BRANCH  23  24
ATOM     24  N   UNL     1      51.466   5.729  17.859  0.00  0.00    +0.000 NA
BRANCH  24  25
ATOM     25  C   UNL     1      52.691   6.187  18.561  0.00  0.00    +0.000 C 
BRANCH  25  26
ATOM     26  C   UNL     1      52.863   7.715  18.661  0.00  0.00    +0.000 C 
BRANCH  26  27
ATOM     27  O   UNL     1      53.790   8.181  17.683  0.00  0.00    +0.000 OA
ATOM     28  H   UNL     1      53.271   8.567  16.955  0.00  0.00    +0.000 HD
ENDBRANCH  26  27
ENDBRANCH  25  26
ENDBRANCH  24  25
BRANCH  24  29
ATOM     29  C   UNL     1      50.758   4.703  18.663  0.00  0.00    +0.000 C 
BRANCH  29  30
ATOM     30  C   UNL     1      49.869   3.777  17.862  0.00  0.00    +0.000 A 
ATOM     31  C   UNL     1      48.494   3.747  18.060  0.00  0.00    +0.000 A 
ATOM     32  C   UNL     1      47.738   2.851  17.318  0.00  0.00    +0.000 A 
ATOM     33  C   UNL     1      48.395   2.038  16.418  0.00  0.00    +0.000 A 
ATOM     34  N   UNL     1      49.729   2.087  16.231  0.00  0.00    +0.000 NA
ATOM     35  N   UNL     1      50.472   2.964  16.962  0.00  0.00    +0.000 NA
ENDBRANCH  29  30
ENDBRANCH  24  29
ENDBRANCH  23  24
ENDBRANCH   4  23
TORSDOF 10
ENDMDL
MODEL 6
REMARK VINA RESULT:    -6.299      4.195      5.615
REMARK INTER + INTRA:         -11.547
REMARK INTER:                 -10.307
REMARK INTRA:                  -1.239
REMARK UNBOUND:                -1.750
REMARK  Name = 
REMARK  10 active torsions:
REMARK  status: ('A' for Active; 'I' for Inactive)
REMARK    1  A    between atoms: C_2  and  C_23
REMARK    2  A    between atoms: N_3  and  C_4
REMARK    3  A    between atoms: C_4  and  C_5
REMARK    4  A    between atoms: C_8  and  C_9
REMARK    5  A    between atoms: C_9  and  N_10
REMARK    6  A    between atoms: N_10  and  C_11
REMARK    7  A    between atoms: N_10  and  C_14
REMARK    8  A    between atoms: C_11  and  C_12
REMARK    9  A    between atoms: C_12  and  O_13
REMARK   10  A    between atoms: C_14  and  C_15
REMARK                            x       y       z     vdW  Elec       q    Type
REMARK                         _______ _______ _______ _____ _____    ______ ____
ROOT
ATOM      1  C   UNL     1      46.395   9.683  11.947  0.00  0.00    +0.000 A 
ATOM      2  C   UNL     1      45.095   9.819  11.444  0.00  0.00    +0.000 A 
ATOM      3  C   UNL     1      44.258   8.710  11.349  0.00  0.00    +0.000 A 
ATOM      4  C   UNL     1      44.711   7.446  11.750  0.00  0.00    +0.000 A 
ATOM      5  C   UNL     1      45.961   7.336  12.374  0.00  0.00    +0.000 A 
ATOM      6  C   UNL     1      46.795   8.449  12.478  0.00  0.00    +0.000 A 
ENDROOT
BRANCH   1   7
ATOM      7  C   UNL     1      47.349  10.844  11.891  0.00  0.00    +0.000 C 
BRANCH   7  10
ATOM      8  O   UNL     1      49.842  12.126  12.110  0.00  0.00    +0.000 OA
ATOM      9  C   UNL     1      49.725  11.166  11.353  0.00  0.00    +0.000 C 
ATOM     10  N   UNL     1      48.530  10.524  11.149  0.00  0.00    +0.000 N 
ATOM     11  H   UNL     1      48.522   9.635  10.662  0.00  0.00    +0.000 HD
BRANCH   9  12
ATOM     12  C   UNL     1      50.856  10.669  10.565  0.00  0.00    +0.000 A 
ATOM     13  C   UNL     1      51.526  11.529   9.705  0.00  0.00    +0.000 A 
ATOM     14  S   UNL     1      52.808  10.786   8.863  0.00  0.00    +0.000 S 
ATOM     15  C   UNL     1      52.541   9.303   9.654  0.00  0.00    +0.000 A 
ATOM     16  N   UNL     1      53.340   8.229   9.411  0.00  0.00    +0.000 NA
ATOM     17  C   UNL     1      53.052   7.181  10.110  0.00  0.00    +0.000 A 
ATOM     18  N   UNL     1      52.029   7.101  11.015  0.00  0.00    +0.000 N 
ATOM     19  C   UNL     1      51.143   8.133  11.228  0.00  0.00    +0.000 A 
ATOM     20  O   UNL     1      50.147   7.976  11.929  0.00  0.00    +0.000 OA
ATOM     21  C   UNL     1      51.462   9.359  10.518  0.00  0.00    +0.000 A 
ATOM     22  H   UNL     1      51.833   6.242  11.502  0.00  0.00    +0.000 HD
ENDBRANCH   9  12
ENDBRANCH   7  10
ENDBRANCH   1   7
BRANCH   4  23
ATOM     23  C   UNL     1      43.890   6.210  11.447  0.00  0.00    +0.000 C 
BRANCH  23  24
ATOM     24  N   UNL     1      44.724   5.030  11.079  0.00  0.00    +0.000 NA
BRANCH  24  25
ATOM     25  C   UNL     1      44.842   4.096  12.226  0.00  0.00    +0.000 C 
BRANCH  25  26
ATOM     26  C   UNL     1      43.518   3.471  12.707  0.00  0.00    +0.000 C 
BRANCH  26  27
ATOM     27  O   UNL     1      43.513   2.064  12.471  0.00  0.00    +0.000 OA
ATOM     28  H   UNL     1      43.929   1.916  11.604  0.00  0.00    +0.000 HD
ENDBRANCH  26  27
ENDBRANCH  25  26
ENDBRANCH  24  25
BRANCH  24  29
ATOM     29  C   UNL     1      44.119   4.345   9.910  0.00  0.00    +0.000 C 
BRANCH  29  30
ATOM     30  C   UNL     1      45.119   3.794   8.917  0.00  0.00    +0.000 A 
ATOM     31  C   UNL     1      45.341   2.427   8.799  0.00  0.00    +0.000 A 
ATOM     32  C   UNL     1      46.296   1.987   7.894  0.00  0.00    +0.000 A 
ATOM     33  C   UNL     1      46.974   2.934   7.155  0.00  0.00    +0.000 A 
ATOM     34  N   UNL     1      46.739   4.256   7.275  0.00  0.00    +0.000 NA
ATOM     35  N   UNL     1      45.804   4.689   8.165  0.00  0.00    +0.000 NA
ENDBRANCH  29  30
ENDBRANCH  24  29
ENDBRANCH  23  24
ENDBRANCH   4  23
TORSDOF 10
ENDMDL
MODEL 7
REMARK VINA RESULT:    -6.242      3.379      8.181
REMARK INTER + INTRA:         -11.459
REMARK INTER:                  -9.288
REMARK INTRA:                  -2.171
REMARK UNBOUND:                -1.750
REMARK  Name = 
REMARK  10 active torsions:
REMARK  status: ('A' for Active; 'I' for Inactive)
REMARK    1  A    between atoms: C_2  and  C_23
REMARK    2  A    between atoms: N_3  and  C_4
REMARK    3  A    between atoms: C_4  and  C_5
REMARK    4  A    between atoms: C_8  and  C_9
REMARK    5  A    between atoms: C_9  and  N_10
REMARK    6  A    between atoms: N_10  and  C_11
REMARK    7  A    between atoms: N_10  and  C_14
REMARK    8  A    between atoms: C_11  and  C_12
REMARK    9  A    between atoms: C_12  and  O_13
REMARK   10  A    between atoms: C_14  and  C_15
REMARK                            x       y       z     vdW  Elec       q    Type
REMARK                         _______ _______ _______ _____ _____    ______ ____
ROOT
ATOM      1  C   UNL     1      48.837   8.467  15.834  0.00  0.00    +0.000 A 
ATOM      2  C   UNL     1      48.220   8.979  16.982  0.00  0.00    +0.000 A 
ATOM      3  C   UNL     1      48.620   8.550  18.245  0.00  0.00    +0.000 A 
ATOM      4  C   UNL     1      49.640   7.599  18.379  0.00  0.00    +0.000 A 
ATOM      5  C   UNL     1      50.344   7.188  17.239  0.00  0.00    +0.000 A 
ATOM      6  C   UNL     1      49.948   7.625  15.974  0.00  0.00    +0.000 A 
ENDROOT
BRANCH   1   7
ATOM      7  C   UNL     1      48.291   8.803  14.473  0.00  0.00    +0.000 C 
BRANCH   7  10
ATOM      8  O   UNL     1      48.795   6.762  12.607  0.00  0.00    +0.000 OA
ATOM      9  C   UNL     1      47.693   6.824  13.145  0.00  0.00    +0.000 C 
ATOM     10  N   UNL     1      47.352   7.821  14.023  0.00  0.00    +0.000 N 
ATOM     11  H   UNL     1      46.506   7.729  14.574  0.00  0.00    +0.000 HD
BRANCH   9  12
ATOM     12  C   UNL     1      46.636   5.855  12.841  0.00  0.00    +0.000 A 
ATOM     13  C   UNL     1      46.815   4.518  13.166  0.00  0.00    +0.000 A 
ATOM     14  S   UNL     1      45.493   3.531  12.737  0.00  0.00    +0.000 S 
ATOM     15  C   UNL     1      44.618   4.866  12.146  0.00  0.00    +0.000 A 
ATOM     16  N   UNL     1      43.358   4.712  11.656  0.00  0.00    +0.000 NA
ATOM     17  C   UNL     1      42.793   5.812  11.281  0.00  0.00    +0.000 A 
ATOM     18  N   UNL     1      43.379   7.048  11.333  0.00  0.00    +0.000 N 
ATOM     19  C   UNL     1      44.681   7.238  11.737  0.00  0.00    +0.000 A 
ATOM     20  O   UNL     1      45.224   8.333  11.625  0.00  0.00    +0.000 OA
ATOM     21  C   UNL     1      45.339   6.043  12.235  0.00  0.00    +0.000 A 
ATOM     22  H   UNL     1      42.898   7.864  10.990  0.00  0.00    +0.000 HD
ENDBRANCH   9  12
ENDBRANCH   7  10
ENDBRANCH   1   7
BRANCH   4  23
ATOM     23  C   UNL     1      49.926   6.972  19.728  0.00  0.00    +0.000 C 
BRANCH  23  24
ATOM     24  N   UNL     1      50.345   5.545  19.632  0.00  0.00    +0.000 NA
BRANCH  24  25
ATOM     25  C   UNL     1      51.316   5.212  20.704  0.00  0.00    +0.000 C 
BRANCH  25  26
ATOM     26  C   UNL     1      52.592   4.485  20.236  0.00  0.00    +0.000 C 
BRANCH  26  27
ATOM     27  O   UNL     1      52.272   3.471  19.286  0.00  0.00    +0.000 OA
ATOM     28  H   UNL     1      52.836   2.703  19.484  0.00  0.00    +0.000 HD
ENDBRANCH  26  27
ENDBRANCH  25  26
ENDBRANCH  24  25
BRANCH  24  29
ATOM     29  C   UNL     1      49.147   4.673  19.725  0.00  0.00    +0.000 C 
BRANCH  29  30
ATOM     30  C   UNL     1      48.725   4.041  18.417  0.00  0.00    +0.000 A 
ATOM     31  C   UNL     1      47.528   4.388  17.801  0.00  0.00    +0.000 A 
ATOM     32  C   UNL     1      47.180   3.747  16.621  0.00  0.00    +0.000 A 
ATOM     33  C   UNL     1      48.047   2.798  16.119  0.00  0.00    +0.000 A 
ATOM     34  N   UNL     1      49.209   2.481  16.724  0.00  0.00    +0.000 NA
ATOM     35  N   UNL     1      49.549   3.107  17.885  0.00  0.00    +0.000 NA
ENDBRANCH  29  30
ENDBRANCH  24  29
ENDBRANCH  23  24
ENDBRANCH   4  23
TORSDOF 10
ENDMDL
MODEL 8
REMARK VINA RESULT:    -5.935      4.850     10.081
REMARK INTER + INTRA:         -10.981
REMARK INTER:                 -10.120
REMARK INTRA:                  -0.860
REMARK UNBOUND:                -1.750
REMARK  Name = 
REMARK  10 active torsions:
REMARK  status: ('A' for Active; 'I' for Inactive)
REMARK    1  A    between atoms: C_2  and  C_23
REMARK    2  A    between atoms: N_3  and  C_4
REMARK    3  A    between atoms: C_4  and  C_5
REMARK    4  A    between atoms: C_8  and  C_9
REMARK    5  A    between atoms: C_9  and  N_10
REMARK    6  A    between atoms: N_10  and  C_11
REMARK    7  A    between atoms: N_10  and  C_14
REMARK    8  A    between atoms: C_11  and  C_12
REMARK    9  A    between atoms: C_12  and  O_13
REMARK   10  A    between atoms: C_14  and  C_15
REMARK                            x       y       z     vdW  Elec       q    Type
REMARK                         _______ _______ _______ _____ _____    ______ ____
ROOT
ATOM      1  C   UNL     1      46.883   2.533   7.239  0.00  0.00    +0.000 A 
ATOM      2  C   UNL     1      46.206   1.564   7.989  0.00  0.00    +0.000 A 
ATOM      3  C   UNL     1      45.269   1.945   8.948  0.00  0.00    +0.000 A 
ATOM      4  C   UNL     1      45.001   3.301   9.174  0.00  0.00    +0.000 A 
ATOM      5  C   UNL     1      45.581   4.261   8.334  0.00  0.00    +0.000 A 
ATOM      6  C   UNL     1      46.512   3.878   7.368  0.00  0.00    +0.000 A 
ENDROOT
BRANCH   1   7
ATOM      7  C   UNL     1      48.010   2.127   6.330  0.00  0.00    +0.000 C 
BRANCH   7  10
ATOM      8  O   UNL     1      46.461   1.784   4.009  0.00  0.00    +0.000 OA
ATOM      9  C   UNL     1      47.014   0.810   4.511  0.00  0.00    +0.000 C 
ATOM     10  N   UNL     1      47.739   0.885   5.672  0.00  0.00    +0.000 N 
ATOM     11  H   UNL     1      48.321   0.102   5.945  0.00  0.00    +0.000 HD
BRANCH   9  12
ATOM     12  C   UNL     1      46.890  -0.528   3.924  0.00  0.00    +0.000 A 
ATOM     13  C   UNL     1      46.858  -0.674   2.544  0.00  0.00    +0.000 A 
ATOM     14  S   UNL     1      46.702  -2.293   2.036  0.00  0.00    +0.000 S 
ATOM     15  C   UNL     1      46.720  -2.857   3.641  0.00  0.00    +0.000 A 
ATOM     16  N   UNL     1      46.657  -4.189   3.913  0.00  0.00    +0.000 NA
ATOM     17  C   UNL     1      46.723  -4.480   5.170  0.00  0.00    +0.000 A 
ATOM     18  N   UNL     1      46.825  -3.563   6.181  0.00  0.00    +0.000 N 
ATOM     19  C   UNL     1      46.803  -2.206   5.957  0.00  0.00    +0.000 A 
ATOM     20  O   UNL     1      46.741  -1.412   6.893  0.00  0.00    +0.000 OA
ATOM     21  C   UNL     1      46.800  -1.823   4.556  0.00  0.00    +0.000 A 
ATOM     22  H   UNL     1      46.835  -3.853   7.145  0.00  0.00    +0.000 HD
ENDBRANCH   9  12
ENDBRANCH   7  10
ENDBRANCH   1   7
BRANCH   4  23
ATOM     23  C   UNL     1      44.153   3.723  10.356  0.00  0.00    +0.000 C 
BRANCH  23  24
ATOM     24  N   UNL     1      44.663   4.951  11.032  0.00  0.00    +0.000 NA
BRANCH  24  25
ATOM     25  C   UNL     1      43.543   5.861  11.376  0.00  0.00    +0.000 C 
BRANCH  25  26
ATOM     26  C   UNL     1      42.463   5.260  12.297  0.00  0.00    +0.000 C 
BRANCH  26  27
ATOM     27  O   UNL     1      42.755   5.544  13.663  0.00  0.00    +0.000 OA
ATOM     28  H   UNL     1      41.918   5.798  14.090  0.00  0.00    +0.000 HD
ENDBRANCH  26  27
ENDBRANCH  25  26
ENDBRANCH  24  25
BRANCH  24  29
ATOM     29  C   UNL     1      45.414   4.565  12.252  0.00  0.00    +0.000 C 
BRANCH  29  30
ATOM     30  C   UNL     1      46.574   5.475  12.592  0.00  0.00    +0.000 A 
ATOM     31  C   UNL     1      46.952   6.509  11.744  0.00  0.00    +0.000 A 
ATOM     32  C   UNL     1      48.046   7.286  12.095  0.00  0.00    +0.000 A 
ATOM     33  C   UNL     1      48.701   6.991  13.273  0.00  0.00    +0.000 A 
ATOM     34  N   UNL     1      48.314   5.990  14.089  0.00  0.00    +0.000 NA
ATOM     35  N   UNL     1      47.242   5.224  13.743  0.00  0.00    +0.000 NA
ENDBRANCH  29  30
ENDBRANCH  24  29
ENDBRANCH  23  24
ENDBRANCH   4  23
TORSDOF 10
ENDMDL
MODEL 9
REMARK VINA RESULT:    -5.673      3.053      8.593
REMARK INTER + INTRA:         -10.573
REMARK INTER:                  -8.935
REMARK INTRA:                  -1.638
REMARK UNBOUND:                -1.750
REMARK  Name = 
REMARK  10 active torsions:
REMARK  status: ('A' for Active; 'I' for Inactive)
REMARK    1  A    between atoms: C_2  and  C_23
REMARK    2  A    between atoms: N_3  and  C_4
REMARK    3  A    between atoms: C_4  and  C_5
REMARK    4  A    between atoms: C_8  and  C_9
REMARK    5  A    between atoms: C_9  and  N_10
REMARK    6  A    between atoms: N_10  and  C_11
REMARK    7  A    between atoms: N_10  and  C_14
REMARK    8  A    between atoms: C_11  and  C_12
REMARK    9  A    between atoms: C_12  and  O_13
REMARK   10  A    between atoms: C_14  and  C_15
REMARK                            x       y       z     vdW  Elec       q    Type
REMARK                         _______ _______ _______ _____ _____    ______ ____
ROOT
ATOM      1  C   UNL     1      48.283   7.978  13.244  0.00  0.00    +0.000 A 
ATOM      2  C   UNL     1      49.524   7.370  13.463  0.00  0.00    +0.000 A 
ATOM      3  C   UNL     1      50.216   7.590  14.652  0.00  0.00    +0.000 A 
ATOM      4  C   UNL     1      49.678   8.428  15.637  0.00  0.00    +0.000 A 
ATOM      5  C   UNL     1      48.380   8.930  15.472  0.00  0.00    +0.000 A 
ATOM      6  C   UNL     1      47.684   8.700  14.285  0.00  0.00    +0.000 A 
ENDROOT
BRANCH   1   7
ATOM      7  C   UNL     1      47.621   7.874  11.898  0.00  0.00    +0.000 C 
BRANCH   7  10
ATOM      8  O   UNL     1      44.830   7.573  12.063  0.00  0.00    +0.000 OA
ATOM      9  C   UNL     1      45.525   6.595  11.801  0.00  0.00    +0.000 C 
ATOM     10  N   UNL     1      46.895   6.649  11.758  0.00  0.00    +0.000 N 
ATOM     11  H   UNL     1      47.409   5.870  11.364  0.00  0.00    +0.000 HD
BRANCH   9  12
ATOM     12  C   UNL     1      44.933   5.275  11.567  0.00  0.00    +0.000 A 
ATOM     13  C   UNL     1      44.211   4.656  12.578  0.00  0.00    +0.000 A 
ATOM     14  S   UNL     1      43.601   3.126  12.139  0.00  0.00    +0.000 S 
ATOM     15  C   UNL     1      44.239   3.261  10.568  0.00  0.00    +0.000 A 
ATOM     16  N   UNL     1      44.037   2.281   9.646  0.00  0.00    +0.000 NA
ATOM     17  C   UNL     1      44.539   2.531   8.482  0.00  0.00    +0.000 A 
ATOM     18  N   UNL     1      45.241   3.661   8.160  0.00  0.00    +0.000 N 
ATOM     19  C   UNL     1      45.545   4.635   9.083  0.00  0.00    +0.000 A 
ATOM     20  O   UNL     1      46.307   5.557   8.802  0.00  0.00    +0.000 OA
ATOM     21  C   UNL     1      44.945   4.437  10.391  0.00  0.00    +0.000 A 
ATOM     22  H   UNL     1      45.640   3.780   7.243  0.00  0.00    +0.000 HD
ENDBRANCH   9  12
ENDBRANCH   7  10
ENDBRANCH   1   7
BRANCH   4  23
ATOM     23  C   UNL     1      50.519   8.843  16.827  0.00  0.00    +0.000 C 
BRANCH  23  24
ATOM     24  N   UNL     1      51.111   7.685  17.556  0.00  0.00    +0.000 NA
BRANCH  24  25
ATOM     25  C   UNL     1      52.293   8.113  18.345  0.00  0.00    +0.000 C 
BRANCH  25  26
ATOM     26  C   UNL     1      51.987   9.017  19.555  0.00  0.00    +0.000 C 
BRANCH  26  27
ATOM     27  O   UNL     1      53.158   9.211  20.345  0.00  0.00    +0.000 OA
ATOM     28  H   UNL     1      53.891   8.764  19.888  0.00  0.00    +0.000 HD
ENDBRANCH  26  27
ENDBRANCH  25  26
ENDBRANCH  24  25
BRANCH  24  29
ATOM     29  C   UNL     1      50.083   7.084  18.442  0.00  0.00    +0.000 C 
BRANCH  29  30
ATOM     30  C   UNL     1      49.433   5.832  17.895  0.00  0.00    +0.000 A 
ATOM     31  C   UNL     1      48.051   5.703  17.837  0.00  0.00    +0.000 A 
ATOM     32  C   UNL     1      47.515   4.517  17.357  0.00  0.00    +0.000 A 
ATOM     33  C   UNL     1      48.390   3.526  16.958  0.00  0.00    +0.000 A 
ATOM     34  N   UNL     1      49.728   3.672  17.011  0.00  0.00    +0.000 NA
ATOM     35  N   UNL     1      50.254   4.835  17.486  0.00  0.00    +0.000 NA
ENDBRANCH  29  30
ENDBRANCH  24  29
ENDBRANCH  23  24
ENDBRANCH   4  23
TORSDOF 10
ENDMDL
