MODEL 1
REMARK VINA RESULT:    -7.594      0.000      0.000
REMARK INTER + INTRA:         -10.594
REMARK INTER:                 -10.036
REMARK INTRA:                  -0.558
REMARK UNBOUND:                -0.558
REMARK  Name = 
REMARK  6 active torsions:
REMARK  status: ('A' for Active; 'I' for Inactive)
REMARK    1  A    between atoms: N_1  and  C_2
REMARK    2  A    between atoms: C_2  and  C_3
REMARK    3  A    between atoms: C_7  and  C_8
REMARK    4  A    between atoms: C_8  and  C_9
REMARK    5  A    between atoms: C_9  and  N_10
REMARK    6  A    between atoms: C_14  and  C_15
REMARK                            x       y       z     vdW  Elec       q    Type
REMARK                         _______ _______ _______ _____ _____    ______ ____
ROOT
ATOM      1  N   UNL     1      43.790   5.035  10.006  0.00  0.00    +0.000 N 
ATOM      2  C   UNL     1      44.551   4.025   9.381  0.00  0.00    +0.000 A 
ATOM      3  C   UNL     1      45.391   4.361   8.323  0.00  0.00    +0.000 A 
ATOM      4  C   UNL     1      46.157   3.365   7.706  0.00  0.00    +0.000 A 
ATOM      5  C   UNL     1      46.072   2.047   8.156  0.00  0.00    +0.000 A 
ATOM      6  C   UNL     1      45.197   1.799   9.197  0.00  0.00    +0.000 A 
ATOM      7  N   UNL     1      44.443   2.748   9.804  0.00  0.00    +0.000 NA
ATOM      8  H   UNL     1      44.425   5.765  10.315  0.00  0.00    +0.000 HD
ENDROOT
BRANCH   5   9
ATOM      9  C   UNL     1      46.904   0.997   7.521  0.00  0.00    +0.000 C 
ATOM     10  N   UNL     1      47.883   1.365   6.640  0.00  0.00    +0.000 N 
ATOM     11  O   UNL     1      46.720  -0.191   7.769  0.00  0.00    +0.000 OA
ATOM     12  H   UNL     1      48.110   2.304   6.355  0.00  0.00    +0.000 HD
ATOM     13  H   UNL     1      48.417   0.613   6.220  0.00  0.00    +0.000 HD
ENDBRANCH   5   9
BRANCH   1  14
ATOM     14  C   UNL     1      42.959   4.518  11.104  0.00  0.00    +0.000 C 
BRANCH  14  15
ATOM     15  C   UNL     1      43.118   5.364  12.374  0.00  0.00    +0.000 C 
BRANCH  15  20
ATOM     16  C   UNL     1      46.482   7.023  13.135  0.00  0.00    +0.000 A 
ATOM     17  C   UNL     1      47.229   5.922  13.574  0.00  0.00    +0.000 A 
ATOM     18  C   UNL     1      46.670   4.644  13.580  0.00  0.00    +0.000 A 
ATOM     19  C   UNL     1      45.350   4.453  13.167  0.00  0.00    +0.000 A 
ATOM     20  C   UNL     1      44.577   5.539  12.736  0.00  0.00    +0.000 A 
ATOM     21  C   UNL     1      45.158   6.817  12.712  0.00  0.00    +0.000 A 
BRANCH  16  22
ATOM     22  C   UNL     1      47.068   8.411  13.174  0.00  0.00    +0.000 C 
BRANCH  22  23
ATOM     23  N   UNL     1      47.059   8.972  14.520  0.00  0.00    +0.000 NA
ATOM     24  H   UNL     1      47.866   8.619  15.031  0.00  0.00    +0.000 HD
ATOM     25  H   UNL     1      46.234   8.631  15.010  0.00  0.00    +0.000 HD
ENDBRANCH  22  23
ENDBRANCH  16  22
ENDBRANCH  15  20
ENDBRANCH  14  15
ENDBRANCH   1  14
TORSDOF 6
ENDMDL
MODEL 2
REMARK VINA RESULT:    -7.569      1.889      2.473
REMARK INTER + INTRA:         -10.562
REMARK INTER:                  -9.991
REMARK INTRA:                  -0.571
REMARK UNBOUND:                -0.558
REMARK  Name = 
REMARK  6 active torsions:
REMARK  status: ('A' for Active; 'I' for Inactive)
REMARK    1  A    between atoms: N_1  and  C_2
REMARK    2  A    between atoms: C_2  and  C_3
REMARK    3  A    between atoms: C_7  and  C_8
REMARK    4  A    between atoms: C_8  and  C_9
REMARK    5  A    between atoms: C_9  and  N_10
REMARK    6  A    between atoms: C_14  and  C_15
REMARK                            x       y       z     vdW  Elec       q    Type
REMARK                         _______ _______ _______ _____ _____    ______ ____
ROOT
ATOM      1  N   UNL     1      43.928   3.617  10.328  0.00  0.00    +0.000 N 
ATOM      2  C   UNL     1      44.826   3.305   9.287  0.00  0.00    +0.000 A 
ATOM      3  C   UNL     1      45.278   1.995   9.146  0.00  0.00    +0.000 A 
ATOM      4  C   UNL     1      46.161   1.678   8.107  0.00  0.00    +0.000 A 
ATOM      5  C   UNL     1      46.581   2.675   7.224  0.00  0.00    +0.000 A 
ATOM      6  C   UNL     1      46.100   3.950   7.452  0.00  0.00    +0.000 A 
ATOM      7  N   UNL     1      45.248   4.279   8.454  0.00  0.00    +0.000 NA
ATOM      8  H   UNL     1      43.123   3.002  10.246  0.00  0.00    +0.000 HD
ENDROOT
BRANCH   5   9
ATOM      9  C   UNL     1      47.494   2.333   6.108  0.00  0.00    +0.000 C 
ATOM     10  N   UNL     1      48.844   2.356   6.321  0.00  0.00    +0.000 N 
ATOM     11  O   UNL     1      47.055   2.039   5.000  0.00  0.00    +0.000 OA
ATOM     12  H   UNL     1      49.311   2.595   7.182  0.00  0.00    +0.000 HD
ATOM     13  H   UNL     1      49.431   2.129   5.526  0.00  0.00    +0.000 HD
ENDBRANCH   5   9
BRANCH   1  14
ATOM     14  C   UNL     1      43.546   5.037  10.339  0.00  0.00    +0.000 C 
BRANCH  14  15
ATOM     15  C   UNL     1      43.581   5.617  11.759  0.00  0.00    +0.000 C 
BRANCH  15  20
ATOM     16  C   UNL     1      46.841   5.379  13.751  0.00  0.00    +0.000 A 
ATOM     17  C   UNL     1      47.688   6.182  12.974  0.00  0.00    +0.000 A 
ATOM     18  C   UNL     1      47.202   6.835  11.842  0.00  0.00    +0.000 A 
ATOM     19  C   UNL     1      45.868   6.678  11.459  0.00  0.00    +0.000 A 
ATOM     20  C   UNL     1      45.004   5.872  12.211  0.00  0.00    +0.000 A 
ATOM     21  C   UNL     1      45.499   5.238  13.362  0.00  0.00    +0.000 A 
BRANCH  16  22
ATOM     22  C   UNL     1      47.376   4.634  14.947  0.00  0.00    +0.000 C 
BRANCH  22  23
ATOM     23  N   UNL     1      47.484   3.201  14.696  0.00  0.00    +0.000 NA
ATOM     24  H   UNL     1      46.561   2.779  14.784  0.00  0.00    +0.000 HD
ATOM     25  H   UNL     1      48.063   2.786  15.424  0.00  0.00    +0.000 HD
ENDBRANCH  22  23
ENDBRANCH  16  22
ENDBRANCH  15  20
ENDBRANCH  14  15
ENDBRANCH   1  14
TORSDOF 6
ENDMDL
MODEL 3
REMARK VINA RESULT:    -6.697      1.554      2.035
REMARK INTER + INTRA:          -9.409
REMARK INTER:                  -8.866
REMARK INTRA:                  -0.543
REMARK UNBOUND:                -0.558
REMARK  Name = 
REMARK  6 active torsions:
REMARK  status: ('A' for Active; 'I' for Inactive)
REMARK    1  A    between atoms: N_1  and  C_2
REMARK    2  A    between atoms: C_2  and  C_3
REMARK    3  A    between atoms: C_7  and  C_8
REMARK    4  A    between atoms: C_8  and  C_9
REMARK    5  A    between atoms: C_9  and  N_10
REMARK    6  A    between atoms: C_14  and  C_15
REMARK                            x       y       z     vdW  Elec       q    Type
REMARK                         _______ _______ _______ _____ _____    ______ ____
ROOT
ATOM      1  N   UNL     1      43.687   3.760  10.638  0.00  0.00    +0.000 N 
ATOM      2  C   UNL     1      44.632   3.462   9.635  0.00  0.00    +0.000 A 
ATOM      3  C   UNL     1      44.920   2.131   9.343  0.00  0.00    +0.000 A 
ATOM      4  C   UNL     1      45.850   1.830   8.341  0.00  0.00    +0.000 A 
ATOM      5  C   UNL     1      46.480   2.863   7.645  0.00  0.00    +0.000 A 
ATOM      6  C   UNL     1      46.150   4.153   8.015  0.00  0.00    +0.000 A 
ATOM      7  N   UNL     1      45.257   4.466   8.985  0.00  0.00    +0.000 NA
ATOM      8  H   UNL     1      42.820   3.283  10.407  0.00  0.00    +0.000 HD
ENDROOT
BRANCH   5   9
ATOM      9  C   UNL     1      47.444   2.543   6.565  0.00  0.00    +0.000 C 
ATOM     10  N   UNL     1      47.265   3.095   5.328  0.00  0.00    +0.000 N 
ATOM     11  O   UNL     1      48.389   1.787   6.767  0.00  0.00    +0.000 OA
ATOM     12  H   UNL     1      46.520   3.714   5.050  0.00  0.00    +0.000 HD
ATOM     13  H   UNL     1      47.940   2.838   4.617  0.00  0.00    +0.000 HD
ENDBRANCH   5   9
BRANCH   1  14
ATOM     14  C   UNL     1      43.495   5.206  10.823  0.00  0.00    +0.000 C 
BRANCH  14  15
ATOM     15  C   UNL     1      43.947   5.659  12.217  0.00  0.00    +0.000 C 
BRANCH  15  20
ATOM     16  C   UNL     1      46.182   8.762  12.050  0.00  0.00    +0.000 A 
ATOM     17  C   UNL     1      47.452   8.182  12.167  0.00  0.00    +0.000 A 
ATOM     18  C   UNL     1      47.593   6.797  12.252  0.00  0.00    +0.000 A 
ATOM     19  C   UNL     1      46.465   5.974  12.241  0.00  0.00    +0.000 A 
ATOM     20  C   UNL     1      45.183   6.529  12.137  0.00  0.00    +0.000 A 
ATOM     21  C   UNL     1      45.055   7.923  12.029  0.00  0.00    +0.000 A 
BRANCH  16  22
ATOM     22  C   UNL     1      46.024  10.260  12.008  0.00  0.00    +0.000 C 
BRANCH  22  23
ATOM     23  N   UNL     1      47.173  10.948  12.586  0.00  0.00    +0.000 NA
ATOM     24  H   UNL     1      46.920  11.917  12.770  0.00  0.00    +0.000 HD
ATOM     25  H   UNL     1      47.921  10.971  11.895  0.00  0.00    +0.000 HD
ENDBRANCH  22  23
ENDBRANCH  16  22
ENDBRANCH  15  20
ENDBRANCH  14  15
ENDBRANCH   1  14
TORSDOF 6
ENDMDL
MODEL 4
REMARK VINA RESULT:    -6.695      2.670      7.048
REMARK INTER + INTRA:          -9.406
REMARK INTER:                  -9.122
REMARK INTRA:                  -0.283
REMARK UNBOUND:                -0.558
REMARK  Name = 
REMARK  6 active torsions:
REMARK  status: ('A' for Active; 'I' for Inactive)
REMARK    1  A    between atoms: N_1  and  C_2
REMARK    2  A    between atoms: C_2  and  C_3
REMARK    3  A    between atoms: C_7  and  C_8
REMARK    4  A    between atoms: C_8  and  C_9
REMARK    5  A    between atoms: C_9  and  N_10
REMARK    6  A    between atoms: C_14  and  C_15
REMARK                            x       y       z     vdW  Elec       q    Type
REMARK                         _______ _______ _______ _____ _____    ______ ____
ROOT
ATOM      1  N   UNL     1      43.854   4.536  11.404  0.00  0.00    +0.000 N 
ATOM      2  C   UNL     1      44.734   5.516  11.906  0.00  0.00    +0.000 A 
ATOM      3  C   UNL     1      44.314   6.842  11.969  0.00  0.00    +0.000 A 
ATOM      4  C   UNL     1      45.181   7.817  12.476  0.00  0.00    +0.000 A 
ATOM      5  C   UNL     1      46.456   7.453  12.913  0.00  0.00    +0.000 A 
ATOM      6  C   UNL     1      46.797   6.119  12.794  0.00  0.00    +0.000 A 
ATOM      7  N   UNL     1      45.975   5.161  12.302  0.00  0.00    +0.000 NA
ATOM      8  H   UNL     1      42.993   4.578  11.942  0.00  0.00    +0.000 HD
ENDROOT
BRANCH   5   9
ATOM      9  C   UNL     1      47.363   8.482  13.476  0.00  0.00    +0.000 C 
ATOM     10  N   UNL     1      47.225   8.846  14.786  0.00  0.00    +0.000 N 
ATOM     11  O   UNL     1      48.224   9.012  12.781  0.00  0.00    +0.000 OA
ATOM     12  H   UNL     1      46.547   8.487  15.440  0.00  0.00    +0.000 HD
ATOM     13  H   UNL     1      47.858   9.563  15.124  0.00  0.00    +0.000 HD
ENDBRANCH   5   9
BRANCH   1  14
ATOM     14  C   UNL     1      44.446   3.189  11.407  0.00  0.00    +0.000 C 
BRANCH  14  15
ATOM     15  C   UNL     1      44.161   2.448  10.094  0.00  0.00    +0.000 C 
BRANCH  15  20
ATOM     16  C   UNL     1      46.797   2.008   7.354  0.00  0.00    +0.000 A 
ATOM     17  C   UNL     1      47.006   3.339   6.969  0.00  0.00    +0.000 A 
ATOM     18  C   UNL     1      46.339   4.377   7.618  0.00  0.00    +0.000 A 
ATOM     19  C   UNL     1      45.438   4.097   8.648  0.00  0.00    +0.000 A 
ATOM     20  C   UNL     1      45.202   2.775   9.044  0.00  0.00    +0.000 A 
ATOM     21  C   UNL     1      45.897   1.739   8.399  0.00  0.00    +0.000 A 
BRANCH  16  22
ATOM     22  C   UNL     1      47.479   0.882   6.621  0.00  0.00    +0.000 C 
BRANCH  22  23
ATOM     23  N   UNL     1      48.260   1.360   5.486  0.00  0.00    +0.000 NA
ATOM     24  H   UNL     1      49.161   0.886   5.480  0.00  0.00    +0.000 HD
ATOM     25  H   UNL     1      48.455   2.351   5.619  0.00  0.00    +0.000 HD
ENDBRANCH  22  23
ENDBRANCH  16  22
ENDBRANCH  15  20
ENDBRANCH  14  15
ENDBRANCH   1  14
TORSDOF 6
ENDMDL
MODEL 5
REMARK VINA RESULT:    -6.311      4.875      6.585
REMARK INTER + INTRA:          -8.899
REMARK INTER:                  -8.559
REMARK INTRA:                  -0.340
REMARK UNBOUND:                -0.558
REMARK  Name = 
REMARK  6 active torsions:
REMARK  status: ('A' for Active; 'I' for Inactive)
REMARK    1  A    between atoms: N_1  and  C_2
REMARK    2  A    between atoms: C_2  and  C_3
REMARK    3  A    between atoms: C_7  and  C_8
REMARK    4  A    between atoms: C_8  and  C_9
REMARK    5  A    between atoms: C_9  and  N_10
REMARK    6  A    between atoms: C_14  and  C_15
REMARK                            x       y       z     vdW  Elec       q    Type
REMARK                         _______ _______ _______ _____ _____    ______ ____
ROOT
ATOM      1  N   UNL     1      47.400   5.043  15.222  0.00  0.00    +0.000 N 
ATOM      2  C   UNL     1      46.697   5.005  14.001  0.00  0.00    +0.000 A 
ATOM      3  C   UNL     1      46.653   6.146  13.204  0.00  0.00    +0.000 A 
ATOM      4  C   UNL     1      45.964   6.111  11.986  0.00  0.00    +0.000 A 
ATOM      5  C   UNL     1      45.329   4.936  11.582  0.00  0.00    +0.000 A 
ATOM      6  C   UNL     1      45.405   3.859  12.444  0.00  0.00    +0.000 A 
ATOM      7  N   UNL     1      46.062   3.873  13.630  0.00  0.00    +0.000 NA
ATOM      8  H   UNL     1      48.353   5.341  15.030  0.00  0.00    +0.000 HD
ENDROOT
BRANCH   5   9
ATOM      9  C   UNL     1      44.623   4.891  10.278  0.00  0.00    +0.000 C 
ATOM     10  N   UNL     1      45.340   5.061   9.127  0.00  0.00    +0.000 N 
ATOM     11  O   UNL     1      43.411   4.713  10.223  0.00  0.00    +0.000 OA
ATOM     12  H   UNL     1      46.332   5.226   9.058  0.00  0.00    +0.000 HD
ATOM     13  H   UNL     1      44.815   5.036   8.261  0.00  0.00    +0.000 HD
ENDBRANCH   5   9
BRANCH   1  14
ATOM     14  C   UNL     1      47.354   3.760  15.942  0.00  0.00    +0.000 C 
BRANCH  14  15
ATOM     15  C   UNL     1      47.729   3.932  17.420  0.00  0.00    +0.000 C 
BRANCH  15  20
ATOM     16  C   UNL     1      51.326   2.633  17.575  0.00  0.00    +0.000 A 
ATOM     17  C   UNL     1      52.032   3.826  17.781  0.00  0.00    +0.000 A 
ATOM     18  C   UNL     1      51.352   5.037  17.917  0.00  0.00    +0.000 A 
ATOM     19  C   UNL     1      49.958   5.073  17.828  0.00  0.00    +0.000 A 
ATOM     20  C   UNL     1      49.230   3.897  17.611  0.00  0.00    +0.000 A 
ATOM     21  C   UNL     1      49.924   2.681  17.499  0.00  0.00    +0.000 A 
BRANCH  16  22
ATOM     22  C   UNL     1      52.061   1.332  17.379  0.00  0.00    +0.000 C 
BRANCH  22  23
ATOM     23  N   UNL     1      51.470   0.247  18.153  0.00  0.00    +0.000 NA
ATOM     24  H   UNL     1      51.994  -0.608  17.978  0.00  0.00    +0.000 HD
ATOM     25  H   UNL     1      50.524   0.082  17.813  0.00  0.00    +0.000 HD
ENDBRANCH  22  23
ENDBRANCH  16  22
ENDBRANCH  15  20
ENDBRANCH  14  15
ENDBRANCH   1  14
TORSDOF 6
ENDMDL
MODEL 6
REMARK VINA RESULT:    -6.210      3.620      7.090
REMARK INTER + INTRA:          -8.765
REMARK INTER:                  -8.286
REMARK INTRA:                  -0.479
REMARK UNBOUND:                -0.558
REMARK  Name = 
REMARK  6 active torsions:
REMARK  status: ('A' for Active; 'I' for Inactive)
REMARK    1  A    between atoms: N_1  and  C_2
REMARK    2  A    between atoms: C_2  and  C_3
REMARK    3  A    between atoms: C_7  and  C_8
REMARK    4  A    between atoms: C_8  and  C_9
REMARK    5  A    between atoms: C_9  and  N_10
REMARK    6  A    between atoms: C_14  and  C_15
REMARK                            x       y       z     vdW  Elec       q    Type
REMARK                         _______ _______ _______ _____ _____    ______ ____
ROOT
ATOM      1  N   UNL     1      48.405   7.121  13.757  0.00  0.00    +0.000 N 
ATOM      2  C   UNL     1      48.210   6.145  14.755  0.00  0.00    +0.000 A 
ATOM      3  C   UNL     1      48.713   6.369  16.034  0.00  0.00    +0.000 A 
ATOM      4  C   UNL     1      48.513   5.408  17.033  0.00  0.00    +0.000 A 
ATOM      5  C   UNL     1      47.813   4.237  16.738  0.00  0.00    +0.000 A 
ATOM      6  C   UNL     1      47.369   4.088  15.438  0.00  0.00    +0.000 A 
ATOM      7  N   UNL     1      47.556   5.003  14.456  0.00  0.00    +0.000 NA
ATOM      8  H   UNL     1      48.037   8.004  14.100  0.00  0.00    +0.000 HD
ENDROOT
BRANCH   5   9
ATOM      9  C   UNL     1      47.578   3.232  17.803  0.00  0.00    +0.000 C 
ATOM     10  N   UNL     1      48.433   3.178  18.868  0.00  0.00    +0.000 N 
ATOM     11  O   UNL     1      46.635   2.450  17.735  0.00  0.00    +0.000 OA
ATOM     12  H   UNL     1      49.242   3.760  19.017  0.00  0.00    +0.000 HD
ATOM     13  H   UNL     1      48.242   2.467  19.564  0.00  0.00    +0.000 HD
ENDBRANCH   5   9
BRANCH   1  14
ATOM     14  C   UNL     1      47.813   6.736  12.466  0.00  0.00    +0.000 C 
BRANCH  14  15
ATOM     15  C   UNL     1      46.448   7.401  12.254  0.00  0.00    +0.000 C 
BRANCH  15  20
ATOM     16  C   UNL     1      44.455   4.759  10.330  0.00  0.00    +0.000 A 
ATOM     17  C   UNL     1      43.544   4.345  11.311  0.00  0.00    +0.000 A 
ATOM     18  C   UNL     1      43.539   4.945  12.570  0.00  0.00    +0.000 A 
ATOM     19  C   UNL     1      44.457   5.953  12.872  0.00  0.00    +0.000 A 
ATOM     20  C   UNL     1      45.386   6.377  11.913  0.00  0.00    +0.000 A 
ATOM     21  C   UNL     1      45.367   5.782  10.642  0.00  0.00    +0.000 A 
BRANCH  16  22
ATOM     22  C   UNL     1      44.496   4.079   8.986  0.00  0.00    +0.000 C 
BRANCH  22  23
ATOM     23  N   UNL     1      45.539   4.626   8.126  0.00  0.00    +0.000 NA
ATOM     24  H   UNL     1      46.435   4.547   8.602  0.00  0.00    +0.000 HD
ATOM     25  H   UNL     1      45.366   5.621   7.997  0.00  0.00    +0.000 HD
ENDBRANCH  22  23
ENDBRANCH  16  22
ENDBRANCH  15  20
ENDBRANCH  14  15
ENDBRANCH   1  14
TORSDOF 6
ENDMDL
MODEL 7
REMARK VINA RESULT:    -6.121      3.700      5.939
REMARK INTER + INTRA:          -8.648
REMARK INTER:                  -8.131
REMARK INTRA:                  -0.516
REMARK UNBOUND:                -0.558
REMARK  Name = 
REMARK  6 active torsions:
REMARK  status: ('A' for Active; 'I' for Inactive)
REMARK    1  A    between atoms: N_1  and  C_2
REMARK    2  A    between atoms: C_2  and  C_3
REMARK    3  A    between atoms: C_7  and  C_8
REMARK    4  A    between atoms: C_8  and  C_9
REMARK    5  A    between atoms: C_9  and  N_10
REMARK    6  A    between atoms: C_14  and  C_15
REMARK                            x       y       z     vdW  Elec       q    Type
REMARK                         _______ _______ _______ _____ _____    ______ ____
ROOT
ATOM      1  N   UNL     1      47.286   7.479  13.673  0.00  0.00    +0.000 N 
ATOM      2  C   UNL     1      46.402   6.470  13.241  0.00  0.00    +0.000 A 
ATOM      3  C   UNL     1      45.139   6.825  12.775  0.00  0.00    +0.000 A 
ATOM      4  C   UNL     1      44.260   5.827  12.335  0.00  0.00    +0.000 A 
ATOM      5  C   UNL     1      44.657   4.490  12.368  0.00  0.00    +0.000 A 
ATOM      6  C   UNL     1      45.918   4.227  12.867  0.00  0.00    +0.000 A 
ATOM      7  N   UNL     1      46.782   5.176  13.302  0.00  0.00    +0.000 NA
ATOM      8  H   UNL     1      47.397   8.149  12.917  0.00  0.00    +0.000 HD
ENDROOT
BRANCH   5   9
ATOM      9  C   UNL     1      43.736   3.436  11.877  0.00  0.00    +0.000 C 
ATOM     10  N   UNL     1      43.679   2.240  12.537  0.00  0.00    +0.000 N 
ATOM     11  O   UNL     1      43.036   3.622  10.886  0.00  0.00    +0.000 OA
ATOM     12  H   UNL     1      44.217   1.978  13.347  0.00  0.00    +0.000 HD
ATOM     13  H   UNL     1      43.047   1.545  12.157  0.00  0.00    +0.000 HD
ENDBRANCH   5   9
BRANCH   1  14
ATOM     14  C   UNL     1      48.577   6.941  14.133  0.00  0.00    +0.000 C 
BRANCH  14  15
ATOM     15  C   UNL     1      48.861   7.332  15.589  0.00  0.00    +0.000 C 
BRANCH  15  20
ATOM     16  C   UNL     1      48.904   3.939  17.359  0.00  0.00    +0.000 A 
ATOM     17  C   UNL     1      50.255   3.841  17.717  0.00  0.00    +0.000 A 
ATOM     18  C   UNL     1      51.139   4.882  17.434  0.00  0.00    +0.000 A 
ATOM     19  C   UNL     1      50.689   6.026  16.770  0.00  0.00    +0.000 A 
ATOM     20  C   UNL     1      49.345   6.142  16.390  0.00  0.00    +0.000 A 
ATOM     21  C   UNL     1      48.460   5.098  16.702  0.00  0.00    +0.000 A 
BRANCH  16  22
ATOM     22  C   UNL     1      47.957   2.795  17.620  0.00  0.00    +0.000 C 
BRANCH  22  23
ATOM     23  N   UNL     1      46.561   3.209  17.535  0.00  0.00    +0.000 NA
ATOM     24  H   UNL     1      46.040   2.772  18.292  0.00  0.00    +0.000 HD
ATOM     25  H   UNL     1      46.168   2.849  16.667  0.00  0.00    +0.000 HD
ENDBRANCH  22  23
ENDBRANCH  16  22
ENDBRANCH  15  20
ENDBRANCH  14  15
ENDBRANCH   1  14
TORSDOF 6
ENDMDL
MODEL 8
REMARK VINA RESULT:    -6.014      4.745      8.112
REMARK INTER + INTRA:          -8.506
REMARK INTER:                  -8.224
REMARK INTRA:                  -0.282
REMARK UNBOUND:                -0.558
REMARK  Name = 
REMARK  6 active torsions:
REMARK  status: ('A' for Active; 'I' for Inactive)
REMARK    1  A    between atoms: N_1  and  C_2
REMARK    2  A    between atoms: C_2  and  C_3
REMARK    3  A    between atoms: C_7  and  C_8
REMARK    4  A    between atoms: C_8  and  C_9
REMARK    5  A    between atoms: C_9  and  N_10
REMARK    6  A    between atoms: C_14  and  C_15
REMARK                            x       y       z     vdW  Elec       q    Type
REMARK                         _______ _______ _______ _____ _____    ______ ____
ROOT
ATOM      1  N   UNL     1      46.944   3.916  14.657  0.00  0.00    +0.000 N 
ATOM      2  C   UNL     1      47.595   4.115  15.891  0.00  0.00    +0.000 A 
ATOM      3  C   UNL     1      47.499   3.137  16.878  0.00  0.00    +0.000 A 
ATOM      4  C   UNL     1      48.152   3.325  18.102  0.00  0.00    +0.000 A 
ATOM      5  C   UNL     1      48.891   4.488  18.322  0.00  0.00    +0.000 A 
ATOM      6  C   UNL     1      48.914   5.414  17.297  0.00  0.00    +0.000 A 
ATOM      7  N   UNL     1      48.285   5.254  16.107  0.00  0.00    +0.000 NA
ATOM      8  H   UNL     1      47.262   3.032  14.270  0.00  0.00    +0.000 HD
ENDROOT
BRANCH   5   9
ATOM      9  C   UNL     1      49.605   4.674  19.608  0.00  0.00    +0.000 C 
ATOM     10  N   UNL     1      49.024   4.231  20.763  0.00  0.00    +0.000 N 
ATOM     11  O   UNL     1      50.701   5.225  19.648  0.00  0.00    +0.000 OA
ATOM     12  H   UNL     1      48.126   3.780  20.847  0.00  0.00    +0.000 HD
ATOM     13  H   UNL     1      49.541   4.392  21.620  0.00  0.00    +0.000 HD
ENDBRANCH   5   9
BRANCH   1  14
ATOM     14  C   UNL     1      47.144   5.036  13.724  0.00  0.00    +0.000 C 
BRANCH  14  15
ATOM     15  C   UNL     1      45.814   5.711  13.364  0.00  0.00    +0.000 C 
BRANCH  15  20
ATOM     16  C   UNL     1      44.567   4.022  10.164  0.00  0.00    +0.000 A 
ATOM     17  C   UNL     1      43.624   3.126  10.685  0.00  0.00    +0.000 A 
ATOM     18  C   UNL     1      43.356   3.097  12.054  0.00  0.00    +0.000 A 
ATOM     19  C   UNL     1      44.042   3.950  12.922  0.00  0.00    +0.000 A 
ATOM     20  C   UNL     1      44.997   4.847  12.428  0.00  0.00    +0.000 A 
ATOM     21  C   UNL     1      45.242   4.883  11.045  0.00  0.00    +0.000 A 
BRANCH  16  22
ATOM     22  C   UNL     1      44.893   4.021   8.693  0.00  0.00    +0.000 C 
BRANCH  22  23
ATOM     23  N   UNL     1      45.864   5.053   8.346  0.00  0.00    +0.000 NA
ATOM     24  H   UNL     1      46.649   4.999   8.992  0.00  0.00    +0.000 HD
ATOM     25  H   UNL     1      45.434   5.965   8.488  0.00  0.00    +0.000 HD
ENDBRANCH  22  23
ENDBRANCH  16  22
ENDBRANCH  15  20
ENDBRANCH  14  15
ENDBRANCH   1  14
TORSDOF 6
ENDMDL
MODEL 9
REMARK VINA RESULT:    -5.777      3.691      5.975
REMARK INTER + INTRA:          -8.192
REMARK INTER:                  -7.604
REMARK INTRA:                  -0.588
REMARK UNBOUND:                -0.558
REMARK  Name = 
REMARK  6 active torsions:
REMARK  status: ('A' for Active; 'I' for Inactive)
REMARK    1  A    between atoms: N_1  and  C_2
REMARK    2  A    between atoms: C_2  and  C_3
REMARK    3  A    between atoms: C_7  and  C_8
REMARK    4  A    between atoms: C_8  and  C_9
REMARK    5  A    between atoms: C_9  and  N_10
REMARK    6  A    between atoms: C_14  and  C_15
REMARK                            x       y       z     vdW  Elec       q    Type
REMARK                         _______ _______ _______ _____ _____    ______ ____
ROOT
ATOM      1  N   UNL     1      48.391   6.448  13.148  0.00  0.00    +0.000 N 
ATOM      2  C   UNL     1      47.085   6.089  12.756  0.00  0.00    +0.000 A 
ATOM      3  C   UNL     1      46.305   5.315  13.611  0.00  0.00    +0.000 A 
ATOM      4  C   UNL     1      45.005   4.964  13.230  0.00  0.00    +0.000 A 
ATOM      5  C   UNL     1      44.502   5.392  12.000  0.00  0.00    +0.000 A 
ATOM      6  C   UNL     1      45.352   6.137  11.206  0.00  0.00    +0.000 A 
ATOM      7  N   UNL     1      46.616   6.483  11.553  0.00  0.00    +0.000 NA
ATOM      8  H   UNL     1      48.333   6.917  14.048  0.00  0.00    +0.000 HD
ENDROOT
BRANCH   5   9
ATOM      9  C   UNL     1      43.115   5.043  11.610  0.00  0.00    +0.000 C 
ATOM     10  N   UNL     1      42.133   5.988  11.726  0.00  0.00    +0.000 N 
ATOM     11  O   UNL     1      42.839   3.922  11.196  0.00  0.00    +0.000 OA
ATOM     12  H   UNL     1      42.246   6.930  12.065  0.00  0.00    +0.000 HD
ATOM     13  H   UNL     1      41.198   5.701  11.461  0.00  0.00    +0.000 HD
ENDBRANCH   5   9
BRANCH   1  14
ATOM     14  C   UNL     1      49.080   7.266  12.138  0.00  0.00    +0.000 C 
BRANCH  14  15
ATOM     15  C   UNL     1      49.385   8.673  12.667  0.00  0.00    +0.000 C 
BRANCH  15  20
ATOM     16  C   UNL     1      46.491  10.875  11.473  0.00  0.00    +0.000 A 
ATOM     17  C   UNL     1      47.167  11.779  10.644  0.00  0.00    +0.000 A 
ATOM     18  C   UNL     1      48.540  11.654  10.432  0.00  0.00    +0.000 A 
ATOM     19  C   UNL     1      49.259  10.635  11.062  0.00  0.00    +0.000 A 
ATOM     20  C   UNL     1      48.608   9.725  11.905  0.00  0.00    +0.000 A 
ATOM     21  C   UNL     1      47.221   9.847  12.092  0.00  0.00    +0.000 A 
BRANCH  16  22
ATOM     22  C   UNL     1      45.017  11.038  11.743  0.00  0.00    +0.000 C 
BRANCH  22  23
ATOM     23  N   UNL     1      44.476   9.928  12.520  0.00  0.00    +0.000 NA
ATOM     24  H   UNL     1      45.193   9.591  13.158  0.00  0.00    +0.000 HD
ATOM     25  H   UNL     1      44.266   9.158  11.886  0.00  0.00    +0.000 HD
ENDBRANCH  22  23
ENDBRANCH  16  22
ENDBRANCH  15  20
ENDBRANCH  14  15
ENDBRANCH   1  14
TORSDOF 6
ENDMDL
