MODEL 1
REMARK VINA RESULT:    -7.741      0.000      0.000
REMARK INTER + INTRA:         -11.226
REMARK INTER:                 -10.230
REMARK INTRA:                  -0.996
REMARK UNBOUND:                -0.996
REMARK  Name = 
REMARK  6 active torsions:
REMARK  status: ('A' for Active; 'I' for Inactive)
REMARK    1  A    between atoms: O_1  and  C_2
REMARK    2  A    between atoms: C_2  and  C_3
REMARK    3  A    between atoms: C_6  and  N_7
REMARK    4  A    between atoms: N_7  and  C_8
REMARK    5  A    between atoms: C_8  and  C_9
REMARK    6  A    between atoms: C_13  and  C_14
REMARK                            x       y       z     vdW  Elec       q    Type
REMARK                         _______ _______ _______ _____ _____    ______ ____
ROOT
ATOM      1  C   UNL     1      43.998   4.667  11.329  0.00  0.00    +0.000 C 
ATOM      2  C   UNL     1      42.677   5.004  12.002  0.00  0.00    +0.000 C 
ATOM      3  C   UNL     1      43.248   5.942  10.991  0.00  0.00    +0.000 C 
ENDROOT
BRANCH   1   4
ATOM      4  C   UNL     1      45.272   4.756  12.160  0.00  0.00    +0.000 A 
ATOM      5  C   UNL     1      45.690   3.700  12.975  0.00  0.00    +0.000 A 
ATOM      6  C   UNL     1      46.894   3.786  13.651  0.00  0.00    +0.000 A 
ATOM      7  N   UNL     1      47.716   4.856  13.582  0.00  0.00    +0.000 NA
ATOM      8  C   UNL     1      47.323   5.900  12.806  0.00  0.00    +0.000 A 
ATOM      9  C   UNL     1      46.121   5.875  12.100  0.00  0.00    +0.000 A 
BRANCH   8  10
ATOM     10  C   UNL     1      48.212   7.132  12.676  0.00  0.00    +0.000 C 
ATOM     11  F   UNL     1      49.499   6.946  13.072  0.00  0.00    +0.000 F 
ATOM     12  F   UNL     1      48.281   7.587  11.388  0.00  0.00    +0.000 F 
ATOM     13  F   UNL     1      47.744   8.186  13.407  0.00  0.00    +0.000 F 
ENDBRANCH   8  10
ENDBRANCH   1   4
BRANCH   1  14
ATOM     14  N   UNL     1      43.936   3.497  10.430  0.00  0.00    +0.000 N 
ATOM     15  H   UNL     1      43.731   2.610  10.883  0.00  0.00    +0.000 HD
BRANCH  14  19
ATOM     16  C   UNL     1      46.637   2.671   7.273  0.00  0.00    +0.000 A 
ATOM     17  C   UNL     1      46.212   3.987   7.496  0.00  0.00    +0.000 A 
ATOM     18  C   UNL     1      45.311   4.283   8.527  0.00  0.00    +0.000 A 
ATOM     19  C   UNL     1      44.824   3.277   9.360  0.00  0.00    +0.000 A 
ATOM     20  C   UNL     1      45.275   1.967   9.154  0.00  0.00    +0.000 A 
ATOM     21  C   UNL     1      46.154   1.663   8.115  0.00  0.00    +0.000 A 
BRANCH  16  22
ATOM     22  C   UNL     1      47.519   2.352   6.096  0.00  0.00    +0.000 C 
BRANCH  22  23
ATOM     23  O   UNL     1      48.887   2.584   6.403  0.00  0.00    +0.000 OA
ATOM     24  H   UNL     1      49.402   1.966   5.858  0.00  0.00    +0.000 HD
ENDBRANCH  22  23
ENDBRANCH  16  22
ENDBRANCH  14  19
ENDBRANCH   1  14
TORSDOF 6
ENDMDL
MODEL 2
REMARK VINA RESULT:    -7.385      1.854      2.576
REMARK INTER + INTRA:         -10.756
REMARK INTER:                 -10.557
REMARK INTRA:                  -0.199
REMARK UNBOUND:                -0.996
REMARK  Name = 
REMARK  6 active torsions:
REMARK  status: ('A' for Active; 'I' for Inactive)
REMARK    1  A    between atoms: O_1  and  C_2
REMARK    2  A    between atoms: C_2  and  C_3
REMARK    3  A    between atoms: C_6  and  N_7
REMARK    4  A    between atoms: N_7  and  C_8
REMARK    5  A    between atoms: C_8  and  C_9
REMARK    6  A    between atoms: C_13  and  C_14
REMARK                            x       y       z     vdW  Elec       q    Type
REMARK                         _______ _______ _______ _____ _____    ______ ____
ROOT
ATOM      1  C   UNL     1      44.022   4.770  11.349  0.00  0.00    +0.000 C 
ATOM      2  C   UNL     1      43.183   3.657  11.956  0.00  0.00    +0.000 C 
ATOM      3  C   UNL     1      42.721   5.071  12.069  0.00  0.00    +0.000 C 
ENDROOT
BRANCH   1   4
ATOM      4  C   UNL     1      45.340   5.127  12.025  0.00  0.00    +0.000 A 
ATOM      5  C   UNL     1      46.175   6.127  11.518  0.00  0.00    +0.000 A 
ATOM      6  C   UNL     1      47.325   6.479  12.204  0.00  0.00    +0.000 A 
ATOM      7  N   UNL     1      47.711   5.900  13.362  0.00  0.00    +0.000 NA
ATOM      8  C   UNL     1      46.921   4.916  13.866  0.00  0.00    +0.000 A 
ATOM      9  C   UNL     1      45.751   4.515  13.222  0.00  0.00    +0.000 A 
BRANCH   8  10
ATOM     10  C   UNL     1      47.294   4.231  15.176  0.00  0.00    +0.000 C 
ATOM     11  F   UNL     1      47.657   2.927  15.050  0.00  0.00    +0.000 F 
ATOM     12  F   UNL     1      48.340   4.850  15.803  0.00  0.00    +0.000 F 
ATOM     13  F   UNL     1      46.270   4.249  16.079  0.00  0.00    +0.000 F 
ENDBRANCH   8  10
ENDBRANCH   1   4
BRANCH   1  14
ATOM     14  N   UNL     1      44.078   4.748   9.874  0.00  0.00    +0.000 N 
ATOM     15  H   UNL     1      43.177   4.799   9.403  0.00  0.00    +0.000 HD
BRANCH  14  19
ATOM     16  C   UNL     1      46.717   2.404   7.532  0.00  0.00    +0.000 A 
ATOM     17  C   UNL     1      45.869   1.780   8.456  0.00  0.00    +0.000 A 
ATOM     18  C   UNL     1      44.996   2.535   9.249  0.00  0.00    +0.000 A 
ATOM     19  C   UNL     1      44.943   3.923   9.131  0.00  0.00    +0.000 A 
ATOM     20  C   UNL     1      45.769   4.541   8.184  0.00  0.00    +0.000 A 
ATOM     21  C   UNL     1      46.658   3.796   7.408  0.00  0.00    +0.000 A 
BRANCH  16  22
ATOM     22  C   UNL     1      47.726   1.592   6.765  0.00  0.00    +0.000 C 
BRANCH  22  23
ATOM     23  O   UNL     1      48.762   2.418   6.249  0.00  0.00    +0.000 OA
ATOM     24  H   UNL     1      48.346   3.259   5.998  0.00  0.00    +0.000 HD
ENDBRANCH  22  23
ENDBRANCH  16  22
ENDBRANCH  14  19
ENDBRANCH   1  14
TORSDOF 6
ENDMDL
MODEL 3
REMARK VINA RESULT:    -6.707      1.444      2.361
REMARK INTER + INTRA:          -9.859
REMARK INTER:                  -9.603
REMARK INTRA:                  -0.256
REMARK UNBOUND:                -0.996
REMARK  Name = 
REMARK  6 active torsions:
REMARK  status: ('A' for Active; 'I' for Inactive)
REMARK    1  A    between atoms: O_1  and  C_2
REMARK    2  A    between atoms: C_2  and  C_3
REMARK    3  A    between atoms: C_6  and  N_7
REMARK    4  A    between atoms: N_7  and  C_8
REMARK    5  A    between atoms: C_8  and  C_9
REMARK    6  A    between atoms: C_13  and  C_14
REMARK                            x       y       z     vdW  Elec       q    Type
REMARK                         _______ _______ _______ _____ _____    ______ ____
ROOT
ATOM      1  C   UNL     1      44.187   4.911  11.366  0.00  0.00    +0.000 C 
ATOM      2  C   UNL     1      44.525   3.749  12.287  0.00  0.00    +0.000 C 
ATOM      3  C   UNL     1      43.237   4.481  12.468  0.00  0.00    +0.000 C 
ENDROOT
BRANCH   1   4
ATOM      4  C   UNL     1      44.969   6.209  11.528  0.00  0.00    +0.000 A 
ATOM      5  C   UNL     1      44.326   7.450  11.567  0.00  0.00    +0.000 A 
ATOM      6  C   UNL     1      45.061   8.600  11.797  0.00  0.00    +0.000 A 
ATOM      7  N   UNL     1      46.399   8.606  11.987  0.00  0.00    +0.000 NA
ATOM      8  C   UNL     1      47.045   7.412  11.940  0.00  0.00    +0.000 A 
ATOM      9  C   UNL     1      46.362   6.219  11.711  0.00  0.00    +0.000 A 
BRANCH   8  10
ATOM     10  C   UNL     1      48.553   7.350  12.159  0.00  0.00    +0.000 C 
ATOM     11  F   UNL     1      49.296   7.489  11.029  0.00  0.00    +0.000 F 
ATOM     12  F   UNL     1      48.992   8.322  13.015  0.00  0.00    +0.000 F 
ATOM     13  F   UNL     1      48.946   6.169  12.722  0.00  0.00    +0.000 F 
ENDBRANCH   8  10
ENDBRANCH   1   4
BRANCH   1  14
ATOM     14  N   UNL     1      43.940   4.517   9.964  0.00  0.00    +0.000 N 
ATOM     15  H   UNL     1      43.001   4.181   9.765  0.00  0.00    +0.000 HD
BRANCH  14  19
ATOM     16  C   UNL     1      46.749   2.540   7.485  0.00  0.00    +0.000 A 
ATOM     17  C   UNL     1      45.919   1.791   8.329  0.00  0.00    +0.000 A 
ATOM     18  C   UNL     1      44.991   2.422   9.165  0.00  0.00    +0.000 A 
ATOM     19  C   UNL     1      44.864   3.811   9.171  0.00  0.00    +0.000 A 
ATOM     20  C   UNL     1      45.672   4.555   8.303  0.00  0.00    +0.000 A 
ATOM     21  C   UNL     1      46.615   3.933   7.485  0.00  0.00    +0.000 A 
BRANCH  16  22
ATOM     22  C   UNL     1      47.816   1.856   6.672  0.00  0.00    +0.000 C 
BRANCH  22  23
ATOM     23  O   UNL     1      48.263   2.688   5.610  0.00  0.00    +0.000 OA
ATOM     24  H   UNL     1      49.176   2.942   5.824  0.00  0.00    +0.000 HD
ENDBRANCH  22  23
ENDBRANCH  16  22
ENDBRANCH  14  19
ENDBRANCH   1  14
TORSDOF 6
ENDMDL
MODEL 4
REMARK VINA RESULT:    -6.706      2.106      2.505
REMARK INTER + INTRA:          -9.857
REMARK INTER:                  -9.579
REMARK INTRA:                  -0.279
REMARK UNBOUND:                -0.996
REMARK  Name = 
REMARK  6 active torsions:
REMARK  status: ('A' for Active; 'I' for Inactive)
REMARK    1  A    between atoms: O_1  and  C_2
REMARK    2  A    between atoms: C_2  and  C_3
REMARK    3  A    between atoms: C_6  and  N_7
REMARK    4  A    between atoms: N_7  and  C_8
REMARK    5  A    between atoms: C_8  and  C_9
REMARK    6  A    between atoms: C_13  and  C_14
REMARK                            x       y       z     vdW  Elec       q    Type
REMARK                         _______ _______ _______ _____ _____    ______ ____
ROOT
ATOM      1  C   UNL     1      43.972   4.774  11.371  0.00  0.00    +0.000 C 
ATOM      2  C   UNL     1      43.984   3.559  12.286  0.00  0.00    +0.000 C 
ATOM      3  C   UNL     1      42.853   4.530  12.367  0.00  0.00    +0.000 C 
ENDROOT
BRANCH   1   4
ATOM      4  C   UNL     1      44.974   5.888  11.644  0.00  0.00    +0.000 A 
ATOM      5  C   UNL     1      46.307   5.611  11.962  0.00  0.00    +0.000 A 
ATOM      6  C   UNL     1      47.208   6.651  12.123  0.00  0.00    +0.000 A 
ATOM      7  N   UNL     1      46.875   7.954  11.996  0.00  0.00    +0.000 NA
ATOM      8  C   UNL     1      45.582   8.246  11.700  0.00  0.00    +0.000 A 
ATOM      9  C   UNL     1      44.627   7.245  11.527  0.00  0.00    +0.000 A 
BRANCH   8  10
ATOM     10  C   UNL     1      45.145   9.697  11.531  0.00  0.00    +0.000 C 
ATOM     11  F   UNL     1      46.164  10.576  11.334  0.00  0.00    +0.000 F 
ATOM     12  F   UNL     1      44.300   9.863  10.469  0.00  0.00    +0.000 F 
ATOM     13  F   UNL     1      44.458  10.160  12.616  0.00  0.00    +0.000 F 
ENDBRANCH   8  10
ENDBRANCH   1   4
BRANCH   1  14
ATOM     14  N   UNL     1      43.790   4.450   9.942  0.00  0.00    +0.000 N 
ATOM     15  H   UNL     1      42.869   4.103   9.688  0.00  0.00    +0.000 HD
BRANCH  14  19
ATOM     16  C   UNL     1      46.684   2.373   7.649  0.00  0.00    +0.000 A 
ATOM     17  C   UNL     1      46.604   3.769   7.566  0.00  0.00    +0.000 A 
ATOM     18  C   UNL     1      45.649   4.477   8.306  0.00  0.00    +0.000 A 
ATOM     19  C   UNL     1      44.762   3.810   9.150  0.00  0.00    +0.000 A 
ATOM     20  C   UNL     1      44.865   2.417   9.255  0.00  0.00    +0.000 A 
ATOM     21  C   UNL     1      45.798   1.705   8.502  0.00  0.00    +0.000 A 
BRANCH  16  22
ATOM     22  C   UNL     1      47.641   1.617   6.767  0.00  0.00    +0.000 C 
BRANCH  22  23
ATOM     23  O   UNL     1      48.588   2.493   6.170  0.00  0.00    +0.000 OA
ATOM     24  H   UNL     1      49.166   2.804   6.885  0.00  0.00    +0.000 HD
ENDBRANCH  22  23
ENDBRANCH  16  22
ENDBRANCH  14  19
ENDBRANCH   1  14
TORSDOF 6
ENDMDL
MODEL 5
REMARK VINA RESULT:    -6.416      3.786      6.652
REMARK INTER + INTRA:          -9.475
REMARK INTER:                  -8.713
REMARK INTRA:                  -0.762
REMARK UNBOUND:                -0.996
REMARK  Name = 
REMARK  6 active torsions:
REMARK  status: ('A' for Active; 'I' for Inactive)
REMARK    1  A    between atoms: O_1  and  C_2
REMARK    2  A    between atoms: C_2  and  C_3
REMARK    3  A    between atoms: C_6  and  N_7
REMARK    4  A    between atoms: N_7  and  C_8
REMARK    5  A    between atoms: C_8  and  C_9
REMARK    6  A    between atoms: C_13  and  C_14
REMARK                            x       y       z     vdW  Elec       q    Type
REMARK                         _______ _______ _______ _____ _____    ______ ____
ROOT
ATOM      1  C   UNL     1      46.155   7.263  12.301  0.00  0.00    +0.000 C 
ATOM      2  C   UNL     1      46.309   8.655  11.708  0.00  0.00    +0.000 C 
ATOM      3  C   UNL     1      45.497   8.468  12.946  0.00  0.00    +0.000 C 
ENDROOT
BRANCH   1   4
ATOM      4  C   UNL     1      45.286   6.257  11.558  0.00  0.00    +0.000 A 
ATOM      5  C   UNL     1      43.948   6.046  11.908  0.00  0.00    +0.000 A 
ATOM      6  C   UNL     1      43.167   5.183  11.158  0.00  0.00    +0.000 A 
ATOM      7  N   UNL     1      43.624   4.506  10.081  0.00  0.00    +0.000 NA
ATOM      8  C   UNL     1      44.925   4.685   9.732  0.00  0.00    +0.000 A 
ATOM      9  C   UNL     1      45.763   5.539  10.448  0.00  0.00    +0.000 A 
BRANCH   8  10
ATOM     10  C   UNL     1      45.498   3.959   8.520  0.00  0.00    +0.000 C 
ATOM     11  F   UNL     1      46.575   4.565   7.953  0.00  0.00    +0.000 F 
ATOM     12  F   UNL     1      45.901   2.688   8.822  0.00  0.00    +0.000 F 
ATOM     13  F   UNL     1      44.579   3.818   7.520  0.00  0.00    +0.000 F 
ENDBRANCH   8  10
ENDBRANCH   1   4
BRANCH   1  14
ATOM     14  N   UNL     1      47.404   6.701  12.853  0.00  0.00    +0.000 N 
ATOM     15  H   UNL     1      48.074   6.369  12.165  0.00  0.00    +0.000 HD
BRANCH  14  19
ATOM     16  C   UNL     1      47.704   4.315  16.341  0.00  0.00    +0.000 A 
ATOM     17  C   UNL     1      46.952   3.859  15.250  0.00  0.00    +0.000 A 
ATOM     18  C   UNL     1      46.830   4.635  14.091  0.00  0.00    +0.000 A 
ATOM     19  C   UNL     1      47.460   5.874  13.991  0.00  0.00    +0.000 A 
ATOM     20  C   UNL     1      48.236   6.314  15.071  0.00  0.00    +0.000 A 
ATOM     21  C   UNL     1      48.342   5.556  16.238  0.00  0.00    +0.000 A 
BRANCH  16  22
ATOM     22  C   UNL     1      47.737   3.522  17.620  0.00  0.00    +0.000 C 
BRANCH  22  23
ATOM     23  O   UNL     1      46.554   2.751  17.776  0.00  0.00    +0.000 OA
ATOM     24  H   UNL     1      46.574   2.072  17.082  0.00  0.00    +0.000 HD
ENDBRANCH  22  23
ENDBRANCH  16  22
ENDBRANCH  14  19
ENDBRANCH   1  14
TORSDOF 6
ENDMDL
MODEL 6
REMARK VINA RESULT:    -5.904      4.621      6.833
REMARK INTER + INTRA:          -8.798
REMARK INTER:                  -7.925
REMARK INTRA:                  -0.874
REMARK UNBOUND:                -0.996
REMARK  Name = 
REMARK  6 active torsions:
REMARK  status: ('A' for Active; 'I' for Inactive)
REMARK    1  A    between atoms: O_1  and  C_2
REMARK    2  A    between atoms: C_2  and  C_3
REMARK    3  A    between atoms: C_6  and  N_7
REMARK    4  A    between atoms: N_7  and  C_8
REMARK    5  A    between atoms: C_8  and  C_9
REMARK    6  A    between atoms: C_13  and  C_14
REMARK                            x       y       z     vdW  Elec       q    Type
REMARK                         _______ _______ _______ _____ _____    ______ ____
ROOT
ATOM      1  C   UNL     1      45.874   6.984  12.193  0.00  0.00    +0.000 C 
ATOM      2  C   UNL     1      46.926   6.617  13.228  0.00  0.00    +0.000 C 
ATOM      3  C   UNL     1      47.354   7.145  11.899  0.00  0.00    +0.000 C 
ENDROOT
BRANCH   1   4
ATOM      4  C   UNL     1      45.105   5.855  11.518  0.00  0.00    +0.000 A 
ATOM      5  C   UNL     1      43.851   5.446  11.980  0.00  0.00    +0.000 A 
ATOM      6  C   UNL     1      43.147   4.472  11.292  0.00  0.00    +0.000 A 
ATOM      7  N   UNL     1      43.606   3.866  10.175  0.00  0.00    +0.000 NA
ATOM      8  C   UNL     1      44.829   4.239   9.717  0.00  0.00    +0.000 A 
ATOM      9  C   UNL     1      45.588   5.212  10.365  0.00  0.00    +0.000 A 
BRANCH   8  10
ATOM     10  C   UNL     1      45.399   3.601   8.454  0.00  0.00    +0.000 C 
ATOM     11  F   UNL     1      46.403   4.306   7.867  0.00  0.00    +0.000 F 
ATOM     12  F   UNL     1      45.907   2.354   8.687  0.00  0.00    +0.000 F 
ATOM     13  F   UNL     1      44.448   3.430   7.488  0.00  0.00    +0.000 F 
ENDBRANCH   8  10
ENDBRANCH   1   4
BRANCH   1  14
ATOM     14  N   UNL     1      45.048   8.152  12.559  0.00  0.00    +0.000 N 
ATOM     15  H   UNL     1      44.203   7.940  13.084  0.00  0.00    +0.000 HD
BRANCH  14  19
ATOM     16  C   UNL     1      44.419  11.528  10.079  0.00  0.00    +0.000 A 
ATOM     17  C   UNL     1      43.562  10.425   9.980  0.00  0.00    +0.000 A 
ATOM     18  C   UNL     1      43.756   9.293  10.782  0.00  0.00    +0.000 A 
ATOM     19  C   UNL     1      44.801   9.241  11.703  0.00  0.00    +0.000 A 
ATOM     20  C   UNL     1      45.638  10.358  11.821  0.00  0.00    +0.000 A 
ATOM     21  C   UNL     1      45.464  11.479  11.008  0.00  0.00    +0.000 A 
BRANCH  16  22
ATOM     22  C   UNL     1      44.265  12.691   9.136  0.00  0.00    +0.000 C 
BRANCH  22  23
ATOM     23  O   UNL     1      42.900  12.903   8.804  0.00  0.00    +0.000 OA
ATOM     24  H   UNL     1      42.892  13.496   8.034  0.00  0.00    +0.000 HD
ENDBRANCH  22  23
ENDBRANCH  16  22
ENDBRANCH  14  19
ENDBRANCH   1  14
TORSDOF 6
ENDMDL
MODEL 7
REMARK VINA RESULT:    -5.839      4.142      6.928
REMARK INTER + INTRA:          -8.711
REMARK INTER:                  -8.072
REMARK INTRA:                  -0.639
REMARK UNBOUND:                -0.996
REMARK  Name = 
REMARK  6 active torsions:
REMARK  status: ('A' for Active; 'I' for Inactive)
REMARK    1  A    between atoms: O_1  and  C_2
REMARK    2  A    between atoms: C_2  and  C_3
REMARK    3  A    between atoms: C_6  and  N_7
REMARK    4  A    between atoms: N_7  and  C_8
REMARK    5  A    between atoms: C_8  and  C_9
REMARK    6  A    between atoms: C_13  and  C_14
REMARK                            x       y       z     vdW  Elec       q    Type
REMARK                         _______ _______ _______ _____ _____    ______ ____
ROOT
ATOM      1  C   UNL     1      46.897   7.739  12.679  0.00  0.00    +0.000 C 
ATOM      2  C   UNL     1      47.170   9.141  12.159  0.00  0.00    +0.000 C 
ATOM      3  C   UNL     1      46.234   8.951  13.306  0.00  0.00    +0.000 C 
ENDROOT
BRANCH   1   4
ATOM      4  C   UNL     1      46.060   6.802  11.818  0.00  0.00    +0.000 A 
ATOM      5  C   UNL     1      46.509   6.359  10.570  0.00  0.00    +0.000 A 
ATOM      6  C   UNL     1      45.758   5.444   9.852  0.00  0.00    +0.000 A 
ATOM      7  N   UNL     1      44.582   4.940  10.284  0.00  0.00    +0.000 NA
ATOM      8  C   UNL     1      44.120   5.368  11.488  0.00  0.00    +0.000 A 
ATOM      9  C   UNL     1      44.829   6.288  12.259  0.00  0.00    +0.000 A 
BRANCH   8  10
ATOM     10  C   UNL     1      42.804   4.827  12.037  0.00  0.00    +0.000 C 
ATOM     11  F   UNL     1      41.694   5.471  11.587  0.00  0.00    +0.000 F 
ATOM     12  F   UNL     1      42.619   3.507  11.731  0.00  0.00    +0.000 F 
ATOM     13  F   UNL     1      42.747   4.893  13.400  0.00  0.00    +0.000 F 
ENDBRANCH   8  10
ENDBRANCH   1   4
BRANCH   1  14
ATOM     14  N   UNL     1      48.060   7.099  13.326  0.00  0.00    +0.000 N 
ATOM     15  H   UNL     1      48.799   6.798  12.695  0.00  0.00    +0.000 HD
BRANCH  14  19
ATOM     16  C   UNL     1      47.904   4.445  16.625  0.00  0.00    +0.000 A 
ATOM     17  C   UNL     1      47.222   4.126  15.444  0.00  0.00    +0.000 A 
ATOM     18  C   UNL     1      47.250   4.992  14.344  0.00  0.00    +0.000 A 
ATOM     19  C   UNL     1      47.965   6.188  14.395  0.00  0.00    +0.000 A 
ATOM     20  C   UNL     1      48.672   6.490  15.566  0.00  0.00    +0.000 A 
ATOM     21  C   UNL     1      48.628   5.642  16.673  0.00  0.00    +0.000 A 
BRANCH  16  22
ATOM     22  C   UNL     1      47.777   3.559  17.835  0.00  0.00    +0.000 C 
BRANCH  22  23
ATOM     23  O   UNL     1      46.588   2.783  17.778  0.00  0.00    +0.000 OA
ATOM     24  H   UNL     1      46.761   1.974  18.288  0.00  0.00    +0.000 HD
ENDBRANCH  22  23
ENDBRANCH  16  22
ENDBRANCH  14  19
ENDBRANCH   1  14
TORSDOF 6
ENDMDL
MODEL 8
REMARK VINA RESULT:    -5.640      3.880      6.512
REMARK INTER + INTRA:          -8.449
REMARK INTER:                  -7.981
REMARK INTRA:                  -0.468
REMARK UNBOUND:                -0.996
REMARK  Name = 
REMARK  6 active torsions:
REMARK  status: ('A' for Active; 'I' for Inactive)
REMARK    1  A    between atoms: O_1  and  C_2
REMARK    2  A    between atoms: C_2  and  C_3
REMARK    3  A    between atoms: C_6  and  N_7
REMARK    4  A    between atoms: N_7  and  C_8
REMARK    5  A    between atoms: C_8  and  C_9
REMARK    6  A    between atoms: C_13  and  C_14
REMARK                            x       y       z     vdW  Elec       q    Type
REMARK                         _______ _______ _______ _____ _____    ______ ____
ROOT
ATOM      1  C   UNL     1      45.523   6.644  11.689  0.00  0.00    +0.000 C 
ATOM      2  C   UNL     1      44.708   7.876  11.329  0.00  0.00    +0.000 C 
ATOM      3  C   UNL     1      44.985   7.570  12.764  0.00  0.00    +0.000 C 
ENDROOT
BRANCH   1   4
ATOM      4  C   UNL     1      44.880   5.276  11.503  0.00  0.00    +0.000 A 
ATOM      5  C   UNL     1      43.916   4.793  12.393  0.00  0.00    +0.000 A 
ATOM      6  C   UNL     1      43.295   3.581  12.146  0.00  0.00    +0.000 A 
ATOM      7  N   UNL     1      43.569   2.805  11.075  0.00  0.00    +0.000 NA
ATOM      8  C   UNL     1      44.513   3.249  10.204  0.00  0.00    +0.000 A 
ATOM      9  C   UNL     1      45.175   4.460  10.397  0.00  0.00    +0.000 A 
BRANCH   8  10
ATOM     10  C   UNL     1      44.860   2.425   8.968  0.00  0.00    +0.000 C 
ATOM     11  F   UNL     1      46.191   2.231   8.772  0.00  0.00    +0.000 F 
ATOM     12  F   UNL     1      44.303   1.177   9.006  0.00  0.00    +0.000 F 
ATOM     13  F   UNL     1      44.392   2.995   7.819  0.00  0.00    +0.000 F 
ENDBRANCH   8  10
ENDBRANCH   1   4
BRANCH   1  14
ATOM     14  N   UNL     1      46.939   6.716  11.274  0.00  0.00    +0.000 N 
ATOM     15  H   UNL     1      47.245   5.980  10.643  0.00  0.00    +0.000 HD
BRANCH  14  19
ATOM     16  C   UNL     1      50.213   7.800  13.734  0.00  0.00    +0.000 A 
ATOM     17  C   UNL     1      49.197   6.985  14.250  0.00  0.00    +0.000 A 
ATOM     18  C   UNL     1      48.099   6.623  13.460  0.00  0.00    +0.000 A 
ATOM     19  C   UNL     1      47.997   7.055  12.138  0.00  0.00    +0.000 A 
ATOM     20  C   UNL     1      49.030   7.843  11.616  0.00  0.00    +0.000 A 
ATOM     21  C   UNL     1      50.114   8.227  12.406  0.00  0.00    +0.000 A 
BRANCH  16  22
ATOM     22  C   UNL     1      51.330   8.271  14.627  0.00  0.00    +0.000 C 
BRANCH  22  23
ATOM     23  O   UNL     1      51.921   7.183  15.325  0.00  0.00    +0.000 OA
ATOM     24  H   UNL     1      52.244   6.564  14.649  0.00  0.00    +0.000 HD
ENDBRANCH  22  23
ENDBRANCH  16  22
ENDBRANCH  14  19
ENDBRANCH   1  14
TORSDOF 6
ENDMDL
MODEL 9
REMARK VINA RESULT:    -5.566      3.617      5.496
REMARK INTER + INTRA:          -8.351
REMARK INTER:                  -7.894
REMARK INTRA:                  -0.458
REMARK UNBOUND:                -0.996
REMARK  Name = 
REMARK  6 active torsions:
REMARK  status: ('A' for Active; 'I' for Inactive)
REMARK    1  A    between atoms: O_1  and  C_2
REMARK    2  A    between atoms: C_2  and  C_3
REMARK    3  A    between atoms: C_6  and  N_7
REMARK    4  A    between atoms: N_7  and  C_8
REMARK    5  A    between atoms: C_8  and  C_9
REMARK    6  A    between atoms: C_13  and  C_14
REMARK                            x       y       z     vdW  Elec       q    Type
REMARK                         _______ _______ _______ _____ _____    ______ ____
ROOT
ATOM      1  C   UNL     1      48.106   7.012  14.072  0.00  0.00    +0.000 C 
ATOM      2  C   UNL     1      48.853   8.253  13.608  0.00  0.00    +0.000 C 
ATOM      3  C   UNL     1      49.170   6.930  12.994  0.00  0.00    +0.000 C 
ENDROOT
BRANCH   1   4
ATOM      4  C   UNL     1      48.414   6.463  15.459  0.00  0.00    +0.000 A 
ATOM      5  C   UNL     1      48.913   7.283  16.476  0.00  0.00    +0.000 A 
ATOM      6  C   UNL     1      49.105   6.767  17.746  0.00  0.00    +0.000 A 
ATOM      7  N   UNL     1      48.840   5.484  18.079  0.00  0.00    +0.000 NA
ATOM      8  C   UNL     1      48.367   4.667  17.102  0.00  0.00    +0.000 A 
ATOM      9  C   UNL     1      48.154   5.126  15.803  0.00  0.00    +0.000 A 
BRANCH   8  10
ATOM     10  C   UNL     1      48.037   3.211  17.417  0.00  0.00    +0.000 C 
ATOM     11  F   UNL     1      46.708   2.938  17.507  0.00  0.00    +0.000 F 
ATOM     12  F   UNL     1      48.530   2.353  16.474  0.00  0.00    +0.000 F 
ATOM     13  F   UNL     1      48.583   2.802  18.600  0.00  0.00    +0.000 F 
ENDBRANCH   8  10
ENDBRANCH   1   4
BRANCH   1  14
ATOM     14  N   UNL     1      46.673   7.004  13.716  0.00  0.00    +0.000 N 
ATOM     15  H   UNL     1      46.028   7.055  14.501  0.00  0.00    +0.000 HD
BRANCH  14  19
ATOM     16  C   UNL     1      44.998   4.420  10.806  0.00  0.00    +0.000 A 
ATOM     17  C   UNL     1      45.477   5.679  10.423  0.00  0.00    +0.000 A 
ATOM     18  C   UNL     1      46.025   6.555  11.368  0.00  0.00    +0.000 A 
ATOM     19  C   UNL     1      46.115   6.191  12.711  0.00  0.00    +0.000 A 
ATOM     20  C   UNL     1      45.664   4.919  13.086  0.00  0.00    +0.000 A 
ATOM     21  C   UNL     1      45.096   4.052  12.152  0.00  0.00    +0.000 A 
BRANCH  16  22
ATOM     22  C   UNL     1      44.314   3.533   9.800  0.00  0.00    +0.000 C 
BRANCH  22  23
ATOM     23  O   UNL     1      43.948   4.265   8.638  0.00  0.00    +0.000 OA
ATOM     24  H   UNL     1      43.691   3.610   7.969  0.00  0.00    +0.000 HD
ENDBRANCH  22  23
ENDBRANCH  16  22
ENDBRANCH  14  19
ENDBRANCH   1  14
TORSDOF 6
ENDMDL
