MODEL 1
REMARK VINA RESULT:    -7.232      0.000      0.000
REMARK INTER + INTRA:         -10.177
REMARK INTER:                  -9.346
REMARK INTRA:                  -0.832
REMARK UNBOUND:                -0.832
REMARK  Name = 
REMARK  6 active torsions:
REMARK  status: ('A' for Active; 'I' for Inactive)
REMARK    1  A    between atoms: C_1  and  C_2
REMARK    2  A    between atoms: C_10  and  C_11
REMARK    3  A    between atoms: N_13  and  C_14
REMARK    4  A    between atoms: C_14  and  C_15
REMARK    5  A    between atoms: C_18  and  C_19
REMARK    6  A    between atoms: C_20  and  C_21
REMARK                            x       y       z     vdW  Elec       q    Type
REMARK                         _______ _______ _______ _____ _____    ______ ____
ROOT
ATOM      1  C   UNL     1      47.328   5.800  13.836  0.00  0.00    +0.000 C 
ATOM      2  O   UNL     1      47.284   4.577  13.897  0.00  0.00    +0.000 OA
ATOM      3  N   UNL     1      46.264   6.546  13.371  0.00  0.00    +0.000 N 
ATOM      4  H   UNL     1      46.249   7.535  13.569  0.00  0.00    +0.000 HD
ENDROOT
BRANCH   1  14
ATOM      5  C   UNL     1      48.506   6.209  16.915  0.00  0.00    +0.000 C 
ATOM      6  C   UNL     1      48.976   6.718  15.599  0.00  0.00    +0.000 A 
ATOM      7  N   UNL     1      50.062   7.559  15.546  0.00  0.00    +0.000 N 
ATOM      8  C   UNL     1      50.309   7.969  14.262  0.00  0.00    +0.000 A 
ATOM      9  C   UNL     1      51.303   8.821  13.768  0.00  0.00    +0.000 A 
ATOM     10  C   UNL     1      51.321   9.072  12.393  0.00  0.00    +0.000 A 
ATOM     11  C   UNL     1      50.374   8.494  11.554  0.00  0.00    +0.000 A 
ATOM     12  C   UNL     1      49.382   7.649  12.068  0.00  0.00    +0.000 A 
ATOM     13  C   UNL     1      49.342   7.375  13.453  0.00  0.00    +0.000 A 
ATOM     14  C   UNL     1      48.492   6.569  14.297  0.00  0.00    +0.000 A 
ATOM     15  H   UNL     1      50.601   7.862  16.345  0.00  0.00    +0.000 HD
ENDBRANCH   1  14
BRANCH   3  16
ATOM     16  C   UNL     1      45.036   5.893  12.988  0.00  0.00    +0.000 C 
BRANCH  16  17
ATOM     17  C   UNL     1      45.164   5.147  11.685  0.00  0.00    +0.000 A 
ATOM     18  C   UNL     1      44.750   3.813  11.594  0.00  0.00    +0.000 A 
ATOM     19  C   UNL     1      44.835   3.117  10.383  0.00  0.00    +0.000 A 
ATOM     20  C   UNL     1      45.332   3.739   9.232  0.00  0.00    +0.000 A 
ATOM     21  C   UNL     1      45.774   5.065   9.331  0.00  0.00    +0.000 A 
ATOM     22  C   UNL     1      45.693   5.763  10.542  0.00  0.00    +0.000 A 
BRANCH  20  23
ATOM     23  C   UNL     1      45.503   3.022   7.959  0.00  0.00    +0.000 C 
ATOM     24  C   UNL     1      46.619   2.372   7.581  0.00  0.00    +0.000 C 
BRANCH  24  25
ATOM     25  C   UNL     1      46.803   1.733   6.266  0.00  0.00    +0.000 A 
ATOM     26  C   UNL     1      47.098   0.369   6.133  0.00  0.00    +0.000 A 
ATOM     27  C   UNL     1      47.179  -0.227   4.872  0.00  0.00    +0.000 A 
ATOM     28  C   UNL     1      46.955   0.532   3.727  0.00  0.00    +0.000 A 
ATOM     29  C   UNL     1      46.659   1.889   3.842  0.00  0.00    +0.000 A 
ATOM     30  C   UNL     1      46.581   2.485   5.103  0.00  0.00    +0.000 A 
ENDBRANCH  24  25
ENDBRANCH  20  23
ENDBRANCH  16  17
ENDBRANCH   3  16
TORSDOF 5
ENDMDL
MODEL 2
REMARK VINA RESULT:    -6.781      2.975      8.952
REMARK INTER + INTRA:          -9.594
REMARK INTER:                  -8.704
REMARK INTRA:                  -0.890
REMARK UNBOUND:                -0.832
REMARK  Name = 
REMARK  6 active torsions:
REMARK  status: ('A' for Active; 'I' for Inactive)
REMARK    1  A    between atoms: C_1  and  C_2
REMARK    2  A    between atoms: C_10  and  C_11
REMARK    3  A    between atoms: N_13  and  C_14
REMARK    4  A    between atoms: C_14  and  C_15
REMARK    5  A    between atoms: C_18  and  C_19
REMARK    6  A    between atoms: C_20  and  C_21
REMARK                            x       y       z     vdW  Elec       q    Type
REMARK                         _______ _______ _______ _____ _____    ______ ____
ROOT
ATOM      1  C   UNL     1      44.452   5.609  11.093  0.00  0.00    +0.000 C 
ATOM      2  O   UNL     1      43.405   6.241  11.035  0.00  0.00    +0.000 OA
ATOM      3  N   UNL     1      45.568   6.103  11.738  0.00  0.00    +0.000 N 
ATOM      4  H   UNL     1      46.311   5.461  11.973  0.00  0.00    +0.000 HD
ENDROOT
BRANCH   1  14
ATOM      5  C   UNL     1      43.341   2.704  12.259  0.00  0.00    +0.000 C 
ATOM      6  C   UNL     1      44.103   3.052  11.030  0.00  0.00    +0.000 A 
ATOM      7  N   UNL     1      44.511   2.052  10.179  0.00  0.00    +0.000 N 
ATOM      8  C   UNL     1      45.246   2.555   9.140  0.00  0.00    +0.000 A 
ATOM      9  C   UNL     1      45.850   1.894   8.063  0.00  0.00    +0.000 A 
ATOM     10  C   UNL     1      46.551   2.667   7.135  0.00  0.00    +0.000 A 
ATOM     11  C   UNL     1      46.646   4.046   7.286  0.00  0.00    +0.000 A 
ATOM     12  C   UNL     1      46.042   4.690   8.373  0.00  0.00    +0.000 A 
ATOM     13  C   UNL     1      45.322   3.934   9.326  0.00  0.00    +0.000 A 
ATOM     14  C   UNL     1      44.590   4.261  10.526  0.00  0.00    +0.000 A 
ATOM     15  H   UNL     1      44.320   1.068  10.307  0.00  0.00    +0.000 HD
ENDBRANCH   1  14
BRANCH   3  16
ATOM     16  C   UNL     1      45.507   7.376  12.415  0.00  0.00    +0.000 C 
BRANCH  16  17
ATOM     17  C   UNL     1      46.717   8.231  12.140  0.00  0.00    +0.000 A 
ATOM     18  C   UNL     1      46.610   9.627  12.155  0.00  0.00    +0.000 A 
ATOM     19  C   UNL     1      47.732  10.434  11.931  0.00  0.00    +0.000 A 
ATOM     20  C   UNL     1      48.988   9.865  11.691  0.00  0.00    +0.000 A 
ATOM     21  C   UNL     1      49.088   8.469  11.647  0.00  0.00    +0.000 A 
ATOM     22  C   UNL     1      47.967   7.659  11.868  0.00  0.00    +0.000 A 
BRANCH  20  23
ATOM     23  C   UNL     1      50.175  10.678  11.382  0.00  0.00    +0.000 C 
ATOM     24  C   UNL     1      51.145  10.331  10.516  0.00  0.00    +0.000 C 
BRANCH  24  25
ATOM     25  C   UNL     1      52.371  11.117  10.285  0.00  0.00    +0.000 A 
ATOM     26  C   UNL     1      53.003  11.164   9.034  0.00  0.00    +0.000 A 
ATOM     27  C   UNL     1      54.111  11.987   8.822  0.00  0.00    +0.000 A 
ATOM     28  C   UNL     1      54.596  12.783   9.855  0.00  0.00    +0.000 A 
ATOM     29  C   UNL     1      53.979  12.749  11.104  0.00  0.00    +0.000 A 
ATOM     30  C   UNL     1      52.871  11.923  11.316  0.00  0.00    +0.000 A 
ENDBRANCH  24  25
ENDBRANCH  20  23
ENDBRANCH  16  17
ENDBRANCH   3  16
TORSDOF 5
ENDMDL
MODEL 3
REMARK VINA RESULT:    -6.672      2.660     10.037
REMARK INTER + INTRA:          -9.454
REMARK INTER:                  -8.664
REMARK INTRA:                  -0.790
REMARK UNBOUND:                -0.832
REMARK  Name = 
REMARK  6 active torsions:
REMARK  status: ('A' for Active; 'I' for Inactive)
REMARK    1  A    between atoms: C_1  and  C_2
REMARK    2  A    between atoms: C_10  and  C_11
REMARK    3  A    between atoms: N_13  and  C_14
REMARK    4  A    between atoms: C_14  and  C_15
REMARK    5  A    between atoms: C_18  and  C_19
REMARK    6  A    between atoms: C_20  and  C_21
REMARK                            x       y       z     vdW  Elec       q    Type
REMARK                         _______ _______ _______ _____ _____    ______ ____
ROOT
ATOM      1  C   UNL     1      44.742   5.595  10.833  0.00  0.00    +0.000 C 
ATOM      2  O   UNL     1      43.696   6.192  11.055  0.00  0.00    +0.000 OA
ATOM      3  N   UNL     1      45.972   6.141  11.142  0.00  0.00    +0.000 N 
ATOM      4  H   UNL     1      46.774   5.529  11.175  0.00  0.00    +0.000 HD
ENDROOT
BRANCH   1  14
ATOM      5  C   UNL     1      43.392   2.795  12.003  0.00  0.00    +0.000 C 
ATOM      6  C   UNL     1      44.185   3.076  10.776  0.00  0.00    +0.000 A 
ATOM      7  N   UNL     1      44.512   2.043   9.930  0.00  0.00    +0.000 N 
ATOM      8  C   UNL     1      45.291   2.481   8.892  0.00  0.00    +0.000 A 
ATOM      9  C   UNL     1      45.842   1.768   7.820  0.00  0.00    +0.000 A 
ATOM     10  C   UNL     1      46.608   2.479   6.893  0.00  0.00    +0.000 A 
ATOM     11  C   UNL     1      46.815   3.846   7.040  0.00  0.00    +0.000 A 
ATOM     12  C   UNL     1      46.262   4.541   8.123  0.00  0.00    +0.000 A 
ATOM     13  C   UNL     1      45.479   3.849   9.075  0.00  0.00    +0.000 A 
ATOM     14  C   UNL     1      44.771   4.238  10.271  0.00  0.00    +0.000 A 
ATOM     15  H   UNL     1      44.241   1.078  10.060  0.00  0.00    +0.000 HD
ENDBRANCH   1  14
BRANCH   3  16
ATOM     16  C   UNL     1      46.050   7.428  11.790  0.00  0.00    +0.000 C 
BRANCH  16  17
ATOM     17  C   UNL     1      46.907   7.396  13.029  0.00  0.00    +0.000 A 
ATOM     18  C   UNL     1      47.310   6.172  13.576  0.00  0.00    +0.000 A 
ATOM     19  C   UNL     1      48.130   6.128  14.708  0.00  0.00    +0.000 A 
ATOM     20  C   UNL     1      48.571   7.306  15.321  0.00  0.00    +0.000 A 
ATOM     21  C   UNL     1      48.142   8.531  14.793  0.00  0.00    +0.000 A 
ATOM     22  C   UNL     1      47.319   8.578  13.660  0.00  0.00    +0.000 A 
BRANCH  20  23
ATOM     23  C   UNL     1      49.374   7.302  16.553  0.00  0.00    +0.000 C 
ATOM     24  C   UNL     1      49.250   6.411  17.555  0.00  0.00    +0.000 C 
BRANCH  24  25
ATOM     25  C   UNL     1      50.003   6.474  18.820  0.00  0.00    +0.000 A 
ATOM     26  C   UNL     1      50.467   7.686  19.353  0.00  0.00    +0.000 A 
ATOM     27  C   UNL     1      51.100   7.725  20.598  0.00  0.00    +0.000 A 
ATOM     28  C   UNL     1      51.269   6.554  21.331  0.00  0.00    +0.000 A 
ATOM     29  C   UNL     1      50.813   5.342  20.816  0.00  0.00    +0.000 A 
ATOM     30  C   UNL     1      50.182   5.303  19.569  0.00  0.00    +0.000 A 
ENDBRANCH  24  25
ENDBRANCH  20  23
ENDBRANCH  16  17
ENDBRANCH   3  16
TORSDOF 5
ENDMDL
MODEL 4
REMARK VINA RESULT:    -6.662      2.808     10.002
REMARK INTER + INTRA:          -9.440
REMARK INTER:                  -8.577
REMARK INTRA:                  -0.863
REMARK UNBOUND:                -0.832
REMARK  Name = 
REMARK  6 active torsions:
REMARK  status: ('A' for Active; 'I' for Inactive)
REMARK    1  A    between atoms: C_1  and  C_2
REMARK    2  A    between atoms: C_10  and  C_11
REMARK    3  A    between atoms: N_13  and  C_14
REMARK    4  A    between atoms: C_14  and  C_15
REMARK    5  A    between atoms: C_18  and  C_19
REMARK    6  A    between atoms: C_20  and  C_21
REMARK                            x       y       z     vdW  Elec       q    Type
REMARK                         _______ _______ _______ _____ _____    ______ ____
ROOT
ATOM      1  C   UNL     1      45.186   5.855  11.240  0.00  0.00    +0.000 C 
ATOM      2  O   UNL     1      44.278   6.652  11.440  0.00  0.00    +0.000 OA
ATOM      3  N   UNL     1      46.487   6.121  11.620  0.00  0.00    +0.000 N 
ATOM      4  H   UNL     1      47.140   5.354  11.663  0.00  0.00    +0.000 HD
ENDROOT
BRANCH   1  14
ATOM      5  C   UNL     1      43.565   3.218  12.443  0.00  0.00    +0.000 C 
ATOM      6  C   UNL     1      44.262   3.447  11.149  0.00  0.00    +0.000 A 
ATOM      7  N   UNL     1      44.347   2.425  10.235  0.00  0.00    +0.000 N 
ATOM      8  C   UNL     1      45.072   2.801   9.136  0.00  0.00    +0.000 A 
ATOM      9  C   UNL     1      45.402   2.075   7.985  0.00  0.00    +0.000 A 
ATOM     10  C   UNL     1      46.166   2.717   7.007  0.00  0.00    +0.000 A 
ATOM     11  C   UNL     1      46.585   4.031   7.183  0.00  0.00    +0.000 A 
ATOM     12  C   UNL     1      46.252   4.740   8.344  0.00  0.00    +0.000 A 
ATOM     13  C   UNL     1      45.477   4.118   9.348  0.00  0.00    +0.000 A 
ATOM     14  C   UNL     1      44.958   4.540  10.627  0.00  0.00    +0.000 A 
ATOM     15  H   UNL     1      43.951   1.502  10.356  0.00  0.00    +0.000 HD
ENDBRANCH   1  14
BRANCH   3  16
ATOM     16  C   UNL     1      46.800   7.343  12.320  0.00  0.00    +0.000 C 
BRANCH  16  17
ATOM     17  C   UNL     1      47.490   7.091  13.636  0.00  0.00    +0.000 A 
ATOM     18  C   UNL     1      47.464   5.815  14.211  0.00  0.00    +0.000 A 
ATOM     19  C   UNL     1      48.126   5.560  15.417  0.00  0.00    +0.000 A 
ATOM     20  C   UNL     1      48.832   6.573  16.077  0.00  0.00    +0.000 A 
ATOM     21  C   UNL     1      48.831   7.857  15.517  0.00  0.00    +0.000 A 
ATOM     22  C   UNL     1      48.168   8.116  14.310  0.00  0.00    +0.000 A 
BRANCH  20  23
ATOM     23  C   UNL     1      49.480   6.362  17.380  0.00  0.00    +0.000 C 
ATOM     24  C   UNL     1      49.942   5.182  17.833  0.00  0.00    +0.000 C 
BRANCH  24  25
ATOM     25  C   UNL     1      50.509   4.972  19.177  0.00  0.00    +0.000 A 
ATOM     26  C   UNL     1      51.872   4.709  19.380  0.00  0.00    +0.000 A 
ATOM     27  C   UNL     1      52.396   4.603  20.670  0.00  0.00    +0.000 A 
ATOM     28  C   UNL     1      51.567   4.770  21.776  0.00  0.00    +0.000 A 
ATOM     29  C   UNL     1      50.211   5.034  21.591  0.00  0.00    +0.000 A 
ATOM     30  C   UNL     1      49.686   5.137  20.300  0.00  0.00    +0.000 A 
ENDBRANCH  24  25
ENDBRANCH  20  23
ENDBRANCH  16  17
ENDBRANCH   3  16
TORSDOF 5
ENDMDL
MODEL 5
REMARK VINA RESULT:    -6.625      2.898      9.702
REMARK INTER + INTRA:          -9.393
REMARK INTER:                  -8.636
REMARK INTRA:                  -0.758
REMARK UNBOUND:                -0.832
REMARK  Name = 
REMARK  6 active torsions:
REMARK  status: ('A' for Active; 'I' for Inactive)
REMARK    1  A    between atoms: C_1  and  C_2
REMARK    2  A    between atoms: C_10  and  C_11
REMARK    3  A    between atoms: N_13  and  C_14
REMARK    4  A    between atoms: C_14  and  C_15
REMARK    5  A    between atoms: C_18  and  C_19
REMARK    6  A    between atoms: C_20  and  C_21
REMARK                            x       y       z     vdW  Elec       q    Type
REMARK                         _______ _______ _______ _____ _____    ______ ____
ROOT
ATOM      1  C   UNL     1      44.408   5.348  10.769  0.00  0.00    +0.000 C 
ATOM      2  O   UNL     1      43.299   5.800  11.027  0.00  0.00    +0.000 OA
ATOM      3  N   UNL     1      45.565   6.041  11.065  0.00  0.00    +0.000 N 
ATOM      4  H   UNL     1      46.439   5.537  11.065  0.00  0.00    +0.000 HD
ENDROOT
BRANCH   1  14
ATOM      5  C   UNL     1      43.288   2.394  11.795  0.00  0.00    +0.000 C 
ATOM      6  C   UNL     1      44.105   2.789  10.617  0.00  0.00    +0.000 A 
ATOM      7  N   UNL     1      44.572   1.821   9.760  0.00  0.00    +0.000 N 
ATOM      8  C   UNL     1      45.351   2.365   8.774  0.00  0.00    +0.000 A 
ATOM      9  C   UNL     1      46.019   1.744   7.712  0.00  0.00    +0.000 A 
ATOM     10  C   UNL     1      46.753   2.554   6.842  0.00  0.00    +0.000 A 
ATOM     11  C   UNL     1      46.817   3.930   7.037  0.00  0.00    +0.000 A 
ATOM     12  C   UNL     1      46.148   4.533   8.109  0.00  0.00    +0.000 A 
ATOM     13  C   UNL     1      45.394   3.739   9.002  0.00  0.00    +0.000 A 
ATOM     14  C   UNL     1      44.596   4.019  10.172  0.00  0.00    +0.000 A 
ATOM     15  H   UNL     1      44.392   0.830   9.850  0.00  0.00    +0.000 HD
ENDBRANCH   1  14
BRANCH   3  16
ATOM     16  C   UNL     1      45.493   7.312  11.743  0.00  0.00    +0.000 C 
BRANCH  16  17
ATOM     17  C   UNL     1      46.548   7.455  12.810  0.00  0.00    +0.000 A 
ATOM     18  C   UNL     1      46.867   8.719  13.319  0.00  0.00    +0.000 A 
ATOM     19  C   UNL     1      47.823   8.864  14.331  0.00  0.00    +0.000 A 
ATOM     20  C   UNL     1      48.480   7.747  14.861  0.00  0.00    +0.000 A 
ATOM     21  C   UNL     1      48.183   6.486  14.330  0.00  0.00    +0.000 A 
ATOM     22  C   UNL     1      47.228   6.338  13.315  0.00  0.00    +0.000 A 
BRANCH  20  23
ATOM     23  C   UNL     1      49.541   7.864  15.874  0.00  0.00    +0.000 C 
ATOM     24  C   UNL     1      50.522   6.965  16.074  0.00  0.00    +0.000 C 
BRANCH  24  25
ATOM     25  C   UNL     1      51.524   7.056  17.152  0.00  0.00    +0.000 A 
ATOM     26  C   UNL     1      52.510   6.077  17.338  0.00  0.00    +0.000 A 
ATOM     27  C   UNL     1      53.500   6.234  18.311  0.00  0.00    +0.000 A 
ATOM     28  C   UNL     1      53.524   7.378  19.104  0.00  0.00    +0.000 A 
ATOM     29  C   UNL     1      52.552   8.361  18.929  0.00  0.00    +0.000 A 
ATOM     30  C   UNL     1      51.560   8.202  17.958  0.00  0.00    +0.000 A 
ENDBRANCH  24  25
ENDBRANCH  20  23
ENDBRANCH  16  17
ENDBRANCH   3  16
TORSDOF 5
ENDMDL
MODEL 6
REMARK VINA RESULT:    -6.537      5.070      7.612
REMARK INTER + INTRA:          -9.280
REMARK INTER:                  -8.398
REMARK INTRA:                  -0.882
REMARK UNBOUND:                -0.832
REMARK  Name = 
REMARK  6 active torsions:
REMARK  status: ('A' for Active; 'I' for Inactive)
REMARK    1  A    between atoms: C_1  and  C_2
REMARK    2  A    between atoms: C_10  and  C_11
REMARK    3  A    between atoms: N_13  and  C_14
REMARK    4  A    between atoms: C_14  and  C_15
REMARK    5  A    between atoms: C_18  and  C_19
REMARK    6  A    between atoms: C_20  and  C_21
REMARK                            x       y       z     vdW  Elec       q    Type
REMARK                         _______ _______ _______ _____ _____    ______ ____
ROOT
ATOM      1  C   UNL     1      48.377   5.763  15.950  0.00  0.00    +0.000 C 
ATOM      2  O   UNL     1      49.459   6.168  15.545  0.00  0.00    +0.000 OA
ATOM      3  N   UNL     1      47.345   5.449  15.088  0.00  0.00    +0.000 N 
ATOM      4  H   UNL     1      46.578   4.895  15.438  0.00  0.00    +0.000 HD
ENDROOT
BRANCH   1  14
ATOM      5  C   UNL     1      47.803   2.912  17.556  0.00  0.00    +0.000 C 
ATOM      6  C   UNL     1      47.879   4.320  18.032  0.00  0.00    +0.000 A 
ATOM      7  N   UNL     1      47.634   4.602  19.354  0.00  0.00    +0.000 N 
ATOM      8  C   UNL     1      47.690   5.950  19.592  0.00  0.00    +0.000 A 
ATOM      9  C   UNL     1      47.501   6.660  20.784  0.00  0.00    +0.000 A 
ATOM     10  C   UNL     1      47.618   8.052  20.737  0.00  0.00    +0.000 A 
ATOM     11  C   UNL     1      47.906   8.700  19.541  0.00  0.00    +0.000 A 
ATOM     12  C   UNL     1      48.085   7.974  18.357  0.00  0.00    +0.000 A 
ATOM     13  C   UNL     1      47.978   6.565  18.375  0.00  0.00    +0.000 A 
ATOM     14  C   UNL     1      48.107   5.532  17.376  0.00  0.00    +0.000 A 
ATOM     15  H   UNL     1      47.416   3.916  20.064  0.00  0.00    +0.000 HD
ENDBRANCH   1  14
BRANCH   3  16
ATOM     16  C   UNL     1      47.542   5.546  13.661  0.00  0.00    +0.000 C 
BRANCH  16  17
ATOM     17  C   UNL     1      46.697   6.626  13.037  0.00  0.00    +0.000 A 
ATOM     18  C   UNL     1      45.664   6.290  12.154  0.00  0.00    +0.000 A 
ATOM     19  C   UNL     1      44.853   7.280  11.589  0.00  0.00    +0.000 A 
ATOM     20  C   UNL     1      45.051   8.631  11.897  0.00  0.00    +0.000 A 
ATOM     21  C   UNL     1      46.104   8.970  12.757  0.00  0.00    +0.000 A 
ATOM     22  C   UNL     1      46.920   7.981  13.321  0.00  0.00    +0.000 A 
BRANCH  20  23
ATOM     23  C   UNL     1      44.266   9.706  11.270  0.00  0.00    +0.000 C 
ATOM     24  C   UNL     1      43.086   9.539  10.645  0.00  0.00    +0.000 C 
BRANCH  24  25
ATOM     25  C   UNL     1      42.357  10.612   9.947  0.00  0.00    +0.000 A 
ATOM     26  C   UNL     1      41.029  10.939  10.261  0.00  0.00    +0.000 A 
ATOM     27  C   UNL     1      40.393  12.019   9.645  0.00  0.00    +0.000 A 
ATOM     28  C   UNL     1      41.079  12.794   8.714  0.00  0.00    +0.000 A 
ATOM     29  C   UNL     1      42.400  12.484   8.393  0.00  0.00    +0.000 A 
ATOM     30  C   UNL     1      43.035  11.401   9.008  0.00  0.00    +0.000 A 
ENDBRANCH  24  25
ENDBRANCH  20  23
ENDBRANCH  16  17
ENDBRANCH   3  16
TORSDOF 5
ENDMDL
MODEL 7
REMARK VINA RESULT:    -6.401      1.598      2.460
REMARK INTER + INTRA:          -9.104
REMARK INTER:                  -8.509
REMARK INTRA:                  -0.595
REMARK UNBOUND:                -0.832
REMARK  Name = 
REMARK  6 active torsions:
REMARK  status: ('A' for Active; 'I' for Inactive)
REMARK    1  A    between atoms: C_1  and  C_2
REMARK    2  A    between atoms: C_10  and  C_11
REMARK    3  A    between atoms: N_13  and  C_14
REMARK    4  A    between atoms: C_14  and  C_15
REMARK    5  A    between atoms: C_18  and  C_19
REMARK    6  A    between atoms: C_20  and  C_21
REMARK                            x       y       z     vdW  Elec       q    Type
REMARK                         _______ _______ _______ _____ _____    ______ ____
ROOT
ATOM      1  C   UNL     1      46.414   8.170  13.257  0.00  0.00    +0.000 C 
ATOM      2  O   UNL     1      45.463   8.893  12.982  0.00  0.00    +0.000 OA
ATOM      3  N   UNL     1      46.306   6.794  13.263  0.00  0.00    +0.000 N 
ATOM      4  H   UNL     1      47.153   6.246  13.249  0.00  0.00    +0.000 HD
ENDROOT
BRANCH   1  14
ATOM      5  C   UNL     1      48.049  10.677  11.816  0.00  0.00    +0.000 C 
ATOM      6  C   UNL     1      48.413   9.771  12.938  0.00  0.00    +0.000 A 
ATOM      7  N   UNL     1      49.653   9.880  13.521  0.00  0.00    +0.000 N 
ATOM      8  C   UNL     1      49.830   8.928  14.491  0.00  0.00    +0.000 A 
ATOM      9  C   UNL     1      50.933   8.683  15.318  0.00  0.00    +0.000 A 
ATOM     10  C   UNL     1      50.839   7.630  16.231  0.00  0.00    +0.000 A 
ATOM     11  C   UNL     1      49.687   6.854  16.305  0.00  0.00    +0.000 A 
ATOM     12  C   UNL     1      48.596   7.110  15.465  0.00  0.00    +0.000 A 
ATOM     13  C   UNL     1      48.661   8.171  14.534  0.00  0.00    +0.000 A 
ATOM     14  C   UNL     1      47.750   8.706  13.551  0.00  0.00    +0.000 A 
ATOM     15  H   UNL     1      50.361  10.553  13.261  0.00  0.00    +0.000 HD
ENDBRANCH   1  14
BRANCH   3  16
ATOM     16  C   UNL     1      45.063   6.165  12.890  0.00  0.00    +0.000 C 
BRANCH  16  17
ATOM     17  C   UNL     1      45.186   5.351  11.627  0.00  0.00    +0.000 A 
ATOM     18  C   UNL     1      44.718   4.033  11.591  0.00  0.00    +0.000 A 
ATOM     19  C   UNL     1      44.799   3.276  10.416  0.00  0.00    +0.000 A 
ATOM     20  C   UNL     1      45.347   3.820   9.249  0.00  0.00    +0.000 A 
ATOM     21  C   UNL     1      45.843   5.129   9.294  0.00  0.00    +0.000 A 
ATOM     22  C   UNL     1      45.765   5.888  10.469  0.00  0.00    +0.000 A 
BRANCH  20  23
ATOM     23  C   UNL     1      45.514   3.034   8.016  0.00  0.00    +0.000 C 
ATOM     24  C   UNL     1      46.678   2.516   7.581  0.00  0.00    +0.000 C 
BRANCH  24  25
ATOM     25  C   UNL     1      46.843   1.807   6.300  0.00  0.00    +0.000 A 
ATOM     26  C   UNL     1      47.100   0.430   6.236  0.00  0.00    +0.000 A 
ATOM     27  C   UNL     1      47.163  -0.231   5.007  0.00  0.00    +0.000 A 
ATOM     28  C   UNL     1      46.960   0.475   3.825  0.00  0.00    +0.000 A 
ATOM     29  C   UNL     1      46.702   1.844   3.871  0.00  0.00    +0.000 A 
ATOM     30  C   UNL     1      46.641   2.505   5.101  0.00  0.00    +0.000 A 
ENDBRANCH  24  25
ENDBRANCH  20  23
ENDBRANCH  16  17
ENDBRANCH   3  16
TORSDOF 5
ENDMDL
MODEL 8
REMARK VINA RESULT:    -6.342      2.698      9.886
REMARK INTER + INTRA:          -9.028
REMARK INTER:                  -8.311
REMARK INTRA:                  -0.716
REMARK UNBOUND:                -0.832
REMARK  Name = 
REMARK  6 active torsions:
REMARK  status: ('A' for Active; 'I' for Inactive)
REMARK    1  A    between atoms: C_1  and  C_2
REMARK    2  A    between atoms: C_10  and  C_11
REMARK    3  A    between atoms: N_13  and  C_14
REMARK    4  A    between atoms: C_14  and  C_15
REMARK    5  A    between atoms: C_18  and  C_19
REMARK    6  A    between atoms: C_20  and  C_21
REMARK                            x       y       z     vdW  Elec       q    Type
REMARK                         _______ _______ _______ _____ _____    ______ ____
ROOT
ATOM      1  C   UNL     1      44.418   5.587  10.921  0.00  0.00    +0.000 C 
ATOM      2  O   UNL     1      43.322   6.087  11.145  0.00  0.00    +0.000 OA
ATOM      3  N   UNL     1      45.595   6.261  11.181  0.00  0.00    +0.000 N 
ATOM      4  H   UNL     1      46.453   5.732  11.217  0.00  0.00    +0.000 HD
ENDROOT
BRANCH   1  14
ATOM      5  C   UNL     1      43.319   2.722  12.194  0.00  0.00    +0.000 C 
ATOM      6  C   UNL     1      44.086   3.028  10.957  0.00  0.00    +0.000 A 
ATOM      7  N   UNL     1      44.506   1.998  10.148  0.00  0.00    +0.000 N 
ATOM      8  C   UNL     1      45.245   2.465   9.094  0.00  0.00    +0.000 A 
ATOM      9  C   UNL     1      45.859   1.766   8.048  0.00  0.00    +0.000 A 
ATOM     10  C   UNL     1      46.561   2.507   7.095  0.00  0.00    +0.000 A 
ATOM     11  C   UNL     1      46.646   3.892   7.192  0.00  0.00    +0.000 A 
ATOM     12  C   UNL     1      46.031   4.574   8.249  0.00  0.00    +0.000 A 
ATOM     13  C   UNL     1      45.310   3.851   9.227  0.00  0.00    +0.000 A 
ATOM     14  C   UNL     1      44.568   4.219  10.408  0.00  0.00    +0.000 A 
ATOM     15  H   UNL     1      44.321   1.018  10.313  0.00  0.00    +0.000 HD
ENDBRANCH   1  14
BRANCH   3  16
ATOM     16  C   UNL     1      45.559   7.573  11.779  0.00  0.00    +0.000 C 
BRANCH  16  17
ATOM     17  C   UNL     1      46.884   7.968  12.378  0.00  0.00    +0.000 A 
ATOM     18  C   UNL     1      46.927   8.768  13.526  0.00  0.00    +0.000 A 
ATOM     19  C   UNL     1      48.150   9.117  14.111  0.00  0.00    +0.000 A 
ATOM     20  C   UNL     1      49.359   8.674  13.563  0.00  0.00    +0.000 A 
ATOM     21  C   UNL     1      49.317   7.899  12.396  0.00  0.00    +0.000 A 
ATOM     22  C   UNL     1      48.095   7.550  11.808  0.00  0.00    +0.000 A 
BRANCH  20  23
ATOM     23  C   UNL     1      50.665   9.078  14.106  0.00  0.00    +0.000 C 
ATOM     24  C   UNL     1      50.960  10.302  14.582  0.00  0.00    +0.000 C 
BRANCH  24  25
ATOM     25  C   UNL     1      52.299  10.714  15.040  0.00  0.00    +0.000 A 
ATOM     26  C   UNL     1      53.185  11.423  14.216  0.00  0.00    +0.000 A 
ATOM     27  C   UNL     1      54.412  11.877  14.706  0.00  0.00    +0.000 A 
ATOM     28  C   UNL     1      54.765  11.637  16.031  0.00  0.00    +0.000 A 
ATOM     29  C   UNL     1      53.895  10.935  16.864  0.00  0.00    +0.000 A 
ATOM     30  C   UNL     1      52.669  10.479  16.372  0.00  0.00    +0.000 A 
ENDBRANCH  24  25
ENDBRANCH  20  23
ENDBRANCH  16  17
ENDBRANCH   3  16
TORSDOF 5
ENDMDL
MODEL 9
REMARK VINA RESULT:    -6.177      4.413      9.654
REMARK INTER + INTRA:          -8.814
REMARK INTER:                  -7.835
REMARK INTRA:                  -0.979
REMARK UNBOUND:                -0.832
REMARK  Name = 
REMARK  6 active torsions:
REMARK  status: ('A' for Active; 'I' for Inactive)
REMARK    1  A    between atoms: C_1  and  C_2
REMARK    2  A    between atoms: C_10  and  C_11
REMARK    3  A    between atoms: N_13  and  C_14
REMARK    4  A    between atoms: C_14  and  C_15
REMARK    5  A    between atoms: C_18  and  C_19
REMARK    6  A    between atoms: C_20  and  C_21
REMARK                            x       y       z     vdW  Elec       q    Type
REMARK                         _______ _______ _______ _____ _____    ______ ____
ROOT
ATOM      1  C   UNL     1      46.978   8.151  12.700  0.00  0.00    +0.000 C 
ATOM      2  O   UNL     1      47.951   8.377  11.991  0.00  0.00    +0.000 OA
ATOM      3  N   UNL     1      46.956   8.486  14.039  0.00  0.00    +0.000 N 
ATOM      4  H   UNL     1      46.066   8.511  14.513  0.00  0.00    +0.000 HD
ENDROOT
BRANCH   1  14
ATOM      5  C   UNL     1      44.363   9.622  11.272  0.00  0.00    +0.000 C 
ATOM      6  C   UNL     1      44.659   8.194  11.565  0.00  0.00    +0.000 A 
ATOM      7  N   UNL     1      43.720   7.234  11.272  0.00  0.00    +0.000 N 
ATOM      8  C   UNL     1      44.143   5.992  11.665  0.00  0.00    +0.000 A 
ATOM      9  C   UNL     1      43.502   4.751  11.561  0.00  0.00    +0.000 A 
ATOM     10  C   UNL     1      44.175   3.629  12.053  0.00  0.00    +0.000 A 
ATOM     11  C   UNL     1      45.434   3.751  12.629  0.00  0.00    +0.000 A 
ATOM     12  C   UNL     1      46.057   5.002  12.731  0.00  0.00    +0.000 A 
ATOM     13  C   UNL     1      45.402   6.154  12.239  0.00  0.00    +0.000 A 
ATOM     14  C   UNL     1      45.743   7.555  12.173  0.00  0.00    +0.000 A 
ATOM     15  H   UNL     1      42.821   7.412  10.846  0.00  0.00    +0.000 HD
ENDBRANCH   1  14
BRANCH   3  16
ATOM     16  C   UNL     1      48.082   9.167  14.631  0.00  0.00    +0.000 C 
BRANCH  16  17
ATOM     17  C   UNL     1      49.051   8.215  15.284  0.00  0.00    +0.000 A 
ATOM     18  C   UNL     1      48.598   7.288  16.230  0.00  0.00    +0.000 A 
ATOM     19  C   UNL     1      49.481   6.378  16.821  0.00  0.00    +0.000 A 
ATOM     20  C   UNL     1      50.838   6.371  16.481  0.00  0.00    +0.000 A 
ATOM     21  C   UNL     1      51.297   7.320  15.557  0.00  0.00    +0.000 A 
ATOM     22  C   UNL     1      50.416   8.233  14.965  0.00  0.00    +0.000 A 
BRANCH  20  23
ATOM     23  C   UNL     1      51.810   5.480  17.132  0.00  0.00    +0.000 C 
ATOM     24  C   UNL     1      51.562   4.214  17.518  0.00  0.00    +0.000 C 
BRANCH  24  25
ATOM     25  C   UNL     1      52.521   3.366  18.248  0.00  0.00    +0.000 A 
ATOM     26  C   UNL     1      52.896   2.096  17.786  0.00  0.00    +0.000 A 
ATOM     27  C   UNL     1      53.873   1.352  18.451  0.00  0.00    +0.000 A 
ATOM     28  C   UNL     1      54.496   1.872  19.582  0.00  0.00    +0.000 A 
ATOM     29  C   UNL     1      54.135   3.133  20.053  0.00  0.00    +0.000 A 
ATOM     30  C   UNL     1      53.156   3.876  19.389  0.00  0.00    +0.000 A 
ENDBRANCH  24  25
ENDBRANCH  20  23
ENDBRANCH  16  17
ENDBRANCH   3  16
TORSDOF 5
ENDMDL
