MODEL 1
REMARK VINA RESULT:    -7.938      0.000      0.000
REMARK INTER + INTRA:         -12.255
REMARK INTER:                 -11.186
REMARK INTRA:                  -1.069
REMARK UNBOUND:                -1.069
REMARK  Name = 
REMARK  8 active torsions:
REMARK  status: ('A' for Active; 'I' for Inactive)
REMARK    1  A    between atoms: C_1  and  C_2
REMARK    2  A    between atoms: C_2  and  C_3
REMARK    3  A    between atoms: C_2  and  N_19
REMARK    4  A    between atoms: C_3  and  C_4
REMARK    5  A    between atoms: C_7  and  C_8
REMARK    6  A    between atoms: C_8  and  N_9
REMARK    7  A    between atoms: N_9  and  C_10
REMARK    8  A    between atoms: C_10  and  C_11
REMARK                            x       y       z     vdW  Elec       q    Type
REMARK                         _______ _______ _______ _____ _____    ______ ____
ROOT
ATOM      1  C   UNL     1      46.432   6.330  12.801  0.00  0.00    +0.000 A 
ATOM      2  C   UNL     1      46.261   6.309  11.418  0.00  0.00    +0.000 A 
ATOM      3  C   UNL     1      45.404   5.394  10.820  0.00  0.00    +0.000 A 
ATOM      4  C   UNL     1      44.717   4.503  11.630  0.00  0.00    +0.000 A 
ATOM      5  N   UNL     1      44.852   4.487  12.979  0.00  0.00    +0.000 NA
ATOM      6  C   UNL     1      45.702   5.393  13.527  0.00  0.00    +0.000 A 
ENDROOT
BRANCH   1   7
ATOM      7  C   UNL     1      47.341   7.311  13.510  0.00  0.00    +0.000 C 
BRANCH   7   9
ATOM      8  C   UNL     1      49.877   7.486  13.794  0.00  0.00    +0.000 C 
ATOM      9  C   UNL     1      48.616   6.709  14.166  0.00  0.00    +0.000 C 
BRANCH   9  10
ATOM     10  N   UNL     1      48.543   6.516  15.618  0.00  0.00    +0.000 N 
ATOM     11  C   UNL     1      48.841   7.505  16.536  0.00  0.00    +0.000 A 
ATOM     12  C   UNL     1      48.852   6.937  17.792  0.00  0.00    +0.000 A 
ATOM     13  C   UNL     1      48.527   5.562  17.643  0.00  0.00    +0.000 A 
ATOM     14  C   UNL     1      48.381   4.443  18.449  0.00  0.00    +0.000 A 
ATOM     15 CL   UNL     1      48.630   4.594  20.121  0.00  0.00    +0.000 Cl
ATOM     16  N   UNL     1      48.059   3.238  17.960  0.00  0.00    +0.000 NA
ATOM     17  C   UNL     1      47.873   3.168  16.636  0.00  0.00    +0.000 A 
ATOM     18  N   UNL     1      47.963   4.162  15.736  0.00  0.00    +0.000 NA
ATOM     19  C   UNL     1      48.308   5.339  16.289  0.00  0.00    +0.000 A 
ENDBRANCH   9  10
ENDBRANCH   7   9
ENDBRANCH   1   7
BRANCH   4  20
ATOM     20  C   UNL     1      43.736   3.544  10.983  0.00  0.00    +0.000 C 
BRANCH  20  21
ATOM     21  N   UNL     1      43.951   3.337   9.547  0.00  0.00    +0.000 NA
ATOM     22  H   UNL     1      44.631   4.046   9.250  0.00  0.00    +0.000 HD
BRANCH  21  23
ATOM     23  C   UNL     1      44.558   2.025   9.263  0.00  0.00    +0.000 C 
BRANCH  23  24
ATOM     24  C   UNL     1      45.714   2.129   8.286  0.00  0.00    +0.000 A 
ATOM     25  C   UNL     1      45.993   3.334   7.644  0.00  0.00    +0.000 A 
ATOM     26  C   UNL     1      47.066   3.395   6.758  0.00  0.00    +0.000 A 
ATOM     27  C   UNL     1      47.830   2.256   6.538  0.00  0.00    +0.000 A 
ATOM     28  C   UNL     1      47.488   1.098   7.213  0.00  0.00    +0.000 A 
ATOM     29  N   UNL     1      46.451   1.007   8.075  0.00  0.00    +0.000 NA
ENDBRANCH  23  24
ENDBRANCH  21  23
ENDBRANCH  20  21
ENDBRANCH   4  20
TORSDOF 7
ENDMDL
MODEL 2
REMARK VINA RESULT:    -7.274      1.193      1.550
REMARK INTER + INTRA:         -11.320
REMARK INTER:                 -10.344
REMARK INTRA:                  -0.976
REMARK UNBOUND:                -1.069
REMARK  Name = 
REMARK  8 active torsions:
REMARK  status: ('A' for Active; 'I' for Inactive)
REMARK    1  A    between atoms: C_1  and  C_2
REMARK    2  A    between atoms: C_2  and  C_3
REMARK    3  A    between atoms: C_2  and  N_19
REMARK    4  A    between atoms: C_3  and  C_4
REMARK    5  A    between atoms: C_7  and  C_8
REMARK    6  A    between atoms: C_8  and  N_9
REMARK    7  A    between atoms: N_9  and  C_10
REMARK    8  A    between atoms: C_10  and  C_11
REMARK                            x       y       z     vdW  Elec       q    Type
REMARK                         _______ _______ _______ _____ _____    ______ ____
ROOT
ATOM      1  C   UNL     1      46.416   6.798  13.004  0.00  0.00    +0.000 A 
ATOM      2  C   UNL     1      46.418   5.435  13.292  0.00  0.00    +0.000 A 
ATOM      3  C   UNL     1      45.385   4.613  12.858  0.00  0.00    +0.000 A 
ATOM      4  C   UNL     1      44.353   5.179  12.126  0.00  0.00    +0.000 A 
ATOM      5  N   UNL     1      44.309   6.500  11.821  0.00  0.00    +0.000 NA
ATOM      6  C   UNL     1      45.334   7.271  12.267  0.00  0.00    +0.000 A 
ENDROOT
BRANCH   1   7
ATOM      7  C   UNL     1      47.519   7.740  13.439  0.00  0.00    +0.000 C 
BRANCH   7   9
ATOM      8  C   UNL     1      50.066   7.644  13.662  0.00  0.00    +0.000 C 
ATOM      9  C   UNL     1      48.732   7.085  14.156  0.00  0.00    +0.000 C 
BRANCH   9  10
ATOM     10  N   UNL     1      48.680   7.104  15.622  0.00  0.00    +0.000 N 
ATOM     11  C   UNL     1      48.776   8.260  16.374  0.00  0.00    +0.000 A 
ATOM     12  C   UNL     1      48.879   7.902  17.701  0.00  0.00    +0.000 A 
ATOM     13  C   UNL     1      48.820   6.484  17.768  0.00  0.00    +0.000 A 
ATOM     14  C   UNL     1      48.878   5.493  18.737  0.00  0.00    +0.000 A 
ATOM     15 CL   UNL     1      49.074   5.940  20.362  0.00  0.00    +0.000 Cl
ATOM     16  N   UNL     1      48.793   4.188  18.442  0.00  0.00    +0.000 NA
ATOM     17  C   UNL     1      48.640   3.885  17.146  0.00  0.00    +0.000 A 
ATOM     18  N   UNL     1      48.552   4.730  16.105  0.00  0.00    +0.000 NA
ATOM     19  C   UNL     1      48.662   6.020  16.468  0.00  0.00    +0.000 A 
ENDBRANCH   9  10
ENDBRANCH   7   9
ENDBRANCH   1   7
BRANCH   4  20
ATOM     20  C   UNL     1      43.256   4.272  11.600  0.00  0.00    +0.000 C 
BRANCH  20  21
ATOM     21  N   UNL     1      43.673   3.393  10.503  0.00  0.00    +0.000 NA
ATOM     22  H   UNL     1      42.831   2.899  10.190  0.00  0.00    +0.000 HD
BRANCH  21  23
ATOM     23  C   UNL     1      44.171   4.154   9.345  0.00  0.00    +0.000 C 
BRANCH  23  24
ATOM     24  C   UNL     1      45.213   3.383   8.557  0.00  0.00    +0.000 A 
ATOM     25  C   UNL     1      45.413   2.023   8.789  0.00  0.00    +0.000 A 
ATOM     26  C   UNL     1      46.373   1.344   8.043  0.00  0.00    +0.000 A 
ATOM     27  C   UNL     1      47.106   2.038   7.088  0.00  0.00    +0.000 A 
ATOM     28  C   UNL     1      46.848   3.387   6.919  0.00  0.00    +0.000 A 
ATOM     29  N   UNL     1      45.927   4.073   7.629  0.00  0.00    +0.000 NA
ENDBRANCH  23  24
ENDBRANCH  21  23
ENDBRANCH  20  21
ENDBRANCH   4  20
TORSDOF 7
ENDMDL
MODEL 3
REMARK VINA RESULT:    -6.882      3.798      5.416
REMARK INTER + INTRA:         -10.767
REMARK INTER:                  -9.908
REMARK INTRA:                  -0.859
REMARK UNBOUND:                -1.069
REMARK  Name = 
REMARK  8 active torsions:
REMARK  status: ('A' for Active; 'I' for Inactive)
REMARK    1  A    between atoms: C_1  and  C_2
REMARK    2  A    between atoms: C_2  and  C_3
REMARK    3  A    between atoms: C_2  and  N_19
REMARK    4  A    between atoms: C_3  and  C_4
REMARK    5  A    between atoms: C_7  and  C_8
REMARK    6  A    between atoms: C_8  and  N_9
REMARK    7  A    between atoms: N_9  and  C_10
REMARK    8  A    between atoms: C_10  and  C_11
REMARK                            x       y       z     vdW  Elec       q    Type
REMARK                         _______ _______ _______ _____ _____    ______ ____
ROOT
ATOM      1  C   UNL     1      46.619   6.291  13.122  0.00  0.00    +0.000 A 
ATOM      2  C   UNL     1      46.387   4.917  13.094  0.00  0.00    +0.000 A 
ATOM      3  C   UNL     1      45.375   4.381  12.309  0.00  0.00    +0.000 A 
ATOM      4  C   UNL     1      44.602   5.244  11.547  0.00  0.00    +0.000 A 
ATOM      5  N   UNL     1      44.792   6.587  11.542  0.00  0.00    +0.000 NA
ATOM      6  C   UNL     1      45.788   7.073  12.326  0.00  0.00    +0.000 A 
ENDROOT
BRANCH   1   7
ATOM      7  C   UNL     1      47.715   6.931  13.949  0.00  0.00    +0.000 C 
BRANCH   7   9
ATOM      8  C   UNL     1      48.335   9.058  15.227  0.00  0.00    +0.000 C 
ATOM      9  C   UNL     1      47.763   8.484  13.932  0.00  0.00    +0.000 C 
BRANCH   9  10
ATOM     10  N   UNL     1      48.432   9.079  12.769  0.00  0.00    +0.000 N 
ATOM     11  C   UNL     1      49.730   8.780  12.400  0.00  0.00    +0.000 A 
ATOM     12  C   UNL     1      50.099   9.644  11.391  0.00  0.00    +0.000 A 
ATOM     13  C   UNL     1      48.986  10.483  11.116  0.00  0.00    +0.000 A 
ATOM     14  C   UNL     1      48.672  11.539  10.273  0.00  0.00    +0.000 A 
ATOM     15 CL   UNL     1      49.852  12.113   9.198  0.00  0.00    +0.000 Cl
ATOM     16  N   UNL     1      47.471  12.134  10.278  0.00  0.00    +0.000 NA
ATOM     17  C   UNL     1      46.573  11.646  11.143  0.00  0.00    +0.000 A 
ATOM     18  N   UNL     1      46.726  10.626  12.004  0.00  0.00    +0.000 NA
ATOM     19  C   UNL     1      47.957  10.086  11.962  0.00  0.00    +0.000 A 
ENDBRANCH   9  10
ENDBRANCH   7   9
ENDBRANCH   1   7
BRANCH   4  20
ATOM     20  C   UNL     1      43.536   4.655  10.642  0.00  0.00    +0.000 C 
BRANCH  20  21
ATOM     21  N   UNL     1      44.029   4.219   9.332  0.00  0.00    +0.000 NA
ATOM     22  H   UNL     1      44.899   4.735   9.162  0.00  0.00    +0.000 HD
BRANCH  21  23
ATOM     23  C   UNL     1      44.380   2.788   9.322  0.00  0.00    +0.000 C 
BRANCH  23  24
ATOM     24  C   UNL     1      45.542   2.490   8.394  0.00  0.00    +0.000 A 
ATOM     25  C   UNL     1      46.104   3.499   7.614  0.00  0.00    +0.000 A 
ATOM     26  C   UNL     1      47.174   3.192   6.778  0.00  0.00    +0.000 A 
ATOM     27  C   UNL     1      47.655   1.889   6.744  0.00  0.00    +0.000 A 
ATOM     28  C   UNL     1      47.043   0.944   7.547  0.00  0.00    +0.000 A 
ATOM     29  N   UNL     1      46.001   1.211   8.365  0.00  0.00    +0.000 NA
ENDBRANCH  23  24
ENDBRANCH  21  23
ENDBRANCH  20  21
ENDBRANCH   4  20
TORSDOF 7
ENDMDL
MODEL 4
REMARK VINA RESULT:    -6.810      3.738      5.107
REMARK INTER + INTRA:         -10.665
REMARK INTER:                  -9.864
REMARK INTRA:                  -0.801
REMARK UNBOUND:                -1.069
REMARK  Name = 
REMARK  8 active torsions:
REMARK  status: ('A' for Active; 'I' for Inactive)
REMARK    1  A    between atoms: C_1  and  C_2
REMARK    2  A    between atoms: C_2  and  C_3
REMARK    3  A    between atoms: C_2  and  N_19
REMARK    4  A    between atoms: C_3  and  C_4
REMARK    5  A    between atoms: C_7  and  C_8
REMARK    6  A    between atoms: C_8  and  N_9
REMARK    7  A    between atoms: N_9  and  C_10
REMARK    8  A    between atoms: C_10  and  C_11
REMARK                            x       y       z     vdW  Elec       q    Type
REMARK                         _______ _______ _______ _____ _____    ______ ____
ROOT
ATOM      1  C   UNL     1      46.922   6.099  12.652  0.00  0.00    +0.000 A 
ATOM      2  C   UNL     1      46.232   5.148  13.400  0.00  0.00    +0.000 A 
ATOM      3  C   UNL     1      45.098   4.527  12.893  0.00  0.00    +0.000 A 
ATOM      4  C   UNL     1      44.670   4.870  11.620  0.00  0.00    +0.000 A 
ATOM      5  N   UNL     1      45.310   5.788  10.854  0.00  0.00    +0.000 NA
ATOM      6  C   UNL     1      46.411   6.378  11.387  0.00  0.00    +0.000 A 
ENDROOT
BRANCH   1   7
ATOM      7  C   UNL     1      48.170   6.800  13.147  0.00  0.00    +0.000 C 
BRANCH   7   9
ATOM      8  C   UNL     1      48.440   8.577  14.967  0.00  0.00    +0.000 C 
ATOM      9  C   UNL     1      48.005   8.298  13.529  0.00  0.00    +0.000 C 
BRANCH   9  10
ATOM     10  N   UNL     1      48.632   9.253  12.609  0.00  0.00    +0.000 N 
ATOM     11  C   UNL     1      47.929  10.218  11.914  0.00  0.00    +0.000 A 
ATOM     12  C   UNL     1      48.787  10.809  11.011  0.00  0.00    +0.000 A 
ATOM     13  C   UNL     1      50.063  10.205  11.174  0.00  0.00    +0.000 A 
ATOM     14  C   UNL     1      51.328  10.296  10.612  0.00  0.00    +0.000 A 
ATOM     15 CL   UNL     1      51.592  11.403   9.354  0.00  0.00    +0.000 Cl
ATOM     16  N   UNL     1      52.354   9.537  11.018  0.00  0.00    +0.000 NA
ATOM     17  C   UNL     1      52.097   8.678  12.013  0.00  0.00    +0.000 A 
ATOM     18  N   UNL     1      50.936   8.491  12.662  0.00  0.00    +0.000 NA
ATOM     19  C   UNL     1      49.943   9.269  12.194  0.00  0.00    +0.000 A 
ENDBRANCH   9  10
ENDBRANCH   7   9
ENDBRANCH   1   7
BRANCH   4  20
ATOM     20  C   UNL     1      43.468   4.148  11.041  0.00  0.00    +0.000 C 
BRANCH  20  21
ATOM     21  N   UNL     1      43.670   3.631   9.683  0.00  0.00    +0.000 NA
ATOM     22  H   UNL     1      44.215   4.340   9.181  0.00  0.00    +0.000 HD
BRANCH  21  23
ATOM     23  C   UNL     1      44.475   2.398   9.677  0.00  0.00    +0.000 C 
BRANCH  23  24
ATOM     24  C   UNL     1      45.507   2.393   8.565  0.00  0.00    +0.000 A 
ATOM     25  C   UNL     1      45.753   3.547   7.822  0.00  0.00    +0.000 A 
ATOM     26  C   UNL     1      46.713   3.509   6.814  0.00  0.00    +0.000 A 
ATOM     27  C   UNL     1      47.400   2.326   6.575  0.00  0.00    +0.000 A 
ATOM     28  C   UNL     1      47.097   1.224   7.355  0.00  0.00    +0.000 A 
ATOM     29  N   UNL     1      46.169   1.229   8.338  0.00  0.00    +0.000 NA
ENDBRANCH  23  24
ENDBRANCH  21  23
ENDBRANCH  20  21
ENDBRANCH   4  20
TORSDOF 7
ENDMDL
MODEL 5
REMARK VINA RESULT:    -6.529      3.168      4.206
REMARK INTER + INTRA:         -10.270
REMARK INTER:                  -9.511
REMARK INTRA:                  -0.759
REMARK UNBOUND:                -1.069
REMARK  Name = 
REMARK  8 active torsions:
REMARK  status: ('A' for Active; 'I' for Inactive)
REMARK    1  A    between atoms: C_1  and  C_2
REMARK    2  A    between atoms: C_2  and  C_3
REMARK    3  A    between atoms: C_2  and  N_19
REMARK    4  A    between atoms: C_3  and  C_4
REMARK    5  A    between atoms: C_7  and  C_8
REMARK    6  A    between atoms: C_8  and  N_9
REMARK    7  A    between atoms: N_9  and  C_10
REMARK    8  A    between atoms: C_10  and  C_11
REMARK                            x       y       z     vdW  Elec       q    Type
REMARK                         _______ _______ _______ _____ _____    ______ ____
ROOT
ATOM      1  C   UNL     1      45.736   6.860  12.517  0.00  0.00    +0.000 A 
ATOM      2  C   UNL     1      44.746   6.211  13.252  0.00  0.00    +0.000 A 
ATOM      3  C   UNL     1      44.024   5.159  12.704  0.00  0.00    +0.000 A 
ATOM      4  C   UNL     1      44.314   4.763  11.407  0.00  0.00    +0.000 A 
ATOM      5  N   UNL     1      45.269   5.364  10.654  0.00  0.00    +0.000 NA
ATOM      6  C   UNL     1      45.950   6.392  11.224  0.00  0.00    +0.000 A 
ENDROOT
BRANCH   1   7
ATOM      7  C   UNL     1      46.564   8.003  13.066  0.00  0.00    +0.000 C 
BRANCH   7   9
ATOM      8  C   UNL     1      47.961   6.125  14.097  0.00  0.00    +0.000 C 
ATOM      9  C   UNL     1      47.907   7.610  13.741  0.00  0.00    +0.000 C 
BRANCH   9  10
ATOM     10  N   UNL     1      49.116   8.005  13.009  0.00  0.00    +0.000 N 
ATOM     11  C   UNL     1      49.171   8.125  11.634  0.00  0.00    +0.000 A 
ATOM     12  C   UNL     1      50.486   8.324  11.272  0.00  0.00    +0.000 A 
ATOM     13  C   UNL     1      51.259   8.351  12.463  0.00  0.00    +0.000 A 
ATOM     14  C   UNL     1      52.590   8.490  12.828  0.00  0.00    +0.000 A 
ATOM     15 CL   UNL     1      53.759   8.695  11.614  0.00  0.00    +0.000 Cl
ATOM     16  N   UNL     1      52.997   8.461  14.104  0.00  0.00    +0.000 NA
ATOM     17  C   UNL     1      52.039   8.297  15.025  0.00  0.00    +0.000 A 
ATOM     18  N   UNL     1      50.716   8.166  14.827  0.00  0.00    +0.000 NA
ATOM     19  C   UNL     1      50.378   8.185  13.525  0.00  0.00    +0.000 A 
ENDBRANCH   9  10
ENDBRANCH   7   9
ENDBRANCH   1   7
BRANCH   4  20
ATOM     20  C   UNL     1      43.569   3.576  10.828  0.00  0.00    +0.000 C 
BRANCH  20  21
ATOM     21  N   UNL     1      43.929   3.254   9.443  0.00  0.00    +0.000 NA
ATOM     22  H   UNL     1      44.533   4.015   9.116  0.00  0.00    +0.000 HD
BRANCH  21  23
ATOM     23  C   UNL     1      44.724   2.017   9.353  0.00  0.00    +0.000 C 
BRANCH  23  24
ATOM     24  C   UNL     1      45.774   2.089   8.261  0.00  0.00    +0.000 A 
ATOM     25  C   UNL     1      45.954   3.261   7.528  0.00  0.00    +0.000 A 
ATOM     26  C   UNL     1      46.932   3.295   6.537  0.00  0.00    +0.000 A 
ATOM     27  C   UNL     1      47.702   2.162   6.305  0.00  0.00    +0.000 A 
ATOM     28  C   UNL     1      47.461   1.038   7.075  0.00  0.00    +0.000 A 
ATOM     29  N   UNL     1      46.518   0.974   8.040  0.00  0.00    +0.000 NA
ENDBRANCH  23  24
ENDBRANCH  21  23
ENDBRANCH  20  21
ENDBRANCH   4  20
TORSDOF 7
ENDMDL
MODEL 6
REMARK VINA RESULT:    -6.478      3.294      4.129
REMARK INTER + INTRA:         -10.199
REMARK INTER:                  -9.194
REMARK INTRA:                  -1.005
REMARK UNBOUND:                -1.069
REMARK  Name = 
REMARK  8 active torsions:
REMARK  status: ('A' for Active; 'I' for Inactive)
REMARK    1  A    between atoms: C_1  and  C_2
REMARK    2  A    between atoms: C_2  and  C_3
REMARK    3  A    between atoms: C_2  and  N_19
REMARK    4  A    between atoms: C_3  and  C_4
REMARK    5  A    between atoms: C_7  and  C_8
REMARK    6  A    between atoms: C_8  and  N_9
REMARK    7  A    between atoms: N_9  and  C_10
REMARK    8  A    between atoms: C_10  and  C_11
REMARK                            x       y       z     vdW  Elec       q    Type
REMARK                         _______ _______ _______ _____ _____    ______ ____
ROOT
ATOM      1  C   UNL     1      45.856   7.434  12.495  0.00  0.00    +0.000 A 
ATOM      2  C   UNL     1      46.345   6.370  13.249  0.00  0.00    +0.000 A 
ATOM      3  C   UNL     1      46.028   5.058  12.919  0.00  0.00    +0.000 A 
ATOM      4  C   UNL     1      45.217   4.830  11.819  0.00  0.00    +0.000 A 
ATOM      5  N   UNL     1      44.719   5.835  11.055  0.00  0.00    +0.000 NA
ATOM      6  C   UNL     1      45.048   7.103  11.411  0.00  0.00    +0.000 A 
ENDROOT
BRANCH   1   7
ATOM      7  C   UNL     1      46.178   8.883  12.798  0.00  0.00    +0.000 C 
BRANCH   7   9
ATOM      8  C   UNL     1      47.500  10.910  11.969  0.00  0.00    +0.000 C 
ATOM      9  C   UNL     1      47.535   9.409  12.251  0.00  0.00    +0.000 C 
BRANCH   9  10
ATOM     10  N   UNL     1      48.712   9.066  13.057  0.00  0.00    +0.000 N 
ATOM     11  C   UNL     1      48.729   9.109  14.438  0.00  0.00    +0.000 A 
ATOM     12  C   UNL     1      50.028   8.913  14.858  0.00  0.00    +0.000 A 
ATOM     13  C   UNL     1      50.828   8.721  13.700  0.00  0.00    +0.000 A 
ATOM     14  C   UNL     1      52.162   8.499  13.392  0.00  0.00    +0.000 A 
ATOM     15 CL   UNL     1      53.293   8.403  14.653  0.00  0.00    +0.000 Cl
ATOM     16  N   UNL     1      52.600   8.364  12.133  0.00  0.00    +0.000 NA
ATOM     17  C   UNL     1      51.670   8.447  11.172  0.00  0.00    +0.000 A 
ATOM     18  N   UNL     1      50.349   8.641  11.317  0.00  0.00    +0.000 NA
ATOM     19  C   UNL     1      49.979   8.787  12.602  0.00  0.00    +0.000 A 
ENDBRANCH   9  10
ENDBRANCH   7   9
ENDBRANCH   1   7
BRANCH   4  20
ATOM     20  C   UNL     1      44.919   3.396  11.422  0.00  0.00    +0.000 C 
BRANCH  20  21
ATOM     21  N   UNL     1      44.113   3.262  10.204  0.00  0.00    +0.000 NA
ATOM     22  H   UNL     1      44.385   4.037   9.589  0.00  0.00    +0.000 HD
BRANCH  21  23
ATOM     23  C   UNL     1      44.419   2.019   9.475  0.00  0.00    +0.000 C 
BRANCH  23  24
ATOM     24  C   UNL     1      45.522   2.211   8.452  0.00  0.00    +0.000 A 
ATOM     25  C   UNL     1      45.704   3.445   7.829  0.00  0.00    +0.000 A 
ATOM     26  C   UNL     1      46.731   3.588   6.900  0.00  0.00    +0.000 A 
ATOM     27  C   UNL     1      47.548   2.500   6.619  0.00  0.00    +0.000 A 
ATOM     28  C   UNL     1      47.302   1.309   7.278  0.00  0.00    +0.000 A 
ATOM     29  N   UNL     1      46.312   1.139   8.182  0.00  0.00    +0.000 NA
ENDBRANCH  23  24
ENDBRANCH  21  23
ENDBRANCH  20  21
ENDBRANCH   4  20
TORSDOF 7
ENDMDL
MODEL 7
REMARK VINA RESULT:    -6.263      3.622      7.730
REMARK INTER + INTRA:          -9.895
REMARK INTER:                  -8.560
REMARK INTRA:                  -1.335
REMARK UNBOUND:                -1.069
REMARK  Name = 
REMARK  8 active torsions:
REMARK  status: ('A' for Active; 'I' for Inactive)
REMARK    1  A    between atoms: C_1  and  C_2
REMARK    2  A    between atoms: C_2  and  C_3
REMARK    3  A    between atoms: C_2  and  N_19
REMARK    4  A    between atoms: C_3  and  C_4
REMARK    5  A    between atoms: C_7  and  C_8
REMARK    6  A    between atoms: C_8  and  N_9
REMARK    7  A    between atoms: N_9  and  C_10
REMARK    8  A    between atoms: C_10  and  C_11
REMARK                            x       y       z     vdW  Elec       q    Type
REMARK                         _______ _______ _______ _____ _____    ______ ____
ROOT
ATOM      1  C   UNL     1      48.586   8.128  13.735  0.00  0.00    +0.000 A 
ATOM      2  C   UNL     1      48.147   8.285  15.048  0.00  0.00    +0.000 A 
ATOM      3  C   UNL     1      49.015   8.100  16.117  0.00  0.00    +0.000 A 
ATOM      4  C   UNL     1      50.331   7.762  15.848  0.00  0.00    +0.000 A 
ATOM      5  N   UNL     1      50.804   7.600  14.587  0.00  0.00    +0.000 NA
ATOM      6  C   UNL     1      49.924   7.784  13.569  0.00  0.00    +0.000 A 
ENDROOT
BRANCH   1   7
ATOM      7  C   UNL     1      47.690   8.329  12.530  0.00  0.00    +0.000 C 
BRANCH   7   9
ATOM      8  C   UNL     1      45.474   9.595  12.363  0.00  0.00    +0.000 C 
ATOM      9  C   UNL     1      46.161   8.304  12.806  0.00  0.00    +0.000 C 
BRANCH   9  10
ATOM     10  N   UNL     1      45.447   7.136  12.278  0.00  0.00    +0.000 N 
ATOM     11  C   UNL     1      44.339   7.226  11.456  0.00  0.00    +0.000 A 
ATOM     12  C   UNL     1      43.814   5.961  11.304  0.00  0.00    +0.000 A 
ATOM     13  C   UNL     1      44.637   5.063  12.035  0.00  0.00    +0.000 A 
ATOM     14  C   UNL     1      44.686   3.707  12.321  0.00  0.00    +0.000 A 
ATOM     15 CL   UNL     1      43.486   2.688  11.689  0.00  0.00    +0.000 Cl
ATOM     16  N   UNL     1      45.643   3.165  13.087  0.00  0.00    +0.000 NA
ATOM     17  C   UNL     1      46.568   4.008  13.563  0.00  0.00    +0.000 A 
ATOM     18  N   UNL     1      46.659   5.333  13.359  0.00  0.00    +0.000 NA
ATOM     19  C   UNL     1      45.660   5.816  12.599  0.00  0.00    +0.000 A 
ENDBRANCH   9  10
ENDBRANCH   7   9
ENDBRANCH   1   7
BRANCH   4  20
ATOM     20  C   UNL     1      51.295   7.619  17.011  0.00  0.00    +0.000 C 
BRANCH  20  21
ATOM     21  N   UNL     1      50.840   6.704  18.063  0.00  0.00    +0.000 NA
ATOM     22  H   UNL     1      49.826   6.837  18.145  0.00  0.00    +0.000 HD
BRANCH  21  23
ATOM     23  C   UNL     1      51.052   5.293  17.697  0.00  0.00    +0.000 C 
BRANCH  23  24
ATOM     24  C   UNL     1      49.745   4.539  17.542  0.00  0.00    +0.000 A 
ATOM     25  C   UNL     1      48.547   5.100  17.981  0.00  0.00    +0.000 A 
ATOM     26  C   UNL     1      47.365   4.383  17.816  0.00  0.00    +0.000 A 
ATOM     27  C   UNL     1      47.409   3.129  17.219  0.00  0.00    +0.000 A 
ATOM     28  C   UNL     1      48.638   2.642  16.811  0.00  0.00    +0.000 A 
ATOM     29  N   UNL     1      49.801   3.312  16.960  0.00  0.00    +0.000 NA
ENDBRANCH  23  24
ENDBRANCH  21  23
ENDBRANCH  20  21
ENDBRANCH   4  20
TORSDOF 7
ENDMDL
MODEL 8
REMARK VINA RESULT:    -6.240      1.690      2.725
REMARK INTER + INTRA:          -9.863
REMARK INTER:                  -9.073
REMARK INTRA:                  -0.790
REMARK UNBOUND:                -1.069
REMARK  Name = 
REMARK  8 active torsions:
REMARK  status: ('A' for Active; 'I' for Inactive)
REMARK    1  A    between atoms: C_1  and  C_2
REMARK    2  A    between atoms: C_2  and  C_3
REMARK    3  A    between atoms: C_2  and  N_19
REMARK    4  A    between atoms: C_3  and  C_4
REMARK    5  A    between atoms: C_7  and  C_8
REMARK    6  A    between atoms: C_8  and  N_9
REMARK    7  A    between atoms: N_9  and  C_10
REMARK    8  A    between atoms: C_10  and  C_11
REMARK                            x       y       z     vdW  Elec       q    Type
REMARK                         _______ _______ _______ _____ _____    ______ ____
ROOT
ATOM      1  C   UNL     1      48.956   7.557  14.006  0.00  0.00    +0.000 A 
ATOM      2  C   UNL     1      48.110   6.474  14.234  0.00  0.00    +0.000 A 
ATOM      3  C   UNL     1      47.202   6.062  13.267  0.00  0.00    +0.000 A 
ATOM      4  C   UNL     1      47.158   6.751  12.065  0.00  0.00    +0.000 A 
ATOM      5  N   UNL     1      47.962   7.811  11.798  0.00  0.00    +0.000 NA
ATOM      6  C   UNL     1      48.834   8.185  12.770  0.00  0.00    +0.000 A 
ENDROOT
BRANCH   1   7
ATOM      7  C   UNL     1      49.975   8.042  15.017  0.00  0.00    +0.000 C 
BRANCH   7   9
ATOM      8  C   UNL     1      52.208   7.178  15.917  0.00  0.00    +0.000 C 
ATOM      9  C   UNL     1      50.701   6.939  15.837  0.00  0.00    +0.000 C 
BRANCH   9  10
ATOM     10  N   UNL     1      50.150   6.686  17.173  0.00  0.00    +0.000 N 
ATOM     11  C   UNL     1      50.258   7.577  18.224  0.00  0.00    +0.000 A 
ATOM     12  C   UNL     1      49.805   6.951  19.366  0.00  0.00    +0.000 A 
ATOM     13  C   UNL     1      49.384   5.645  19.000  0.00  0.00    +0.000 A 
ATOM     14  C   UNL     1      48.860   4.518  19.617  0.00  0.00    +0.000 A 
ATOM     15 CL   UNL     1      48.583   4.550  21.291  0.00  0.00    +0.000 Cl
ATOM     16  N   UNL     1      48.569   3.396  18.945  0.00  0.00    +0.000 NA
ATOM     17  C   UNL     1      48.804   3.419  17.626  0.00  0.00    +0.000 A 
ATOM     18  N   UNL     1      49.290   4.434  16.893  0.00  0.00    +0.000 NA
ATOM     19  C   UNL     1      49.579   5.522  17.629  0.00  0.00    +0.000 A 
ENDBRANCH   9  10
ENDBRANCH   7   9
ENDBRANCH   1   7
BRANCH   4  20
ATOM     20  C   UNL     1      46.209   6.266  10.986  0.00  0.00    +0.000 C 
BRANCH  20  21
ATOM     21  N   UNL     1      45.348   5.152  11.395  0.00  0.00    +0.000 NA
ATOM     22  H   UNL     1      44.754   5.506  12.152  0.00  0.00    +0.000 HD
BRANCH  21  23
ATOM     23  C   UNL     1      44.444   4.727  10.312  0.00  0.00    +0.000 C 
BRANCH  23  24
ATOM     24  C   UNL     1      45.146   3.858   9.287  0.00  0.00    +0.000 A 
ATOM     25  C   UNL     1      45.192   2.473   9.443  0.00  0.00    +0.000 A 
ATOM     26  C   UNL     1      45.839   1.705   8.479  0.00  0.00    +0.000 A 
ATOM     27  C   UNL     1      46.421   2.336   7.387  0.00  0.00    +0.000 A 
ATOM     28  C   UNL     1      46.333   3.715   7.305  0.00  0.00    +0.000 A 
ATOM     29  N   UNL     1      45.716   4.487   8.225  0.00  0.00    +0.000 NA
ENDBRANCH  23  24
ENDBRANCH  21  23
ENDBRANCH  20  21
ENDBRANCH   4  20
TORSDOF 7
ENDMDL
MODEL 9
REMARK VINA RESULT:    -6.126      3.116      9.343
REMARK INTER + INTRA:          -9.702
REMARK INTER:                  -9.140
REMARK INTRA:                  -0.562
REMARK UNBOUND:                -1.069
REMARK  Name = 
REMARK  8 active torsions:
REMARK  status: ('A' for Active; 'I' for Inactive)
REMARK    1  A    between atoms: C_1  and  C_2
REMARK    2  A    between atoms: C_2  and  C_3
REMARK    3  A    between atoms: C_2  and  N_19
REMARK    4  A    between atoms: C_3  and  C_4
REMARK    5  A    between atoms: C_7  and  C_8
REMARK    6  A    between atoms: C_8  and  N_9
REMARK    7  A    between atoms: N_9  and  C_10
REMARK    8  A    between atoms: C_10  and  C_11
REMARK                            x       y       z     vdW  Elec       q    Type
REMARK                         _______ _______ _______ _____ _____    ______ ____
ROOT
ATOM      1  C   UNL     1      47.203   5.844  13.929  0.00  0.00    +0.000 A 
ATOM      2  C   UNL     1      48.136   6.444  14.772  0.00  0.00    +0.000 A 
ATOM      3  C   UNL     1      48.525   5.830  15.956  0.00  0.00    +0.000 A 
ATOM      4  C   UNL     1      47.968   4.603  16.279  0.00  0.00    +0.000 A 
ATOM      5  N   UNL     1      47.057   3.981  15.489  0.00  0.00    +0.000 NA
ATOM      6  C   UNL     1      46.699   4.615  14.342  0.00  0.00    +0.000 A 
ENDROOT
BRANCH   1   7
ATOM      7  C   UNL     1      46.750   6.459  12.620  0.00  0.00    +0.000 C 
BRANCH   7   9
ATOM      8  C   UNL     1      44.750   7.676  11.592  0.00  0.00    +0.000 C 
ATOM      9  C   UNL     1      45.220   6.435  12.349  0.00  0.00    +0.000 C 
BRANCH   9  10
ATOM     10  N   UNL     1      44.716   5.219  11.703  0.00  0.00    +0.000 N 
ATOM     11  C   UNL     1      43.920   4.288  12.343  0.00  0.00    +0.000 A 
ATOM     12  C   UNL     1      43.788   3.193  11.515  0.00  0.00    +0.000 A 
ATOM     13  C   UNL     1      44.506   3.471  10.320  0.00  0.00    +0.000 A 
ATOM     14  C   UNL     1      44.799   2.837   9.122  0.00  0.00    +0.000 A 
ATOM     15 CL   UNL     1      44.202   1.272   8.849  0.00  0.00    +0.000 Cl
ATOM     16  N   UNL     1      45.546   3.409   8.167  0.00  0.00    +0.000 NA
ATOM     17  C   UNL     1      45.995   4.643   8.428  0.00  0.00    +0.000 A 
ATOM     18  N   UNL     1      45.781   5.384   9.528  0.00  0.00    +0.000 NA
ATOM     19  C   UNL     1      45.041   4.746  10.453  0.00  0.00    +0.000 A 
ENDBRANCH   9  10
ENDBRANCH   7   9
ENDBRANCH   1   7
BRANCH   4  20
ATOM     20  C   UNL     1      48.436   3.904  17.541  0.00  0.00    +0.000 C 
BRANCH  20  21
ATOM     21  N   UNL     1      47.692   4.275  18.749  0.00  0.00    +0.000 NA
ATOM     22  H   UNL     1      47.332   3.402  19.148  0.00  0.00    +0.000 HD
BRANCH  21  23
ATOM     23  C   UNL     1      48.564   4.878  19.771  0.00  0.00    +0.000 C 
BRANCH  23  24
ATOM     24  C   UNL     1      48.099   6.264  20.176  0.00  0.00    +0.000 A 
ATOM     25  C   UNL     1      47.735   6.533  21.494  0.00  0.00    +0.000 A 
ATOM     26  C   UNL     1      47.320   7.818  21.832  0.00  0.00    +0.000 A 
ATOM     27  C   UNL     1      47.280   8.799  20.849  0.00  0.00    +0.000 A 
ATOM     28  C   UNL     1      47.657   8.452  19.563  0.00  0.00    +0.000 A 
ATOM     29  N   UNL     1      48.060   7.214  19.205  0.00  0.00    +0.000 NA
ENDBRANCH  23  24
ENDBRANCH  21  23
ENDBRANCH  20  21
ENDBRANCH   4  20
TORSDOF 7
ENDMDL
