MODEL 1
REMARK VINA RESULT:    -7.884      0.000      0.000
REMARK INTER + INTRA:         -12.390
REMARK INTER:                 -11.571
REMARK INTRA:                  -0.819
REMARK UNBOUND:                -0.819
REMARK  Name = 
REMARK  8 active torsions:
REMARK  status: ('A' for Active; 'I' for Inactive)
REMARK    1  A    between atoms: C_2  and  O_3
REMARK    2  A    between atoms: C_2  and  C_20
REMARK    3  A    between atoms: O_3  and  C_4
REMARK    4  A    between atoms: C_4  and  C_5
REMARK    5  A    between atoms: C_8  and  C_9
REMARK    6  A    between atoms: C_9  and  C_10
REMARK    7  A    between atoms: C_10  and  O_11
REMARK    8  A    between atoms: O_11  and  C_12
REMARK                            x       y       z     vdW  Elec       q    Type
REMARK                         _______ _______ _______ _____ _____    ______ ____
ROOT
ATOM      1  C   UNL     1      46.565   4.743  13.745  0.00  0.00    +0.000 A 
ATOM      2  C   UNL     1      45.894   3.623  13.256  0.00  0.00    +0.000 A 
ATOM      3  C   UNL     1      45.136   3.713  12.090  0.00  0.00    +0.000 A 
ATOM      4  C   UNL     1      45.025   4.926  11.389  0.00  0.00    +0.000 A 
ATOM      5  C   UNL     1      45.704   6.045  11.884  0.00  0.00    +0.000 A 
ATOM      6  C   UNL     1      46.460   5.957  13.051  0.00  0.00    +0.000 A 
ENDROOT
BRANCH   1   7
ATOM      7  C   UNL     1      47.371   4.641  15.006  0.00  0.00    +0.000 C 
BRANCH   7   8
ATOM      8  O   UNL     1      46.994   3.450  15.690  0.00  0.00    +0.000 OA
BRANCH   8  10
ATOM      9  O   UNL     1      46.976   3.214  17.969  0.00  0.00    +0.000 OA
ATOM     10  C   UNL     1      47.579   3.235  16.902  0.00  0.00    +0.000 C 
BRANCH  10  11
ATOM     11  C   UNL     1      48.985   2.849  16.756  0.00  0.00    +0.000 A 
ATOM     12  N   UNL     1      49.373   1.664  16.238  0.00  0.00    +0.000 NA
ATOM     13  N   UNL     1      50.651   1.550  16.630  0.00  0.00    +0.000 N 
ATOM     14  C   UNL     1      51.074   2.573  17.433  0.00  0.00    +0.000 A 
ATOM     15  C   UNL     1      52.193   2.714  18.256  0.00  0.00    +0.000 A 
ATOM     16  C   UNL     1      52.332   3.936  18.924  0.00  0.00    +0.000 A 
ATOM     17  C   UNL     1      51.433   4.983  18.717  0.00  0.00    +0.000 A 
ATOM     18  C   UNL     1      50.295   4.800  17.927  0.00  0.00    +0.000 A 
ATOM     19  C   UNL     1      50.087   3.542  17.332  0.00  0.00    +0.000 A 
ATOM     20  H   UNL     1      51.161   0.715  16.363  0.00  0.00    +0.000 HD
ENDBRANCH  10  11
ENDBRANCH   8  10
ENDBRANCH   7   8
ENDBRANCH   1   7
BRANCH   4  21
ATOM     21  C   UNL     1      44.198   5.069  10.126  0.00  0.00    +0.000 C 
BRANCH  21  22
ATOM     22  C   UNL     1      44.427   3.948   9.114  0.00  0.00    +0.000 C 
BRANCH  22  23
ATOM     23  O   UNL     1      45.236   4.378   8.022  0.00  0.00    +0.000 OA
BRANCH  23  24
ATOM     24  C   UNL     1      45.977   3.310   7.558  0.00  0.00    +0.000 A 
ATOM     25  N   UNL     1      45.886   2.186   8.275  0.00  0.00    +0.000 NA
ATOM     26  C   UNL     1      46.643   1.155   7.843  0.00  0.00    +0.000 A 
ATOM     27  C   UNL     1      47.455   1.221   6.733  0.00  0.00    +0.000 A 
ATOM     28  C   UNL     1      47.457   2.410   6.063  0.00  0.00    +0.000 A 
ATOM     29  N   UNL     1      46.734   3.470   6.448  0.00  0.00    +0.000 NA
ENDBRANCH  23  24
ENDBRANCH  22  23
ENDBRANCH  21  22
ENDBRANCH   4  21
TORSDOF 8
ENDMDL
MODEL 2
REMARK VINA RESULT:    -7.870      1.438      1.946
REMARK INTER + INTRA:         -12.369
REMARK INTER:                 -11.609
REMARK INTRA:                  -0.760
REMARK UNBOUND:                -0.819
REMARK  Name = 
REMARK  8 active torsions:
REMARK  status: ('A' for Active; 'I' for Inactive)
REMARK    1  A    between atoms: C_2  and  O_3
REMARK    2  A    between atoms: C_2  and  C_20
REMARK    3  A    between atoms: O_3  and  C_4
REMARK    4  A    between atoms: C_4  and  C_5
REMARK    5  A    between atoms: C_8  and  C_9
REMARK    6  A    between atoms: C_9  and  C_10
REMARK    7  A    between atoms: C_10  and  O_11
REMARK    8  A    between atoms: O_11  and  C_12
REMARK                            x       y       z     vdW  Elec       q    Type
REMARK                         _______ _______ _______ _____ _____    ______ ____
ROOT
ATOM      1  C   UNL     1      46.626   5.148  13.632  0.00  0.00    +0.000 A 
ATOM      2  C   UNL     1      46.137   6.250  12.932  0.00  0.00    +0.000 A 
ATOM      3  C   UNL     1      45.208   6.075  11.908  0.00  0.00    +0.000 A 
ATOM      4  C   UNL     1      44.750   4.793  11.555  0.00  0.00    +0.000 A 
ATOM      5  C   UNL     1      45.244   3.693  12.264  0.00  0.00    +0.000 A 
ATOM      6  C   UNL     1      46.175   3.867  13.287  0.00  0.00    +0.000 A 
ENDROOT
BRANCH   1   7
ATOM      7  C   UNL     1      47.634   5.344  14.726  0.00  0.00    +0.000 C 
BRANCH   7   8
ATOM      8  O   UNL     1      47.973   4.069  15.263  0.00  0.00    +0.000 OA
BRANCH   8  10
ATOM      9  O   UNL     1      46.520   3.330  16.873  0.00  0.00    +0.000 OA
ATOM     10  C   UNL     1      47.592   3.830  16.548  0.00  0.00    +0.000 C 
BRANCH  10  11
ATOM     11  C   UNL     1      48.691   4.073  17.486  0.00  0.00    +0.000 A 
ATOM     12  N   UNL     1      48.866   5.248  18.128  0.00  0.00    +0.000 NA
ATOM     13  N   UNL     1      50.136   5.191  18.556  0.00  0.00    +0.000 N 
ATOM     14  C   UNL     1      50.801   4.065  18.156  0.00  0.00    +0.000 A 
ATOM     15  C   UNL     1      52.158   3.735  18.142  0.00  0.00    +0.000 A 
ATOM     16  C   UNL     1      52.489   2.455  17.686  0.00  0.00    +0.000 A 
ATOM     17  C   UNL     1      51.504   1.532  17.334  0.00  0.00    +0.000 A 
ATOM     18  C   UNL     1      50.157   1.902  17.310  0.00  0.00    +0.000 A 
ATOM     19  C   UNL     1      49.816   3.220  17.665  0.00  0.00    +0.000 A 
ATOM     20  H   UNL     1      50.506   5.985  19.067  0.00  0.00    +0.000 HD
ENDBRANCH  10  11
ENDBRANCH   8  10
ENDBRANCH   7   8
ENDBRANCH   1   7
BRANCH   4  21
ATOM     21  C   UNL     1      43.752   4.559  10.438  0.00  0.00    +0.000 C 
BRANCH  21  22
ATOM     22  C   UNL     1      44.387   4.047   9.147  0.00  0.00    +0.000 C 
BRANCH  22  23
ATOM     23  O   UNL     1      44.578   2.635   9.175  0.00  0.00    +0.000 OA
BRANCH  23  24
ATOM     24  C   UNL     1      45.639   2.304   8.356  0.00  0.00    +0.000 A 
ATOM     25  N   UNL     1      45.946   1.004   8.303  0.00  0.00    +0.000 NA
ATOM     26  C   UNL     1      47.008   0.687   7.534  0.00  0.00    +0.000 A 
ATOM     27  C   UNL     1      47.741   1.614   6.828  0.00  0.00    +0.000 A 
ATOM     28  C   UNL     1      47.328   2.911   6.938  0.00  0.00    +0.000 A 
ATOM     29  N   UNL     1      46.287   3.288   7.691  0.00  0.00    +0.000 NA
ENDBRANCH  23  24
ENDBRANCH  22  23
ENDBRANCH  21  22
ENDBRANCH   4  21
TORSDOF 8
ENDMDL
MODEL 3
REMARK VINA RESULT:    -7.762      2.437      8.814
REMARK INTER + INTRA:         -12.211
REMARK INTER:                 -11.298
REMARK INTRA:                  -0.913
REMARK UNBOUND:                -0.819
REMARK  Name = 
REMARK  8 active torsions:
REMARK  status: ('A' for Active; 'I' for Inactive)
REMARK    1  A    between atoms: C_2  and  O_3
REMARK    2  A    between atoms: C_2  and  C_20
REMARK    3  A    between atoms: O_3  and  C_4
REMARK    4  A    between atoms: C_4  and  C_5
REMARK    5  A    between atoms: C_8  and  C_9
REMARK    6  A    between atoms: C_9  and  C_10
REMARK    7  A    between atoms: C_10  and  O_11
REMARK    8  A    between atoms: O_11  and  C_12
REMARK                            x       y       z     vdW  Elec       q    Type
REMARK                         _______ _______ _______ _____ _____    ______ ____
ROOT
ATOM      1  C   UNL     1      46.386   7.226  12.429  0.00  0.00    +0.000 A 
ATOM      2  C   UNL     1      47.333   6.214  12.587  0.00  0.00    +0.000 A 
ATOM      3  C   UNL     1      48.407   6.387  13.456  0.00  0.00    +0.000 A 
ATOM      4  C   UNL     1      48.566   7.579  14.185  0.00  0.00    +0.000 A 
ATOM      5  C   UNL     1      47.611   8.588  14.025  0.00  0.00    +0.000 A 
ATOM      6  C   UNL     1      46.536   8.417  13.153  0.00  0.00    +0.000 A 
ENDROOT
BRANCH   1   7
ATOM      7  C   UNL     1      45.237   7.036  11.484  0.00  0.00    +0.000 C 
BRANCH   7   8
ATOM      8  O   UNL     1      45.187   5.665  11.100  0.00  0.00    +0.000 OA
BRANCH   8  10
ATOM      9  O   UNL     1      42.898   5.747  11.056  0.00  0.00    +0.000 OA
ATOM     10  C   UNL     1      43.950   5.144  10.872  0.00  0.00    +0.000 C 
BRANCH  10  11
ATOM     11  C   UNL     1      44.034   3.841  10.206  0.00  0.00    +0.000 A 
ATOM     12  N   UNL     1      43.568   2.701  10.758  0.00  0.00    +0.000 NA
ATOM     13  N   UNL     1      44.164   1.735  10.043  0.00  0.00    +0.000 N 
ATOM     14  C   UNL     1      45.044   2.206   9.108  0.00  0.00    +0.000 A 
ATOM     15  C   UNL     1      46.044   1.577   8.364  0.00  0.00    +0.000 A 
ATOM     16  C   UNL     1      46.746   2.375   7.453  0.00  0.00    +0.000 A 
ATOM     17  C   UNL     1      46.410   3.714   7.252  0.00  0.00    +0.000 A 
ATOM     18  C   UNL     1      45.439   4.332   8.043  0.00  0.00    +0.000 A 
ATOM     19  C   UNL     1      44.796   3.569   9.035  0.00  0.00    +0.000 A 
ATOM     20  H   UNL     1      43.972   0.770  10.287  0.00  0.00    +0.000 HD
ENDBRANCH  10  11
ENDBRANCH   8  10
ENDBRANCH   7   8
ENDBRANCH   1   7
BRANCH   4  21
ATOM     21  C   UNL     1      49.729   7.812  15.130  0.00  0.00    +0.000 C 
BRANCH  21  22
ATOM     22  C   UNL     1      49.548   7.158  16.498  0.00  0.00    +0.000 C 
BRANCH  22  23
ATOM     23  O   UNL     1      50.209   5.898  16.573  0.00  0.00    +0.000 OA
BRANCH  23  24
ATOM     24  C   UNL     1      49.290   4.920  16.893  0.00  0.00    +0.000 A 
ATOM     25  N   UNL     1      49.755   3.667  16.901  0.00  0.00    +0.000 NA
ATOM     26  C   UNL     1      48.845   2.708  17.175  0.00  0.00    +0.000 A 
ATOM     27  C   UNL     1      47.521   2.971  17.445  0.00  0.00    +0.000 A 
ATOM     28  C   UNL     1      47.158   4.287  17.430  0.00  0.00    +0.000 A 
ATOM     29  N   UNL     1      48.013   5.281  17.157  0.00  0.00    +0.000 NA
ENDBRANCH  23  24
ENDBRANCH  22  23
ENDBRANCH  21  22
ENDBRANCH   4  21
TORSDOF 8
ENDMDL
MODEL 4
REMARK VINA RESULT:    -7.682      2.299      3.338
REMARK INTER + INTRA:         -12.094
REMARK INTER:                 -10.725
REMARK INTRA:                  -1.369
REMARK UNBOUND:                -0.819
REMARK  Name = 
REMARK  8 active torsions:
REMARK  status: ('A' for Active; 'I' for Inactive)
REMARK    1  A    between atoms: C_2  and  O_3
REMARK    2  A    between atoms: C_2  and  C_20
REMARK    3  A    between atoms: O_3  and  C_4
REMARK    4  A    between atoms: C_4  and  C_5
REMARK    5  A    between atoms: C_8  and  C_9
REMARK    6  A    between atoms: C_9  and  C_10
REMARK    7  A    between atoms: C_10  and  O_11
REMARK    8  A    between atoms: O_11  and  C_12
REMARK                            x       y       z     vdW  Elec       q    Type
REMARK                         _______ _______ _______ _____ _____    ______ ____
ROOT
ATOM      1  C   UNL     1      47.209   6.705  13.154  0.00  0.00    +0.000 A 
ATOM      2  C   UNL     1      46.127   7.449  12.684  0.00  0.00    +0.000 A 
ATOM      3  C   UNL     1      44.877   6.853  12.533  0.00  0.00    +0.000 A 
ATOM      4  C   UNL     1      44.679   5.496  12.842  0.00  0.00    +0.000 A 
ATOM      5  C   UNL     1      45.768   4.757  13.316  0.00  0.00    +0.000 A 
ATOM      6  C   UNL     1      47.019   5.352  13.465  0.00  0.00    +0.000 A 
ENDROOT
BRANCH   1   7
ATOM      7  C   UNL     1      48.554   7.352  13.305  0.00  0.00    +0.000 C 
BRANCH   7   8
ATOM      8  O   UNL     1      49.328   6.580  14.218  0.00  0.00    +0.000 OA
BRANCH   8  10
ATOM      9  O   UNL     1      49.310   8.294  15.737  0.00  0.00    +0.000 OA
ATOM     10  C   UNL     1      49.535   7.124  15.449  0.00  0.00    +0.000 C 
BRANCH  10  11
ATOM     11  C   UNL     1      49.885   6.098  16.435  0.00  0.00    +0.000 A 
ATOM     12  N   UNL     1      51.159   5.796  16.764  0.00  0.00    +0.000 NA
ATOM     13  N   UNL     1      51.057   4.601  17.366  0.00  0.00    +0.000 N 
ATOM     14  C   UNL     1      49.787   4.095  17.373  0.00  0.00    +0.000 A 
ATOM     15  C   UNL     1      49.291   2.816  17.636  0.00  0.00    +0.000 A 
ATOM     16  C   UNL     1      47.902   2.657  17.583  0.00  0.00    +0.000 A 
ATOM     17  C   UNL     1      47.055   3.742  17.351  0.00  0.00    +0.000 A 
ATOM     18  C   UNL     1      47.578   5.000  17.041  0.00  0.00    +0.000 A 
ATOM     19  C   UNL     1      48.976   5.152  16.988  0.00  0.00    +0.000 A 
ATOM     20  H   UNL     1      51.907   4.158  17.698  0.00  0.00    +0.000 HD
ENDBRANCH  10  11
ENDBRANCH   8  10
ENDBRANCH   7   8
ENDBRANCH   1   7
BRANCH   4  21
ATOM     21  C   UNL     1      43.339   4.806  12.677  0.00  0.00    +0.000 C 
BRANCH  21  22
ATOM     22  C   UNL     1      43.271   3.882  11.463  0.00  0.00    +0.000 C 
BRANCH  22  23
ATOM     23  O   UNL     1      43.533   4.582  10.250  0.00  0.00    +0.000 OA
BRANCH  23  24
ATOM     24  C   UNL     1      44.409   3.845   9.479  0.00  0.00    +0.000 A 
ATOM     25  N   UNL     1      45.119   4.539   8.585  0.00  0.00    +0.000 NA
ATOM     26  C   UNL     1      45.946   3.812   7.805  0.00  0.00    +0.000 A 
ATOM     27  C   UNL     1      46.082   2.445   7.907  0.00  0.00    +0.000 A 
ATOM     28  C   UNL     1      45.323   1.840   8.867  0.00  0.00    +0.000 A 
ATOM     29  N   UNL     1      44.479   2.507   9.665  0.00  0.00    +0.000 NA
ENDBRANCH  23  24
ENDBRANCH  22  23
ENDBRANCH  21  22
ENDBRANCH   4  21
TORSDOF 8
ENDMDL
MODEL 5
REMARK VINA RESULT:    -7.604      1.452      2.194
REMARK INTER + INTRA:         -11.979
REMARK INTER:                 -11.110
REMARK INTRA:                  -0.869
REMARK UNBOUND:                -0.819
REMARK  Name = 
REMARK  8 active torsions:
REMARK  status: ('A' for Active; 'I' for Inactive)
REMARK    1  A    between atoms: C_2  and  O_3
REMARK    2  A    between atoms: C_2  and  C_20
REMARK    3  A    between atoms: O_3  and  C_4
REMARK    4  A    between atoms: C_4  and  C_5
REMARK    5  A    between atoms: C_8  and  C_9
REMARK    6  A    between atoms: C_9  and  C_10
REMARK    7  A    between atoms: C_10  and  O_11
REMARK    8  A    between atoms: O_11  and  C_12
REMARK                            x       y       z     vdW  Elec       q    Type
REMARK                         _______ _______ _______ _____ _____    ______ ____
ROOT
ATOM      1  C   UNL     1      46.957   4.842  14.288  0.00  0.00    +0.000 A 
ATOM      2  C   UNL     1      46.985   6.103  13.694  0.00  0.00    +0.000 A 
ATOM      3  C   UNL     1      46.368   6.314  12.464  0.00  0.00    +0.000 A 
ATOM      4  C   UNL     1      45.712   5.267  11.792  0.00  0.00    +0.000 A 
ATOM      5  C   UNL     1      45.685   4.005  12.395  0.00  0.00    +0.000 A 
ATOM      6  C   UNL     1      46.305   3.793  13.626  0.00  0.00    +0.000 A 
ENDROOT
BRANCH   1   7
ATOM      7  C   UNL     1      47.633   4.621  15.609  0.00  0.00    +0.000 C 
BRANCH   7   8
ATOM      8  O   UNL     1      47.438   3.264  15.996  0.00  0.00    +0.000 OA
BRANCH   8  10
ATOM      9  O   UNL     1      49.216   1.824  15.856  0.00  0.00    +0.000 OA
ATOM     10  C   UNL     1      48.526   2.613  16.494  0.00  0.00    +0.000 C 
BRANCH  10  11
ATOM     11  C   UNL     1      48.882   3.109  17.826  0.00  0.00    +0.000 A 
ATOM     12  N   UNL     1      48.080   2.968  18.903  0.00  0.00    +0.000 NA
ATOM     13  N   UNL     1      48.567   3.859  19.780  0.00  0.00    +0.000 N 
ATOM     14  C   UNL     1      49.597   4.611  19.287  0.00  0.00    +0.000 A 
ATOM     15  C   UNL     1      50.195   5.789  19.738  0.00  0.00    +0.000 A 
ATOM     16  C   UNL     1      51.272   6.275  18.988  0.00  0.00    +0.000 A 
ATOM     17  C   UNL     1      51.766   5.573  17.888  0.00  0.00    +0.000 A 
ATOM     18  C   UNL     1      51.120   4.423  17.428  0.00  0.00    +0.000 A 
ATOM     19  C   UNL     1      49.972   3.980  18.110  0.00  0.00    +0.000 A 
ATOM     20  H   UNL     1      48.108   3.944  20.681  0.00  0.00    +0.000 HD
ENDBRANCH  10  11
ENDBRANCH   8  10
ENDBRANCH   7   8
ENDBRANCH   1   7
BRANCH   4  21
ATOM     21  C   UNL     1      45.041   5.451  10.445  0.00  0.00    +0.000 C 
BRANCH  21  22
ATOM     22  C   UNL     1      44.295   4.212   9.958  0.00  0.00    +0.000 C 
BRANCH  22  23
ATOM     23  O   UNL     1      44.260   4.141   8.535  0.00  0.00    +0.000 OA
BRANCH  23  24
ATOM     24  C   UNL     1      45.310   3.363   8.092  0.00  0.00    +0.000 A 
ATOM     25  N   UNL     1      46.140   3.950   7.225  0.00  0.00    +0.000 NA
ATOM     26  C   UNL     1      47.144   3.175   6.762  0.00  0.00    +0.000 A 
ATOM     27  C   UNL     1      47.336   1.867   7.148  0.00  0.00    +0.000 A 
ATOM     28  C   UNL     1      46.441   1.375   8.054  0.00  0.00    +0.000 A 
ATOM     29  N   UNL     1      45.421   2.092   8.543  0.00  0.00    +0.000 NA
ENDBRANCH  23  24
ENDBRANCH  22  23
ENDBRANCH  21  22
ENDBRANCH   4  21
TORSDOF 8
ENDMDL
MODEL 6
REMARK VINA RESULT:    -7.556      1.874      9.258
REMARK INTER + INTRA:         -11.909
REMARK INTER:                 -11.198
REMARK INTRA:                  -0.711
REMARK UNBOUND:                -0.819
REMARK  Name = 
REMARK  8 active torsions:
REMARK  status: ('A' for Active; 'I' for Inactive)
REMARK    1  A    between atoms: C_2  and  O_3
REMARK    2  A    between atoms: C_2  and  C_20
REMARK    3  A    between atoms: O_3  and  C_4
REMARK    4  A    between atoms: C_4  and  C_5
REMARK    5  A    between atoms: C_8  and  C_9
REMARK    6  A    between atoms: C_9  and  C_10
REMARK    7  A    between atoms: C_10  and  O_11
REMARK    8  A    between atoms: O_11  and  C_12
REMARK                            x       y       z     vdW  Elec       q    Type
REMARK                         _______ _______ _______ _____ _____    ______ ____
ROOT
ATOM      1  C   UNL     1      46.970   5.613  13.502  0.00  0.00    +0.000 A 
ATOM      2  C   UNL     1      47.882   6.592  13.893  0.00  0.00    +0.000 A 
ATOM      3  C   UNL     1      48.487   6.529  15.146  0.00  0.00    +0.000 A 
ATOM      4  C   UNL     1      48.189   5.488  16.043  0.00  0.00    +0.000 A 
ATOM      5  C   UNL     1      47.276   4.507  15.643  0.00  0.00    +0.000 A 
ATOM      6  C   UNL     1      46.668   4.571  14.390  0.00  0.00    +0.000 A 
ENDROOT
BRANCH   1   7
ATOM      7  C   UNL     1      46.315   5.694  12.155  0.00  0.00    +0.000 C 
BRANCH   7   8
ATOM      8  O   UNL     1      45.254   4.746  12.108  0.00  0.00    +0.000 OA
BRANCH   8  10
ATOM      9  O   UNL     1      43.757   5.923  10.835  0.00  0.00    +0.000 OA
ATOM     10  C   UNL     1      44.359   4.886  11.092  0.00  0.00    +0.000 C 
BRANCH  10  11
ATOM     11  C   UNL     1      44.341   3.702  10.228  0.00  0.00    +0.000 A 
ATOM     12  N   UNL     1      43.767   2.535  10.591  0.00  0.00    +0.000 NA
ATOM     13  N   UNL     1      44.290   1.644   9.736  0.00  0.00    +0.000 N 
ATOM     14  C   UNL     1      45.225   2.175   8.891  0.00  0.00    +0.000 A 
ATOM     15  C   UNL     1      46.181   1.584   8.062  0.00  0.00    +0.000 A 
ATOM     16  C   UNL     1      46.967   2.449   7.293  0.00  0.00    +0.000 A 
ATOM     17  C   UNL     1      46.753   3.828   7.303  0.00  0.00    +0.000 A 
ATOM     18  C   UNL     1      45.825   4.399   8.178  0.00  0.00    +0.000 A 
ATOM     19  C   UNL     1      45.099   3.550   9.033  0.00  0.00    +0.000 A 
ATOM     20  H   UNL     1      44.009   0.674   9.823  0.00  0.00    +0.000 HD
ENDBRANCH  10  11
ENDBRANCH   8  10
ENDBRANCH   7   8
ENDBRANCH   1   7
BRANCH   4  21
ATOM     21  C   UNL     1      48.814   5.390  17.421  0.00  0.00    +0.000 C 
BRANCH  21  22
ATOM     22  C   UNL     1      50.168   4.684  17.431  0.00  0.00    +0.000 C 
BRANCH  22  23
ATOM     23  O   UNL     1      50.061   3.329  17.003  0.00  0.00    +0.000 OA
BRANCH  23  24
ATOM     24  C   UNL     1      51.184   2.635  17.407  0.00  0.00    +0.000 A 
ATOM     25  N   UNL     1      52.208   3.383  17.827  0.00  0.00    +0.000 NA
ATOM     26  C   UNL     1      53.319   2.704  18.183  0.00  0.00    +0.000 A 
ATOM     27  C   UNL     1      53.418   1.332  18.140  0.00  0.00    +0.000 A 
ATOM     28  C   UNL     1      52.306   0.665  17.715  0.00  0.00    +0.000 A 
ATOM     29  N   UNL     1      51.178   1.283  17.341  0.00  0.00    +0.000 NA
ENDBRANCH  23  24
ENDBRANCH  22  23
ENDBRANCH  21  22
ENDBRANCH   4  21
TORSDOF 8
ENDMDL
MODEL 7
REMARK VINA RESULT:    -7.190      1.921      9.055
REMARK INTER + INTRA:         -11.372
REMARK INTER:                 -11.274
REMARK INTRA:                  -0.098
REMARK UNBOUND:                -0.819
REMARK  Name = 
REMARK  8 active torsions:
REMARK  status: ('A' for Active; 'I' for Inactive)
REMARK    1  A    between atoms: C_2  and  O_3
REMARK    2  A    between atoms: C_2  and  C_20
REMARK    3  A    between atoms: O_3  and  C_4
REMARK    4  A    between atoms: C_4  and  C_5
REMARK    5  A    between atoms: C_8  and  C_9
REMARK    6  A    between atoms: C_9  and  C_10
REMARK    7  A    between atoms: C_10  and  O_11
REMARK    8  A    between atoms: O_11  and  C_12
REMARK                            x       y       z     vdW  Elec       q    Type
REMARK                         _______ _______ _______ _____ _____    ______ ____
ROOT
ATOM      1  C   UNL     1      44.954   5.164  11.709  0.00  0.00    +0.000 A 
ATOM      2  C   UNL     1      45.727   4.405  12.586  0.00  0.00    +0.000 A 
ATOM      3  C   UNL     1      46.926   4.910  13.082  0.00  0.00    +0.000 A 
ATOM      4  C   UNL     1      47.385   6.186  12.709  0.00  0.00    +0.000 A 
ATOM      5  C   UNL     1      46.602   6.944  11.832  0.00  0.00    +0.000 A 
ATOM      6  C   UNL     1      45.403   6.438  11.333  0.00  0.00    +0.000 A 
ENDROOT
BRANCH   1   7
ATOM      7  C   UNL     1      43.668   4.609  11.171  0.00  0.00    +0.000 C 
BRANCH   7   8
ATOM      8  O   UNL     1      43.828   4.364   9.777  0.00  0.00    +0.000 OA
BRANCH   8  10
ATOM      9  O   UNL     1      43.974   2.080   9.669  0.00  0.00    +0.000 OA
ATOM     10  C   UNL     1      44.432   3.193   9.432  0.00  0.00    +0.000 C 
BRANCH  10  11
ATOM     11  C   UNL     1      45.603   3.425   8.582  0.00  0.00    +0.000 A 
ATOM     12  N   UNL     1      45.979   4.652   8.166  0.00  0.00    +0.000 NA
ATOM     13  N   UNL     1      46.810   4.401   7.143  0.00  0.00    +0.000 N 
ATOM     14  C   UNL     1      46.925   3.072   6.842  0.00  0.00    +0.000 A 
ATOM     15  C   UNL     1      47.443   2.406   5.730  0.00  0.00    +0.000 A 
ATOM     16  C   UNL     1      47.431   1.007   5.772  0.00  0.00    +0.000 A 
ATOM     17  C   UNL     1      46.989   0.319   6.902  0.00  0.00    +0.000 A 
ATOM     18  C   UNL     1      46.430   1.006   7.982  0.00  0.00    +0.000 A 
ATOM     19  C   UNL     1      46.339   2.408   7.911  0.00  0.00    +0.000 A 
ATOM     20  H   UNL     1      47.220   5.188   6.653  0.00  0.00    +0.000 HD
ENDBRANCH  10  11
ENDBRANCH   8  10
ENDBRANCH   7   8
ENDBRANCH   1   7
BRANCH   4  21
ATOM     21  C   UNL     1      48.691   6.767  13.215  0.00  0.00    +0.000 C 
BRANCH  21  22
ATOM     22  C   UNL     1      48.852   6.682  14.731  0.00  0.00    +0.000 C 
BRANCH  22  23
ATOM     23  O   UNL     1      47.754   6.012  15.344  0.00  0.00    +0.000 OA
BRANCH  23  24
ATOM     24  C   UNL     1      48.225   5.186  16.344  0.00  0.00    +0.000 A 
ATOM     25  N   UNL     1      49.529   5.291  16.616  0.00  0.00    +0.000 NA
ATOM     26  C   UNL     1      49.996   4.455  17.567  0.00  0.00    +0.000 A 
ATOM     27  C   UNL     1      49.206   3.551  18.240  0.00  0.00    +0.000 A 
ATOM     28  C   UNL     1      47.884   3.541  17.897  0.00  0.00    +0.000 A 
ATOM     29  N   UNL     1      47.364   4.341  16.957  0.00  0.00    +0.000 NA
ENDBRANCH  23  24
ENDBRANCH  22  23
ENDBRANCH  21  22
ENDBRANCH   4  21
TORSDOF 8
ENDMDL
MODEL 8
REMARK VINA RESULT:    -7.114      3.097      8.680
REMARK INTER + INTRA:         -11.260
REMARK INTER:                 -10.388
REMARK INTRA:                  -0.872
REMARK UNBOUND:                -0.819
REMARK  Name = 
REMARK  8 active torsions:
REMARK  status: ('A' for Active; 'I' for Inactive)
REMARK    1  A    between atoms: C_2  and  O_3
REMARK    2  A    between atoms: C_2  and  C_20
REMARK    3  A    between atoms: O_3  and  C_4
REMARK    4  A    between atoms: C_4  and  C_5
REMARK    5  A    between atoms: C_8  and  C_9
REMARK    6  A    between atoms: C_9  and  C_10
REMARK    7  A    between atoms: C_10  and  O_11
REMARK    8  A    between atoms: O_11  and  C_12
REMARK                            x       y       z     vdW  Elec       q    Type
REMARK                         _______ _______ _______ _____ _____    ______ ____
ROOT
ATOM      1  C   UNL     1      46.602   7.653  12.447  0.00  0.00    +0.000 A 
ATOM      2  C   UNL     1      46.675   8.418  13.610  0.00  0.00    +0.000 A 
ATOM      3  C   UNL     1      47.912   8.720  14.176  0.00  0.00    +0.000 A 
ATOM      4  C   UNL     1      49.107   8.258  13.595  0.00  0.00    +0.000 A 
ATOM      5  C   UNL     1      49.025   7.494  12.426  0.00  0.00    +0.000 A 
ATOM      6  C   UNL     1      47.788   7.189  11.862  0.00  0.00    +0.000 A 
ENDROOT
BRANCH   1   7
ATOM      7  C   UNL     1      45.265   7.324  11.850  0.00  0.00    +0.000 C 
BRANCH   7   8
ATOM      8  O   UNL     1      44.565   6.469  12.749  0.00  0.00    +0.000 OA
BRANCH   8  10
ATOM      9  O   UNL     1      45.886   4.899  13.769  0.00  0.00    +0.000 OA
ATOM     10  C   UNL     1      45.070   5.214  12.910  0.00  0.00    +0.000 C 
BRANCH  10  11
ATOM     11  C   UNL     1      44.381   4.247  12.052  0.00  0.00    +0.000 A 
ATOM     12  N   UNL     1      43.623   3.241  12.537  0.00  0.00    +0.000 NA
ATOM     13  N   UNL     1      43.509   2.399  11.498  0.00  0.00    +0.000 N 
ATOM     14  C   UNL     1      44.218   2.787  10.395  0.00  0.00    +0.000 A 
ATOM     15  C   UNL     1      44.592   2.105   9.235  0.00  0.00    +0.000 A 
ATOM     16  C   UNL     1      45.302   2.837   8.277  0.00  0.00    +0.000 A 
ATOM     17  C   UNL     1      45.559   4.198   8.446  0.00  0.00    +0.000 A 
ATOM     18  C   UNL     1      45.218   4.845   9.636  0.00  0.00    +0.000 A 
ATOM     19  C   UNL     1      44.596   4.097  10.653  0.00  0.00    +0.000 A 
ATOM     20  H   UNL     1      42.980   1.545  11.630  0.00  0.00    +0.000 HD
ENDBRANCH  10  11
ENDBRANCH   8  10
ENDBRANCH   7   8
ENDBRANCH   1   7
BRANCH   4  21
ATOM     21  C   UNL     1      50.472   8.551  14.187  0.00  0.00    +0.000 C 
BRANCH  21  22
ATOM     22  C   UNL     1      50.674   7.963  15.581  0.00  0.00    +0.000 C 
BRANCH  22  23
ATOM     23  O   UNL     1      50.489   6.549  15.591  0.00  0.00    +0.000 OA
BRANCH  23  24
ATOM     24  C   UNL     1      49.499   6.226  16.497  0.00  0.00    +0.000 A 
ATOM     25  N   UNL     1      49.267   7.134  17.449  0.00  0.00    +0.000 NA
ATOM     26  C   UNL     1      48.327   6.799  18.357  0.00  0.00    +0.000 A 
ATOM     27  C   UNL     1      47.626   5.615  18.326  0.00  0.00    +0.000 A 
ATOM     28  C   UNL     1      47.929   4.769  17.298  0.00  0.00    +0.000 A 
ATOM     29  N   UNL     1      48.857   5.042  16.372  0.00  0.00    +0.000 NA
ENDBRANCH  23  24
ENDBRANCH  22  23
ENDBRANCH  21  22
ENDBRANCH   4  21
TORSDOF 8
ENDMDL
MODEL 9
REMARK VINA RESULT:    -6.885      3.632      9.659
REMARK INTER + INTRA:         -10.924
REMARK INTER:                 -10.208
REMARK INTRA:                  -0.717
REMARK UNBOUND:                -0.819
REMARK  Name = 
REMARK  8 active torsions:
REMARK  status: ('A' for Active; 'I' for Inactive)
REMARK    1  A    between atoms: C_2  and  O_3
REMARK    2  A    between atoms: C_2  and  C_20
REMARK    3  A    between atoms: O_3  and  C_4
REMARK    4  A    between atoms: C_4  and  C_5
REMARK    5  A    between atoms: C_8  and  C_9
REMARK    6  A    between atoms: C_9  and  C_10
REMARK    7  A    between atoms: C_10  and  O_11
REMARK    8  A    between atoms: O_11  and  C_12
REMARK                            x       y       z     vdW  Elec       q    Type
REMARK                         _______ _______ _______ _____ _____    ______ ____
ROOT
ATOM      1  C   UNL     1      44.834   5.156  11.647  0.00  0.00    +0.000 A 
ATOM      2  C   UNL     1      45.410   4.456  12.706  0.00  0.00    +0.000 A 
ATOM      3  C   UNL     1      46.596   4.905  13.283  0.00  0.00    +0.000 A 
ATOM      4  C   UNL     1      47.239   6.063  12.811  0.00  0.00    +0.000 A 
ATOM      5  C   UNL     1      46.653   6.762  11.750  0.00  0.00    +0.000 A 
ATOM      6  C   UNL     1      45.468   6.312  11.171  0.00  0.00    +0.000 A 
ENDROOT
BRANCH   1   7
ATOM      7  C   UNL     1      43.562   4.660  11.025  0.00  0.00    +0.000 C 
BRANCH   7   8
ATOM      8  O   UNL     1      43.805   4.396   9.647  0.00  0.00    +0.000 OA
BRANCH   8  10
ATOM      9  O   UNL     1      44.009   2.113   9.637  0.00  0.00    +0.000 OA
ATOM     10  C   UNL     1      44.440   3.227   9.357  0.00  0.00    +0.000 C 
BRANCH  10  11
ATOM     11  C   UNL     1      45.612   3.452   8.505  0.00  0.00    +0.000 A 
ATOM     12  N   UNL     1      45.981   4.675   8.070  0.00  0.00    +0.000 NA
ATOM     13  N   UNL     1      46.815   4.413   7.053  0.00  0.00    +0.000 N 
ATOM     14  C   UNL     1      46.940   3.080   6.774  0.00  0.00    +0.000 A 
ATOM     15  C   UNL     1      47.465   2.399   5.673  0.00  0.00    +0.000 A 
ATOM     16  C   UNL     1      47.461   1.002   5.738  0.00  0.00    +0.000 A 
ATOM     17  C   UNL     1      47.021   0.328   6.879  0.00  0.00    +0.000 A 
ATOM     18  C   UNL     1      46.456   1.030   7.946  0.00  0.00    +0.000 A 
ATOM     19  C   UNL     1      46.356   2.430   7.852  0.00  0.00    +0.000 A 
ATOM     20  H   UNL     1      47.221   5.195   6.551  0.00  0.00    +0.000 HD
ENDBRANCH  10  11
ENDBRANCH   8  10
ENDBRANCH   7   8
ENDBRANCH   1   7
BRANCH   4  21
ATOM     21  C   UNL     1      48.538   6.576  13.401  0.00  0.00    +0.000 C 
BRANCH  21  22
ATOM     22  C   UNL     1      48.398   7.094  14.830  0.00  0.00    +0.000 C 
BRANCH  22  23
ATOM     23  O   UNL     1      49.648   7.096  15.517  0.00  0.00    +0.000 OA
BRANCH  23  24
ATOM     24  C   UNL     1      49.706   8.194  16.351  0.00  0.00    +0.000 A 
ATOM     25  N   UNL     1      48.585   8.915  16.440  0.00  0.00    +0.000 NA
ATOM     26  C   UNL     1      48.656  10.010  17.225  0.00  0.00    +0.000 A 
ATOM     27  C   UNL     1      49.790  10.381  17.912  0.00  0.00    +0.000 A 
ATOM     28  C   UNL     1      50.872   9.562  17.765  0.00  0.00    +0.000 A 
ATOM     29  N   UNL     1      50.865   8.467  16.995  0.00  0.00    +0.000 NA
ENDBRANCH  23  24
ENDBRANCH  22  23
ENDBRANCH  21  22
ENDBRANCH   4  21
TORSDOF 8
ENDMDL
