MODEL 1
REMARK VINA RESULT:    -6.804      0.000      0.000
REMARK INTER + INTRA:          -9.831
REMARK INTER:                  -9.390
REMARK INTRA:                  -0.441
REMARK UNBOUND:                -0.441
REMARK  Name = 
REMARK  7 active torsions:
REMARK  status: ('A' for Active; 'I' for Inactive)
REMARK    1  A    between atoms: N_1  and  C_2
REMARK    2  A    between atoms: C_2  and  C_3
REMARK    3  A    between atoms: C_7  and  C_8
REMARK    4  A    between atoms: C_8  and  C_9
REMARK    5  A    between atoms: C_9  and  N_10
REMARK    6  A    between atoms: N_10  and  C_11
REMARK    7  A    between atoms: C_14  and  C_15
REMARK                            x       y       z     vdW  Elec       q    Type
REMARK                         _______ _______ _______ _____ _____    ______ ____
ROOT
ATOM      1  N   UNL     1      44.083   5.309  10.299  0.00  0.00    +0.000 N 
ATOM      2  H   UNL     1      43.103   5.389  10.564  0.00  0.00    +0.000 HD
ENDROOT
BRANCH   1   3
ATOM      3  C   UNL     1      44.851   5.159  11.478  0.00  0.00    +0.000 A 
ATOM      4  N   UNL     1      45.136   3.898  11.878  0.00  0.00    +0.000 NA
ATOM      5  C   UNL     1      45.861   3.711  13.000  0.00  0.00    +0.000 A 
ATOM      6  C   UNL     1      46.382   4.731  13.765  0.00  0.00    +0.000 A 
ATOM      7  C   UNL     1      46.115   6.038  13.348  0.00  0.00    +0.000 A 
ATOM      8  C   UNL     1      45.328   6.259  12.205  0.00  0.00    +0.000 A 
ATOM      9  I   UNL     1      44.889   8.241  11.710  0.00  0.00    +0.000 I 
BRANCH   6  10
ATOM     10  C   UNL     1      47.176   4.497  14.995  0.00  0.00    +0.000 C 
ATOM     11  N   UNL     1      47.857   5.535  15.554  0.00  0.00    +0.000 N 
ATOM     12  O   UNL     1      47.226   3.384  15.507  0.00  0.00    +0.000 OA
ATOM     13  H   UNL     1      47.908   6.481  15.204  0.00  0.00    +0.000 HD
ATOM     14  H   UNL     1      48.399   5.323  16.386  0.00  0.00    +0.000 HD
ENDBRANCH   6  10
ENDBRANCH   1   3
BRANCH   1  15
ATOM     15  C   UNL     1      44.331   4.226   9.333  0.00  0.00    +0.000 C 
BRANCH  15  16
ATOM     16  C   UNL     1      45.621   4.431   8.530  0.00  0.00    +0.000 C 
BRANCH  16  21
ATOM     17  C   UNL     1      46.955   2.050   5.845  0.00  0.00    +0.000 A 
ATOM     18  C   UNL     1      46.993   0.840   6.549  0.00  0.00    +0.000 A 
ATOM     19  C   UNL     1      46.533   0.774   7.864  0.00  0.00    +0.000 A 
ATOM     20  C   UNL     1      46.055   1.922   8.501  0.00  0.00    +0.000 A 
ATOM     21  C   UNL     1      46.019   3.148   7.822  0.00  0.00    +0.000 A 
ATOM     22  C   UNL     1      46.452   3.193   6.487  0.00  0.00    +0.000 A 
BRANCH  17  23
ATOM     23  C   UNL     1      47.514   2.143   4.447  0.00  0.00    +0.000 C 
BRANCH  23  24
ATOM     24  N   UNL     1      47.632   0.835   3.816  0.00  0.00    +0.000 NA
ATOM     25  H   UNL     1      46.749   0.607   3.361  0.00  0.00    +0.000 HD
ATOM     26  H   UNL     1      47.771   0.133   4.542  0.00  0.00    +0.000 HD
ENDBRANCH  23  24
ENDBRANCH  17  23
ENDBRANCH  16  21
ENDBRANCH  15  16
ENDBRANCH   1  15
TORSDOF 7
ENDMDL
MODEL 2
REMARK VINA RESULT:    -6.647      3.667      8.485
REMARK INTER + INTRA:          -9.613
REMARK INTER:                  -9.214
REMARK INTRA:                  -0.400
REMARK UNBOUND:                -0.441
REMARK  Name = 
REMARK  7 active torsions:
REMARK  status: ('A' for Active; 'I' for Inactive)
REMARK    1  A    between atoms: N_1  and  C_2
REMARK    2  A    between atoms: C_2  and  C_3
REMARK    3  A    between atoms: C_7  and  C_8
REMARK    4  A    between atoms: C_8  and  C_9
REMARK    5  A    between atoms: C_9  and  N_10
REMARK    6  A    between atoms: N_10  and  C_11
REMARK    7  A    between atoms: C_14  and  C_15
REMARK                            x       y       z     vdW  Elec       q    Type
REMARK                         _______ _______ _______ _____ _____    ______ ____
ROOT
ATOM      1  N   UNL     1      46.611   4.897  14.888  0.00  0.00    +0.000 N 
ATOM      2  H   UNL     1      47.102   5.757  15.123  0.00  0.00    +0.000 HD
ENDROOT
BRANCH   1   3
ATOM      3  C   UNL     1      46.284   4.934  13.512  0.00  0.00    +0.000 A 
ATOM      4  N   UNL     1      45.584   3.889  13.011  0.00  0.00    +0.000 NA
ATOM      5  C   UNL     1      45.257   3.883  11.703  0.00  0.00    +0.000 A 
ATOM      6  C   UNL     1      45.552   4.903  10.825  0.00  0.00    +0.000 A 
ATOM      7  C   UNL     1      46.253   5.999  11.337  0.00  0.00    +0.000 A 
ATOM      8  C   UNL     1      46.639   6.011  12.687  0.00  0.00    +0.000 A 
ATOM      9  I   UNL     1      47.774   7.636  13.347  0.00  0.00    +0.000 I 
BRANCH   6  10
ATOM     10  C   UNL     1      45.180   4.870   9.390  0.00  0.00    +0.000 C 
ATOM     11  N   UNL     1      43.927   4.470   9.037  0.00  0.00    +0.000 N 
ATOM     12  O   UNL     1      45.986   5.197   8.526  0.00  0.00    +0.000 OA
ATOM     13  H   UNL     1      43.197   4.155   9.659  0.00  0.00    +0.000 HD
ATOM     14  H   UNL     1      43.725   4.449   8.042  0.00  0.00    +0.000 HD
ENDBRANCH   6  10
ENDBRANCH   1   3
BRANCH   1  15
ATOM     15  C   UNL     1      47.369   3.686  15.246  0.00  0.00    +0.000 C 
BRANCH  15  16
ATOM     16  C   UNL     1      47.472   3.477  16.762  0.00  0.00    +0.000 C 
BRANCH  16  21
ATOM     17  C   UNL     1      51.110   2.549  17.511  0.00  0.00    +0.000 A 
ATOM     18  C   UNL     1      51.651   3.802  17.826  0.00  0.00    +0.000 A 
ATOM     19  C   UNL     1      50.836   4.934  17.859  0.00  0.00    +0.000 A 
ATOM     20  C   UNL     1      49.477   4.833  17.552  0.00  0.00    +0.000 A 
ATOM     21  C   UNL     1      48.915   3.592  17.220  0.00  0.00    +0.000 A 
ATOM     22  C   UNL     1      49.739   2.455  17.225  0.00  0.00    +0.000 A 
BRANCH  17  23
ATOM     23  C   UNL     1      51.998   1.335  17.405  0.00  0.00    +0.000 C 
BRANCH  23  24
ATOM     24  N   UNL     1      51.483   0.210  18.176  0.00  0.00    +0.000 NA
ATOM     25  H   UNL     1      50.674   0.520  18.713  0.00  0.00    +0.000 HD
ATOM     26  H   UNL     1      52.189  -0.070  18.856  0.00  0.00    +0.000 HD
ENDBRANCH  23  24
ENDBRANCH  17  23
ENDBRANCH  16  21
ENDBRANCH  15  16
ENDBRANCH   1  15
TORSDOF 7
ENDMDL
MODEL 3
REMARK VINA RESULT:    -6.558      4.569      6.600
REMARK INTER + INTRA:          -9.491
REMARK INTER:                  -9.037
REMARK INTRA:                  -0.454
REMARK UNBOUND:                -0.441
REMARK  Name = 
REMARK  7 active torsions:
REMARK  status: ('A' for Active; 'I' for Inactive)
REMARK    1  A    between atoms: N_1  and  C_2
REMARK    2  A    between atoms: C_2  and  C_3
REMARK    3  A    between atoms: C_7  and  C_8
REMARK    4  A    between atoms: C_8  and  C_9
REMARK    5  A    between atoms: C_9  and  N_10
REMARK    6  A    between atoms: N_10  and  C_11
REMARK    7  A    between atoms: C_14  and  C_15
REMARK                            x       y       z     vdW  Elec       q    Type
REMARK                         _______ _______ _______ _____ _____    ______ ____
ROOT
ATOM      1  N   UNL     1      47.242   4.668  16.365  0.00  0.00    +0.000 N 
ATOM      2  H   UNL     1      46.530   4.482  17.068  0.00  0.00    +0.000 HD
ENDROOT
BRANCH   1   3
ATOM      3  C   UNL     1      48.414   3.960  16.722  0.00  0.00    +0.000 A 
ATOM      4  N   UNL     1      48.494   2.661  16.352  0.00  0.00    +0.000 NA
ATOM      5  C   UNL     1      49.592   1.950  16.679  0.00  0.00    +0.000 A 
ATOM      6  C   UNL     1      50.684   2.469  17.339  0.00  0.00    +0.000 A 
ATOM      7  C   UNL     1      50.624   3.817  17.704  0.00  0.00    +0.000 A 
ATOM      8  C   UNL     1      49.474   4.569  17.411  0.00  0.00    +0.000 A 
ATOM      9  I   UNL     1      49.422   6.546  18.083  0.00  0.00    +0.000 I 
BRANCH   6  10
ATOM     10  C   UNL     1      51.880   1.664  17.685  0.00  0.00    +0.000 C 
ATOM     11  N   UNL     1      51.724   0.354  18.025  0.00  0.00    +0.000 N 
ATOM     12  O   UNL     1      52.999   2.165  17.669  0.00  0.00    +0.000 OA
ATOM     13  H   UNL     1      50.852  -0.150  18.097  0.00  0.00    +0.000 HD
ATOM     14  H   UNL     1      52.570  -0.151  18.269  0.00  0.00    +0.000 HD
ENDBRANCH   6  10
ENDBRANCH   1   3
BRANCH   1  15
ATOM     15  C   UNL     1      46.796   4.350  14.997  0.00  0.00    +0.000 C 
BRANCH  15  16
ATOM     16  C   UNL     1      47.116   5.465  13.995  0.00  0.00    +0.000 C 
BRANCH  16  21
ATOM     17  C   UNL     1      44.498   4.158  11.526  0.00  0.00    +0.000 A 
ATOM     18  C   UNL     1      44.669   5.044  10.455  0.00  0.00    +0.000 A 
ATOM     19  C   UNL     1      45.665   6.019  10.498  0.00  0.00    +0.000 A 
ATOM     20  C   UNL     1      46.484   6.140  11.623  0.00  0.00    +0.000 A 
ATOM     21  C   UNL     1      46.324   5.274  12.714  0.00  0.00    +0.000 A 
ATOM     22  C   UNL     1      45.341   4.274  12.643  0.00  0.00    +0.000 A 
BRANCH  17  23
ATOM     23  C   UNL     1      43.380   3.146  11.515  0.00  0.00    +0.000 C 
BRANCH  23  24
ATOM     24  N   UNL     1      43.572   2.105  12.517  0.00  0.00    +0.000 NA
ATOM     25  H   UNL     1      44.096   2.492  13.299  0.00  0.00    +0.000 HD
ATOM     26  H   UNL     1      44.155   1.371  12.115  0.00  0.00    +0.000 HD
ENDBRANCH  23  24
ENDBRANCH  17  23
ENDBRANCH  16  21
ENDBRANCH  15  16
ENDBRANCH   1  15
TORSDOF 7
ENDMDL
MODEL 4
REMARK VINA RESULT:    -6.179      4.022      8.171
REMARK INTER + INTRA:          -8.968
REMARK INTER:                  -8.510
REMARK INTRA:                  -0.458
REMARK UNBOUND:                -0.441
REMARK  Name = 
REMARK  7 active torsions:
REMARK  status: ('A' for Active; 'I' for Inactive)
REMARK    1  A    between atoms: N_1  and  C_2
REMARK    2  A    between atoms: C_2  and  C_3
REMARK    3  A    between atoms: C_7  and  C_8
REMARK    4  A    between atoms: C_8  and  C_9
REMARK    5  A    between atoms: C_9  and  N_10
REMARK    6  A    between atoms: N_10  and  C_11
REMARK    7  A    between atoms: C_14  and  C_15
REMARK                            x       y       z     vdW  Elec       q    Type
REMARK                         _______ _______ _______ _____ _____    ______ ____
ROOT
ATOM      1  N   UNL     1      47.091   7.467  14.025  0.00  0.00    +0.000 N 
ATOM      2  H   UNL     1      47.193   8.407  13.649  0.00  0.00    +0.000 HD
ENDROOT
BRANCH   1   3
ATOM      3  C   UNL     1      46.272   6.723  13.142  0.00  0.00    +0.000 A 
ATOM      4  N   UNL     1      46.350   5.373  13.210  0.00  0.00    +0.000 NA
ATOM      5  C   UNL     1      45.590   4.628  12.382  0.00  0.00    +0.000 A 
ATOM      6  C   UNL     1      44.687   5.147  11.480  0.00  0.00    +0.000 A 
ATOM      7  C   UNL     1      44.579   6.540  11.419  0.00  0.00    +0.000 A 
ATOM      8  C   UNL     1      45.389   7.339  12.243  0.00  0.00    +0.000 A 
ATOM      9  I   UNL     1      45.242   9.411  12.016  0.00  0.00    +0.000 I 
BRANCH   6  10
ATOM     10  C   UNL     1      43.863   4.304  10.581  0.00  0.00    +0.000 C 
ATOM     11  N   UNL     1      43.917   4.515   9.237  0.00  0.00    +0.000 N 
ATOM     12  O   UNL     1      43.136   3.426  11.036  0.00  0.00    +0.000 OA
ATOM     13  H   UNL     1      44.456   5.223   8.759  0.00  0.00    +0.000 HD
ATOM     14  H   UNL     1      43.323   3.923   8.664  0.00  0.00    +0.000 HD
ENDBRANCH   6  10
ENDBRANCH   1   3
BRANCH   1  15
ATOM     15  C   UNL     1      48.382   6.804  14.275  0.00  0.00    +0.000 C 
BRANCH  15  16
ATOM     16  C   UNL     1      49.061   7.291  15.560  0.00  0.00    +0.000 C 
BRANCH  16  21
ATOM     17  C   UNL     1      48.944   3.942  17.412  0.00  0.00    +0.000 A 
ATOM     18  C   UNL     1      50.282   3.800  17.801  0.00  0.00    +0.000 A 
ATOM     19  C   UNL     1      51.208   4.806  17.525  0.00  0.00    +0.000 A 
ATOM     20  C   UNL     1      50.815   5.954  16.832  0.00  0.00    +0.000 A 
ATOM     21  C   UNL     1      49.484   6.114  16.420  0.00  0.00    +0.000 A 
ATOM     22  C   UNL     1      48.555   5.110  16.736  0.00  0.00    +0.000 A 
BRANCH  17  23
ATOM     23  C   UNL     1      47.955   2.829  17.646  0.00  0.00    +0.000 C 
BRANCH  23  24
ATOM     24  N   UNL     1      46.579   3.264  17.436  0.00  0.00    +0.000 NA
ATOM     25  H   UNL     1      45.957   2.658  17.968  0.00  0.00    +0.000 HD
ATOM     26  H   UNL     1      46.342   3.131  16.454  0.00  0.00    +0.000 HD
ENDBRANCH  23  24
ENDBRANCH  17  23
ENDBRANCH  16  21
ENDBRANCH  15  16
ENDBRANCH   1  15
TORSDOF 7
ENDMDL
MODEL 5
REMARK VINA RESULT:    -6.137      2.669      3.908
REMARK INTER + INTRA:          -8.909
REMARK INTER:                  -8.422
REMARK INTRA:                  -0.487
REMARK UNBOUND:                -0.441
REMARK  Name = 
REMARK  7 active torsions:
REMARK  status: ('A' for Active; 'I' for Inactive)
REMARK    1  A    between atoms: N_1  and  C_2
REMARK    2  A    between atoms: C_2  and  C_3
REMARK    3  A    between atoms: C_7  and  C_8
REMARK    4  A    between atoms: C_8  and  C_9
REMARK    5  A    between atoms: C_9  and  N_10
REMARK    6  A    between atoms: N_10  and  C_11
REMARK    7  A    between atoms: C_14  and  C_15
REMARK                            x       y       z     vdW  Elec       q    Type
REMARK                         _______ _______ _______ _____ _____    ______ ____
ROOT
ATOM      1  N   UNL     1      47.452   6.311  12.829  0.00  0.00    +0.000 N 
ATOM      2  H   UNL     1      47.997   7.157  12.676  0.00  0.00    +0.000 HD
ENDROOT
BRANCH   1   3
ATOM      3  C   UNL     1      47.706   5.852  14.144  0.00  0.00    +0.000 A 
ATOM      4  N   UNL     1      47.169   4.662  14.502  0.00  0.00    +0.000 NA
ATOM      5  C   UNL     1      47.382   4.192  15.747  0.00  0.00    +0.000 A 
ATOM      6  C   UNL     1      48.159   4.825  16.693  0.00  0.00    +0.000 A 
ATOM      7  C   UNL     1      48.739   6.044  16.326  0.00  0.00    +0.000 A 
ATOM      8  C   UNL     1      48.499   6.574  15.048  0.00  0.00    +0.000 A 
ATOM      9  I   UNL     1      49.316   8.448  14.616  0.00  0.00    +0.000 I 
BRANCH   6  10
ATOM     10  C   UNL     1      48.377   4.285  18.057  0.00  0.00    +0.000 C 
ATOM     11  N   UNL     1      47.758   3.128  18.420  0.00  0.00    +0.000 N 
ATOM     12  O   UNL     1      49.103   4.870  18.854  0.00  0.00    +0.000 OA
ATOM     13  H   UNL     1      47.122   2.582  17.858  0.00  0.00    +0.000 HD
ATOM     14  H   UNL     1      47.926   2.807  19.369  0.00  0.00    +0.000 HD
ENDBRANCH   6  10
ENDBRANCH   1   3
BRANCH   1  15
ATOM     15  C   UNL     1      46.013   6.500  12.576  0.00  0.00    +0.000 C 
BRANCH  15  16
ATOM     16  C   UNL     1      45.686   6.635  11.084  0.00  0.00    +0.000 C 
BRANCH  16  21
ATOM     17  C   UNL     1      45.341   3.722   8.623  0.00  0.00    +0.000 A 
ATOM     18  C   UNL     1      44.787   2.734   9.447  0.00  0.00    +0.000 A 
ATOM     19  C   UNL     1      44.466   3.021  10.774  0.00  0.00    +0.000 A 
ATOM     20  C   UNL     1      44.720   4.290  11.302  0.00  0.00    +0.000 A 
ATOM     21  C   UNL     1      45.287   5.291  10.501  0.00  0.00    +0.000 A 
ATOM     22  C   UNL     1      45.572   5.000   9.158  0.00  0.00    +0.000 A 
BRANCH  17  23
ATOM     23  C   UNL     1      45.754   3.399   7.209  0.00  0.00    +0.000 C 
BRANCH  23  24
ATOM     24  N   UNL     1      46.958   4.117   6.812  0.00  0.00    +0.000 NA
ATOM     25  H   UNL     1      47.198   3.856   5.857  0.00  0.00    +0.000 HD
ATOM     26  H   UNL     1      47.732   3.806   7.398  0.00  0.00    +0.000 HD
ENDBRANCH  23  24
ENDBRANCH  17  23
ENDBRANCH  16  21
ENDBRANCH  15  16
ENDBRANCH   1  15
TORSDOF 7
ENDMDL
MODEL 6
REMARK VINA RESULT:    -5.979      2.640      3.276
REMARK INTER + INTRA:          -8.691
REMARK INTER:                  -8.112
REMARK INTRA:                  -0.580
REMARK UNBOUND:                -0.441
REMARK  Name = 
REMARK  7 active torsions:
REMARK  status: ('A' for Active; 'I' for Inactive)
REMARK    1  A    between atoms: N_1  and  C_2
REMARK    2  A    between atoms: C_2  and  C_3
REMARK    3  A    between atoms: C_7  and  C_8
REMARK    4  A    between atoms: C_8  and  C_9
REMARK    5  A    between atoms: C_9  and  N_10
REMARK    6  A    between atoms: N_10  and  C_11
REMARK    7  A    between atoms: C_14  and  C_15
REMARK                            x       y       z     vdW  Elec       q    Type
REMARK                         _______ _______ _______ _____ _____    ______ ____
ROOT
ATOM      1  N   UNL     1      44.368   6.672  12.733  0.00  0.00    +0.000 N 
ATOM      2  H   UNL     1      44.070   6.526  13.695  0.00  0.00    +0.000 HD
ENDROOT
BRANCH   1   3
ATOM      3  C   UNL     1      45.750   6.975  12.738  0.00  0.00    +0.000 A 
ATOM      4  N   UNL     1      46.601   5.995  13.121  0.00  0.00    +0.000 NA
ATOM      5  C   UNL     1      47.925   6.245  13.145  0.00  0.00    +0.000 A 
ATOM      6  C   UNL     1      48.497   7.438  12.759  0.00  0.00    +0.000 A 
ATOM      7  C   UNL     1      47.629   8.450  12.336  0.00  0.00    +0.000 A 
ATOM      8  C   UNL     1      46.242   8.227  12.341  0.00  0.00    +0.000 A 
ATOM      9  I   UNL     1      45.011   9.825  11.796  0.00  0.00    +0.000 I 
BRANCH   6  10
ATOM     10  C   UNL     1      49.958   7.686  12.794  0.00  0.00    +0.000 C 
ATOM     11  N   UNL     1      50.609   7.651  13.989  0.00  0.00    +0.000 N 
ATOM     12  O   UNL     1      50.579   7.923  11.763  0.00  0.00    +0.000 OA
ATOM     13  H   UNL     1      50.195   7.494  14.897  0.00  0.00    +0.000 HD
ATOM     14  H   UNL     1      51.606   7.843  13.965  0.00  0.00    +0.000 HD
ENDBRANCH   6  10
ENDBRANCH   1   3
BRANCH   1  15
ATOM     15  C   UNL     1      44.052   5.534  11.853  0.00  0.00    +0.000 C 
BRANCH  15  16
ATOM     16  C   UNL     1      44.529   5.748  10.412  0.00  0.00    +0.000 C 
BRANCH  16  21
ATOM     17  C   UNL     1      45.666   3.138   7.851  0.00  0.00    +0.000 A 
ATOM     18  C   UNL     1      45.262   1.951   8.475  0.00  0.00    +0.000 A 
ATOM     19  C   UNL     1      44.570   1.991   9.686  0.00  0.00    +0.000 A 
ATOM     20  C   UNL     1      44.297   3.215  10.302  0.00  0.00    +0.000 A 
ATOM     21  C   UNL     1      44.703   4.416   9.704  0.00  0.00    +0.000 A 
ATOM     22  C   UNL     1      45.367   4.364   8.468  0.00  0.00    +0.000 A 
BRANCH  17  23
ATOM     23  C   UNL     1      46.474   3.100   6.579  0.00  0.00    +0.000 C 
BRANCH  23  24
ATOM     24  N   UNL     1      47.906   3.188   6.835  0.00  0.00    +0.000 NA
ATOM     25  H   UNL     1      48.065   3.843   7.599  0.00  0.00    +0.000 HD
ATOM     26  H   UNL     1      48.359   3.588   6.015  0.00  0.00    +0.000 HD
ENDBRANCH  23  24
ENDBRANCH  17  23
ENDBRANCH  16  21
ENDBRANCH  15  16
ENDBRANCH   1  15
TORSDOF 7
ENDMDL
MODEL 7
REMARK VINA RESULT:    -5.925      3.672      8.613
REMARK INTER + INTRA:          -8.617
REMARK INTER:                  -8.252
REMARK INTRA:                  -0.365
REMARK UNBOUND:                -0.441
REMARK  Name = 
REMARK  7 active torsions:
REMARK  status: ('A' for Active; 'I' for Inactive)
REMARK    1  A    between atoms: N_1  and  C_2
REMARK    2  A    between atoms: C_2  and  C_3
REMARK    3  A    between atoms: C_7  and  C_8
REMARK    4  A    between atoms: C_8  and  C_9
REMARK    5  A    between atoms: C_9  and  N_10
REMARK    6  A    between atoms: N_10  and  C_11
REMARK    7  A    between atoms: C_14  and  C_15
REMARK                            x       y       z     vdW  Elec       q    Type
REMARK                         _______ _______ _______ _____ _____    ______ ____
ROOT
ATOM      1  N   UNL     1      47.185   5.328  14.921  0.00  0.00    +0.000 N 
ATOM      2  H   UNL     1      48.083   5.725  14.654  0.00  0.00    +0.000 HD
ENDROOT
BRANCH   1   3
ATOM      3  C   UNL     1      46.510   4.926  13.745  0.00  0.00    +0.000 A 
ATOM      4  N   UNL     1      46.207   3.613  13.618  0.00  0.00    +0.000 NA
ATOM      5  C   UNL     1      45.569   3.188  12.509  0.00  0.00    +0.000 A 
ATOM      6  C   UNL     1      45.154   4.015  11.488  0.00  0.00    +0.000 A 
ATOM      7  C   UNL     1      45.439   5.378  11.619  0.00  0.00    +0.000 A 
ATOM      8  C   UNL     1      46.138   5.839  12.747  0.00  0.00    +0.000 A 
ATOM      9  I   UNL     1      46.616   7.872  12.815  0.00  0.00    +0.000 I 
BRANCH   6  10
ATOM     10  C   UNL     1      44.453   3.521  10.278  0.00  0.00    +0.000 C 
ATOM     11  N   UNL     1      44.353   2.179  10.070  0.00  0.00    +0.000 N 
ATOM     12  O   UNL     1      43.969   4.306   9.470  0.00  0.00    +0.000 OA
ATOM     13  H   UNL     1      44.737   1.448  10.652  0.00  0.00    +0.000 HD
ATOM     14  H   UNL     1      43.879   1.889   9.220  0.00  0.00    +0.000 HD
ENDBRANCH   6  10
ENDBRANCH   1   3
BRANCH   1  15
ATOM     15  C   UNL     1      47.308   4.228  15.894  0.00  0.00    +0.000 C 
BRANCH  15  16
ATOM     16  C   UNL     1      48.025   4.652  17.181  0.00  0.00    +0.000 C 
BRANCH  16  21
ATOM     17  C   UNL     1      51.755   4.098  17.842  0.00  0.00    +0.000 A 
ATOM     18  C   UNL     1      51.844   2.703  17.748  0.00  0.00    +0.000 A 
ATOM     19  C   UNL     1      50.721   1.946  17.411  0.00  0.00    +0.000 A 
ATOM     20  C   UNL     1      49.491   2.571  17.191  0.00  0.00    +0.000 A 
ATOM     21  C   UNL     1      49.373   3.964  17.293  0.00  0.00    +0.000 A 
ATOM     22  C   UNL     1      50.519   4.717  17.597  0.00  0.00    +0.000 A 
BRANCH  17  23
ATOM     23  C   UNL     1      52.947   4.915  18.272  0.00  0.00    +0.000 C 
BRANCH  23  24
ATOM     24  N   UNL     1      53.326   5.902  17.269  0.00  0.00    +0.000 NA
ATOM     25  H   UNL     1      54.279   6.212  17.455  0.00  0.00    +0.000 HD
ATOM     26  H   UNL     1      52.730   6.722  17.378  0.00  0.00    +0.000 HD
ENDBRANCH  23  24
ENDBRANCH  17  23
ENDBRANCH  16  21
ENDBRANCH  15  16
ENDBRANCH   1  15
TORSDOF 7
ENDMDL
MODEL 8
REMARK VINA RESULT:    -5.892      1.779      1.956
REMARK INTER + INTRA:          -8.572
REMARK INTER:                  -8.016
REMARK INTRA:                  -0.556
REMARK UNBOUND:                -0.441
REMARK  Name = 
REMARK  7 active torsions:
REMARK  status: ('A' for Active; 'I' for Inactive)
REMARK    1  A    between atoms: N_1  and  C_2
REMARK    2  A    between atoms: C_2  and  C_3
REMARK    3  A    between atoms: C_7  and  C_8
REMARK    4  A    between atoms: C_8  and  C_9
REMARK    5  A    between atoms: C_9  and  N_10
REMARK    6  A    between atoms: N_10  and  C_11
REMARK    7  A    between atoms: C_14  and  C_15
REMARK                            x       y       z     vdW  Elec       q    Type
REMARK                         _______ _______ _______ _____ _____    ______ ____
ROOT
ATOM      1  N   UNL     1      44.477   5.662  10.149  0.00  0.00    +0.000 N 
ATOM      2  H   UNL     1      43.593   5.312  10.513  0.00  0.00    +0.000 HD
ENDROOT
BRANCH   1   3
ATOM      3  C   UNL     1      45.370   5.823  11.234  0.00  0.00    +0.000 A 
ATOM      4  N   UNL     1      46.539   6.459  10.989  0.00  0.00    +0.000 NA
ATOM      5  C   UNL     1      47.421   6.628  11.995  0.00  0.00    +0.000 A 
ATOM      6  C   UNL     1      47.200   6.229  13.295  0.00  0.00    +0.000 A 
ATOM      7  C   UNL     1      45.984   5.593  13.566  0.00  0.00    +0.000 A 
ATOM      8  C   UNL     1      45.067   5.370  12.527  0.00  0.00    +0.000 A 
ATOM      9  I   UNL     1      43.322   4.319  12.995  0.00  0.00    +0.000 I 
BRANCH   6  10
ATOM     10  C   UNL     1      48.187   6.427  14.384  0.00  0.00    +0.000 C 
ATOM     11  N   UNL     1      47.971   5.839  15.592  0.00  0.00    +0.000 N 
ATOM     12  O   UNL     1      49.188   7.114  14.205  0.00  0.00    +0.000 OA
ATOM     13  H   UNL     1      47.173   5.279  15.857  0.00  0.00    +0.000 HD
ATOM     14  H   UNL     1      48.667   6.016  16.310  0.00  0.00    +0.000 HD
ENDBRANCH   6  10
ENDBRANCH   1   3
BRANCH   1  15
ATOM     15  C   UNL     1      45.041   4.810   9.088  0.00  0.00    +0.000 C 
BRANCH  15  16
ATOM     16  C   UNL     1      44.590   3.348   9.198  0.00  0.00    +0.000 C 
BRANCH  16  21
ATOM     17  C   UNL     1      46.955   2.253   6.394  0.00  0.00    +0.000 A 
ATOM     18  C   UNL     1      47.188   0.916   6.741  0.00  0.00    +0.000 A 
ATOM     19  C   UNL     1      46.539   0.349   7.838  0.00  0.00    +0.000 A 
ATOM     20  C   UNL     1      45.670   1.117   8.617  0.00  0.00    +0.000 A 
ATOM     21  C   UNL     1      45.430   2.461   8.297  0.00  0.00    +0.000 A 
ATOM     22  C   UNL     1      46.063   3.009   7.170  0.00  0.00    +0.000 A 
BRANCH  17  23
ATOM     23  C   UNL     1      47.705   2.891   5.252  0.00  0.00    +0.000 C 
BRANCH  23  24
ATOM     24  N   UNL     1      48.094   1.918   4.239  0.00  0.00    +0.000 NA
ATOM     25  H   UNL     1      47.806   2.260   3.324  0.00  0.00    +0.000 HD
ATOM     26  H   UNL     1      47.575   1.055   4.400  0.00  0.00    +0.000 HD
ENDBRANCH  23  24
ENDBRANCH  17  23
ENDBRANCH  16  21
ENDBRANCH  15  16
ENDBRANCH   1  15
TORSDOF 7
ENDMDL
MODEL 9
REMARK VINA RESULT:    -5.751      4.663      8.283
REMARK INTER + INTRA:          -8.377
REMARK INTER:                  -7.739
REMARK INTRA:                  -0.638
REMARK UNBOUND:                -0.441
REMARK  Name = 
REMARK  7 active torsions:
REMARK  status: ('A' for Active; 'I' for Inactive)
REMARK    1  A    between atoms: N_1  and  C_2
REMARK    2  A    between atoms: C_2  and  C_3
REMARK    3  A    between atoms: C_7  and  C_8
REMARK    4  A    between atoms: C_8  and  C_9
REMARK    5  A    between atoms: C_9  and  N_10
REMARK    6  A    between atoms: N_10  and  C_11
REMARK    7  A    between atoms: C_14  and  C_15
REMARK                            x       y       z     vdW  Elec       q    Type
REMARK                         _______ _______ _______ _____ _____    ______ ____
ROOT
ATOM      1  N   UNL     1      48.427   7.570  14.006  0.00  0.00    +0.000 N 
ATOM      2  H   UNL     1      48.914   7.951  13.198  0.00  0.00    +0.000 HD
ENDROOT
BRANCH   1   3
ATOM      3  C   UNL     1      47.482   6.622  13.549  0.00  0.00    +0.000 A 
ATOM      4  N   UNL     1      47.748   5.315  13.784  0.00  0.00    +0.000 NA
ATOM      5  C   UNL     1      46.876   4.379  13.359  0.00  0.00    +0.000 A 
ATOM      6  C   UNL     1      45.684   4.659  12.727  0.00  0.00    +0.000 A 
ATOM      7  C   UNL     1      45.386   6.007  12.502  0.00  0.00    +0.000 A 
ATOM      8  C   UNL     1      46.298   6.999  12.899  0.00  0.00    +0.000 A 
ATOM      9  I   UNL     1      45.825   8.980  12.432  0.00  0.00    +0.000 I 
BRANCH   6  10
ATOM     10  C   UNL     1      44.742   3.609  12.270  0.00  0.00    +0.000 C 
ATOM     11  N   UNL     1      43.666   3.299  13.045  0.00  0.00    +0.000 N 
ATOM     12  O   UNL     1      44.924   3.022  11.209  0.00  0.00    +0.000 OA
ATOM     13  H   UNL     1      43.435   3.698  13.944  0.00  0.00    +0.000 HD
ATOM     14  H   UNL     1      43.058   2.563  12.698  0.00  0.00    +0.000 HD
ENDBRANCH   6  10
ENDBRANCH   1   3
BRANCH   1  15
ATOM     15  C   UNL     1      49.340   7.003  15.013  0.00  0.00    +0.000 C 
BRANCH  15  16
ATOM     16  C   UNL     1      48.961   7.396  16.446  0.00  0.00    +0.000 C 
BRANCH  16  21
ATOM     17  C   UNL     1      49.353   3.817  17.747  0.00  0.00    +0.000 A 
ATOM     18  C   UNL     1      48.726   3.911  18.996  0.00  0.00    +0.000 A 
ATOM     19  C   UNL     1      48.123   5.104  19.394  0.00  0.00    +0.000 A 
ATOM     20  C   UNL     1      48.163   6.226  18.562  0.00  0.00    +0.000 A 
ATOM     21  C   UNL     1      48.797   6.160  17.313  0.00  0.00    +0.000 A 
ATOM     22  C   UNL     1      49.368   4.943  16.909  0.00  0.00    +0.000 A 
BRANCH  17  23
ATOM     23  C   UNL     1      50.066   2.552  17.340  0.00  0.00    +0.000 C 
BRANCH  23  24
ATOM     24  N   UNL     1      49.414   1.893  16.216  0.00  0.00    +0.000 NA
ATOM     25  H   UNL     1      50.086   1.795  15.456  0.00  0.00    +0.000 HD
ATOM     26  H   UNL     1      48.672   2.499  15.868  0.00  0.00    +0.000 HD
ENDBRANCH  23  24
ENDBRANCH  17  23
ENDBRANCH  16  21
ENDBRANCH  15  16
ENDBRANCH   1  15
TORSDOF 7
ENDMDL
