MODEL 1
REMARK VINA RESULT:    -8.173      0.000      0.000
REMARK INTER + INTRA:         -11.368
REMARK INTER:                 -10.562
REMARK INTRA:                  -0.806
REMARK UNBOUND:                -0.806
REMARK  Name = 
REMARK  5 active torsions:
REMARK  status: ('A' for Active; 'I' for Inactive)
REMARK    1  A    between atoms: C_2  and  C_4
REMARK    2  A    between atoms: C_7  and  N_8
REMARK    3  A    between atoms: N_8  and  C_9
REMARK    4  A    between atoms: C_9  and  C_10
REMARK    5  A    between atoms: C_14  and  N_15
REMARK                            x       y       z     vdW  Elec       q    Type
REMARK                         _______ _______ _______ _____ _____    ______ ____
ROOT
ATOM      1  N   UNL     1      43.730   4.915   9.739  0.00  0.00    +0.000 N 
ATOM      2  H   UNL     1      43.963   5.879   9.505  0.00  0.00    +0.000 HD
ENDROOT
BRANCH   1   6
ATOM      3  C   UNL     1      46.182   2.022   8.005  0.00  0.00    +0.000 A 
ATOM      4  C   UNL     1      46.417   3.351   7.668  0.00  0.00    +0.000 A 
ATOM      5  C   UNL     1      45.591   4.336   8.222  0.00  0.00    +0.000 A 
ATOM      6  C   UNL     1      44.534   3.989   9.069  0.00  0.00    +0.000 A 
ATOM      7  C   UNL     1      44.421   2.623   9.356  0.00  0.00    +0.000 A 
ATOM      8  N   UNL     1      45.189   1.629   8.842  0.00  0.00    +0.000 NA
BRANCH   3  10
ATOM      9  N   UNL     1      48.024   1.327   6.560  0.00  0.00    +0.000 N 
ATOM     10  C   UNL     1      47.042   0.944   7.435  0.00  0.00    +0.000 C 
ATOM     11  O   UNL     1      46.903  -0.238   7.751  0.00  0.00    +0.000 OA
ATOM     12  H   UNL     1      48.678   0.625   6.248  0.00  0.00    +0.000 HD
ATOM     13  H   UNL     1      48.248   2.311   6.458  0.00  0.00    +0.000 HD
ENDBRANCH   3  10
ENDBRANCH   1   6
BRANCH   1  14
ATOM     14  C   UNL     1      43.445   4.768  11.167  0.00  0.00    +0.000 C 
BRANCH  14  15
ATOM     15  C   UNL     1      44.699   4.813  12.001  0.00  0.00    +0.000 A 
ATOM     16  C   UNL     1      45.071   3.699  12.746  0.00  0.00    +0.000 A 
ATOM     17  N   UNL     1      46.155   3.641  13.543  0.00  0.00    +0.000 NA
ATOM     18  C   UNL     1      46.913   4.761  13.599  0.00  0.00    +0.000 A 
ATOM     19  C   UNL     1      46.656   5.957  12.923  0.00  0.00    +0.000 A 
ATOM     20  C   UNL     1      45.496   5.956  12.136  0.00  0.00    +0.000 A 
BRANCH  19  21
ATOM     21  N   UNL     1      47.481   7.059  13.006  0.00  0.00    +0.000 N 
ATOM     22  C   UNL     1      46.963   8.382  13.353  0.00  0.00    +0.000 C 
ATOM     23  C   UNL     1      47.283   9.362  12.230  0.00  0.00    +0.000 C 
ATOM     24  C   UNL     1      48.772   9.344  11.885  0.00  0.00    +0.000 C 
ATOM     25  C   UNL     1      49.264   7.926  11.600  0.00  0.00    +0.000 C 
ATOM     26  C   UNL     1      48.915   6.970  12.740  0.00  0.00    +0.000 C 
ENDBRANCH  19  21
ENDBRANCH  14  15
ENDBRANCH   1  14
TORSDOF 5
ENDMDL
MODEL 2
REMARK VINA RESULT:    -7.241      1.396      2.013
REMARK INTER + INTRA:         -10.163
REMARK INTER:                  -9.490
REMARK INTRA:                  -0.673
REMARK UNBOUND:                -0.806
REMARK  Name = 
REMARK  5 active torsions:
REMARK  status: ('A' for Active; 'I' for Inactive)
REMARK    1  A    between atoms: C_2  and  C_4
REMARK    2  A    between atoms: C_7  and  N_8
REMARK    3  A    between atoms: N_8  and  C_9
REMARK    4  A    between atoms: C_9  and  C_10
REMARK    5  A    between atoms: C_14  and  N_15
REMARK                            x       y       z     vdW  Elec       q    Type
REMARK                         _______ _______ _______ _____ _____    ______ ____
ROOT
ATOM      1  N   UNL     1      44.046   3.310   9.870  0.00  0.00    +0.000 N 
ATOM      2  H   UNL     1      43.107   3.008   9.616  0.00  0.00    +0.000 HD
ENDROOT
BRANCH   1   6
ATOM      3  C   UNL     1      46.745   2.239   6.877  0.00  0.00    +0.000 A 
ATOM      4  C   UNL     1      46.392   1.265   7.805  0.00  0.00    +0.000 A 
ATOM      5  C   UNL     1      45.505   1.609   8.831  0.00  0.00    +0.000 A 
ATOM      6  C   UNL     1      45.009   2.912   8.938  0.00  0.00    +0.000 A 
ATOM      7  C   UNL     1      45.415   3.792   7.927  0.00  0.00    +0.000 A 
ATOM      8  N   UNL     1      46.276   3.512   6.917  0.00  0.00    +0.000 NA
BRANCH   3  10
ATOM      9  N   UNL     1      48.246   2.962   5.092  0.00  0.00    +0.000 N 
ATOM     10  C   UNL     1      47.689   1.909   5.769  0.00  0.00    +0.000 C 
ATOM     11  O   UNL     1      47.982   0.748   5.484  0.00  0.00    +0.000 OA
ATOM     12  H   UNL     1      48.963   2.759   4.412  0.00  0.00    +0.000 HD
ATOM     13  H   UNL     1      48.145   3.902   5.458  0.00  0.00    +0.000 HD
ENDBRANCH   3  10
ENDBRANCH   1   6
BRANCH   1  14
ATOM     14  C   UNL     1      44.039   4.671  10.409  0.00  0.00    +0.000 C 
BRANCH  14  15
ATOM     15  C   UNL     1      45.016   4.833  11.545  0.00  0.00    +0.000 A 
ATOM     16  C   UNL     1      45.094   3.857  12.532  0.00  0.00    +0.000 A 
ATOM     17  N   UNL     1      45.911   3.916  13.601  0.00  0.00    +0.000 NA
ATOM     18  C   UNL     1      46.698   5.014  13.689  0.00  0.00    +0.000 A 
ATOM     19  C   UNL     1      46.716   6.081  12.787  0.00  0.00    +0.000 A 
ATOM     20  C   UNL     1      45.819   5.967  11.715  0.00  0.00    +0.000 A 
BRANCH  19  21
ATOM     21  N   UNL     1      47.559   7.165  12.922  0.00  0.00    +0.000 N 
ATOM     22  C   UNL     1      48.991   7.062  12.646  0.00  0.00    +0.000 C 
ATOM     23  C   UNL     1      49.777   7.451  13.894  0.00  0.00    +0.000 C 
ATOM     24  C   UNL     1      49.338   8.815  14.424  0.00  0.00    +0.000 C 
ATOM     25  C   UNL     1      47.824   8.877  14.626  0.00  0.00    +0.000 C 
ATOM     26  C   UNL     1      47.071   8.470  13.360  0.00  0.00    +0.000 C 
ENDBRANCH  19  21
ENDBRANCH  14  15
ENDBRANCH   1  14
TORSDOF 5
ENDMDL
MODEL 3
REMARK VINA RESULT:    -6.983      2.903      6.932
REMARK INTER + INTRA:          -9.829
REMARK INTER:                  -9.282
REMARK INTRA:                  -0.547
REMARK UNBOUND:                -0.806
REMARK  Name = 
REMARK  5 active torsions:
REMARK  status: ('A' for Active; 'I' for Inactive)
REMARK    1  A    between atoms: C_2  and  C_4
REMARK    2  A    between atoms: C_7  and  N_8
REMARK    3  A    between atoms: N_8  and  C_9
REMARK    4  A    between atoms: C_9  and  C_10
REMARK    5  A    between atoms: C_14  and  N_15
REMARK                            x       y       z     vdW  Elec       q    Type
REMARK                         _______ _______ _______ _____ _____    ______ ____
ROOT
ATOM      1  N   UNL     1      47.367   6.494  12.630  0.00  0.00    +0.000 N 
ATOM      2  H   UNL     1      48.121   7.165  12.492  0.00  0.00    +0.000 HD
ENDROOT
BRANCH   1   6
ATOM      3  C   UNL     1      47.553   4.166  16.084  0.00  0.00    +0.000 A 
ATOM      4  C   UNL     1      48.148   5.423  16.121  0.00  0.00    +0.000 A 
ATOM      5  C   UNL     1      48.116   6.212  14.965  0.00  0.00    +0.000 A 
ATOM      6  C   UNL     1      47.527   5.734  13.791  0.00  0.00    +0.000 A 
ATOM      7  C   UNL     1      46.937   4.468  13.890  0.00  0.00    +0.000 A 
ATOM      8  N   UNL     1      46.945   3.661  14.981  0.00  0.00    +0.000 NA
BRANCH   3  10
ATOM      9  N   UNL     1      48.722   3.272  18.032  0.00  0.00    +0.000 N 
ATOM     10  C   UNL     1      47.566   3.296  17.296  0.00  0.00    +0.000 C 
ATOM     11  O   UNL     1      46.581   2.646  17.645  0.00  0.00    +0.000 OA
ATOM     12  H   UNL     1      48.713   2.772  18.909  0.00  0.00    +0.000 HD
ATOM     13  H   UNL     1      49.450   3.951  17.843  0.00  0.00    +0.000 HD
ENDBRANCH   3  10
ENDBRANCH   1   6
BRANCH   1  14
ATOM     14  C   UNL     1      46.068   7.076  12.286  0.00  0.00    +0.000 C 
BRANCH  14  15
ATOM     15  C   UNL     1      45.133   6.057  11.689  0.00  0.00    +0.000 A 
ATOM     16  C   UNL     1      43.905   5.812  12.293  0.00  0.00    +0.000 A 
ATOM     17  N   UNL     1      43.007   4.907  11.859  0.00  0.00    +0.000 NA
ATOM     18  C   UNL     1      43.356   4.205  10.755  0.00  0.00    +0.000 A 
ATOM     19  C   UNL     1      44.559   4.328  10.054  0.00  0.00    +0.000 A 
ATOM     20  C   UNL     1      45.458   5.267  10.580  0.00  0.00    +0.000 A 
BRANCH  19  21
ATOM     21  N   UNL     1      44.847   3.596   8.921  0.00  0.00    +0.000 N 
ATOM     22  C   UNL     1      44.618   2.153   8.862  0.00  0.00    +0.000 C 
ATOM     23  C   UNL     1      45.931   1.444   8.548  0.00  0.00    +0.000 C 
ATOM     24  C   UNL     1      46.592   2.025   7.299  0.00  0.00    +0.000 C 
ATOM     25  C   UNL     1      46.740   3.543   7.398  0.00  0.00    +0.000 C 
ATOM     26  C   UNL     1      45.408   4.217   7.724  0.00  0.00    +0.000 C 
ENDBRANCH  19  21
ENDBRANCH  14  15
ENDBRANCH   1  14
TORSDOF 5
ENDMDL
MODEL 4
REMARK VINA RESULT:    -6.959      3.691      7.621
REMARK INTER + INTRA:          -9.799
REMARK INTER:                  -9.091
REMARK INTRA:                  -0.708
REMARK UNBOUND:                -0.806
REMARK  Name = 
REMARK  5 active torsions:
REMARK  status: ('A' for Active; 'I' for Inactive)
REMARK    1  A    between atoms: C_2  and  C_4
REMARK    2  A    between atoms: C_7  and  N_8
REMARK    3  A    between atoms: N_8  and  C_9
REMARK    4  A    between atoms: C_9  and  C_10
REMARK    5  A    between atoms: C_14  and  N_15
REMARK                            x       y       z     vdW  Elec       q    Type
REMARK                         _______ _______ _______ _____ _____    ______ ____
ROOT
ATOM      1  N   UNL     1      47.188   5.796  13.332  0.00  0.00    +0.000 N 
ATOM      2  H   UNL     1      47.884   6.423  12.929  0.00  0.00    +0.000 HD
ENDROOT
BRANCH   1   6
ATOM      3  C   UNL     1      48.358   4.774  17.201  0.00  0.00    +0.000 A 
ATOM      4  C   UNL     1      47.452   3.936  16.560  0.00  0.00    +0.000 A 
ATOM      5  C   UNL     1      47.029   4.272  15.269  0.00  0.00    +0.000 A 
ATOM      6  C   UNL     1      47.483   5.442  14.651  0.00  0.00    +0.000 A 
ATOM      7  C   UNL     1      48.415   6.185  15.387  0.00  0.00    +0.000 A 
ATOM      8  N   UNL     1      48.851   5.907  16.641  0.00  0.00    +0.000 NA
BRANCH   3  10
ATOM      9  N   UNL     1      48.493   3.219  19.079  0.00  0.00    +0.000 N 
ATOM     10  C   UNL     1      48.832   4.448  18.579  0.00  0.00    +0.000 C 
ATOM     11  O   UNL     1      49.521   5.230  19.234  0.00  0.00    +0.000 OA
ATOM     12  H   UNL     1      48.892   2.943  19.964  0.00  0.00    +0.000 HD
ATOM     13  H   UNL     1      48.094   2.520  18.463  0.00  0.00    +0.000 HD
ENDBRANCH   3  10
ENDBRANCH   1   6
BRANCH   1  14
ATOM     14  C   UNL     1      45.832   6.187  12.944  0.00  0.00    +0.000 C 
BRANCH  14  15
ATOM     15  C   UNL     1      45.087   5.058  12.280  0.00  0.00    +0.000 A 
ATOM     16  C   UNL     1      44.099   4.379  12.983  0.00  0.00    +0.000 A 
ATOM     17  N   UNL     1      43.392   3.341  12.496  0.00  0.00    +0.000 NA
ATOM     18  C   UNL     1      43.689   2.960  11.232  0.00  0.00    +0.000 A 
ATOM     19  C   UNL     1      44.666   3.533  10.413  0.00  0.00    +0.000 A 
ATOM     20  C   UNL     1      45.383   4.588  10.995  0.00  0.00    +0.000 A 
BRANCH  19  21
ATOM     21  N   UNL     1      44.908   3.111   9.122  0.00  0.00    +0.000 N 
ATOM     22  C   UNL     1      44.988   1.691   8.782  0.00  0.00    +0.000 C 
ATOM     23  C   UNL     1      46.350   1.394   8.164  0.00  0.00    +0.000 C 
ATOM     24  C   UNL     1      46.648   2.335   6.997  0.00  0.00    +0.000 C 
ATOM     25  C   UNL     1      46.480   3.799   7.401  0.00  0.00    +0.000 C 
ATOM     26  C   UNL     1      45.109   4.056   8.027  0.00  0.00    +0.000 C 
ENDBRANCH  19  21
ENDBRANCH  14  15
ENDBRANCH   1  14
TORSDOF 5
ENDMDL
MODEL 5
REMARK VINA RESULT:    -6.831      2.785      6.962
REMARK INTER + INTRA:          -9.633
REMARK INTER:                  -9.183
REMARK INTRA:                  -0.450
REMARK UNBOUND:                -0.806
REMARK  Name = 
REMARK  5 active torsions:
REMARK  status: ('A' for Active; 'I' for Inactive)
REMARK    1  A    between atoms: C_2  and  C_4
REMARK    2  A    between atoms: C_7  and  N_8
REMARK    3  A    between atoms: N_8  and  C_9
REMARK    4  A    between atoms: C_9  and  C_10
REMARK    5  A    between atoms: C_14  and  N_15
REMARK                            x       y       z     vdW  Elec       q    Type
REMARK                         _______ _______ _______ _____ _____    ______ ____
ROOT
ATOM      1  N   UNL     1      45.727   6.206  11.105  0.00  0.00    +0.000 N 
ATOM      2  H   UNL     1      45.736   7.221  11.011  0.00  0.00    +0.000 HD
ENDROOT
BRANCH   1   6
ATOM      3  C   UNL     1      47.218   4.908  14.775  0.00  0.00    +0.000 A 
ATOM      4  C   UNL     1      47.866   5.972  14.158  0.00  0.00    +0.000 A 
ATOM      5  C   UNL     1      47.395   6.410  12.914  0.00  0.00    +0.000 A 
ATOM      6  C   UNL     1      46.318   5.770  12.293  0.00  0.00    +0.000 A 
ATOM      7  C   UNL     1      45.733   4.733  13.029  0.00  0.00    +0.000 A 
ATOM      8  N   UNL     1      46.153   4.266  14.232  0.00  0.00    +0.000 NA
BRANCH   3  10
ATOM      9  N   UNL     1      46.894   3.505  16.747  0.00  0.00    +0.000 N 
ATOM     10  C   UNL     1      47.691   4.413  16.102  0.00  0.00    +0.000 C 
ATOM     11  O   UNL     1      48.761   4.776  16.591  0.00  0.00    +0.000 OA
ATOM     12  H   UNL     1      47.248   3.084  17.593  0.00  0.00    +0.000 HD
ATOM     13  H   UNL     1      46.121   3.076  16.252  0.00  0.00    +0.000 HD
ENDBRANCH   3  10
ENDBRANCH   1   6
BRANCH   1  14
ATOM     14  C   UNL     1      44.457   5.643  10.645  0.00  0.00    +0.000 C 
BRANCH  14  15
ATOM     15  C   UNL     1      44.639   4.296   9.993  0.00  0.00    +0.000 A 
ATOM     16  C   UNL     1      43.845   3.226  10.388  0.00  0.00    +0.000 A 
ATOM     17  N   UNL     1      43.942   1.978   9.892  0.00  0.00    +0.000 NA
ATOM     18  C   UNL     1      44.889   1.788   8.943  0.00  0.00    +0.000 A 
ATOM     19  C   UNL     1      45.770   2.760   8.460  0.00  0.00    +0.000 A 
ATOM     20  C   UNL     1      45.632   4.027   9.044  0.00  0.00    +0.000 A 
BRANCH  19  21
ATOM     21  N   UNL     1      46.701   2.507   7.475  0.00  0.00    +0.000 N 
ATOM     22  C   UNL     1      47.035   3.505   6.460  0.00  0.00    +0.000 C 
ATOM     23  C   UNL     1      46.758   2.933   5.074  0.00  0.00    +0.000 C 
ATOM     24  C   UNL     1      47.454   1.586   4.881  0.00  0.00    +0.000 C 
ATOM     25  C   UNL     1      47.116   0.613   6.010  0.00  0.00    +0.000 C 
ATOM     26  C   UNL     1      47.396   1.225   7.382  0.00  0.00    +0.000 C 
ENDBRANCH  19  21
ENDBRANCH  14  15
ENDBRANCH   1  14
TORSDOF 5
ENDMDL
MODEL 6
REMARK VINA RESULT:    -6.736      2.849      6.701
REMARK INTER + INTRA:          -9.510
REMARK INTER:                  -8.745
REMARK INTRA:                  -0.765
REMARK UNBOUND:                -0.806
REMARK  Name = 
REMARK  5 active torsions:
REMARK  status: ('A' for Active; 'I' for Inactive)
REMARK    1  A    between atoms: C_2  and  C_4
REMARK    2  A    between atoms: C_7  and  N_8
REMARK    3  A    between atoms: N_8  and  C_9
REMARK    4  A    between atoms: C_9  and  C_10
REMARK    5  A    between atoms: C_14  and  N_15
REMARK                            x       y       z     vdW  Elec       q    Type
REMARK                         _______ _______ _______ _____ _____    ______ ____
ROOT
ATOM      1  N   UNL     1      45.987   6.810  13.337  0.00  0.00    +0.000 N 
ATOM      2  H   UNL     1      46.142   5.949  13.861  0.00  0.00    +0.000 HD
ENDROOT
BRANCH   1   6
ATOM      3  C   UNL     1      49.637   8.256  11.934  0.00  0.00    +0.000 A 
ATOM      4  C   UNL     1      48.532   9.094  11.836  0.00  0.00    +0.000 A 
ATOM      5  C   UNL     1      47.292   8.621  12.281  0.00  0.00    +0.000 A 
ATOM      6  C   UNL     1      47.162   7.322  12.783  0.00  0.00    +0.000 A 
ATOM      7  C   UNL     1      48.353   6.588  12.858  0.00  0.00    +0.000 A 
ATOM      8  N   UNL     1      49.576   6.996  12.435  0.00  0.00    +0.000 NA
BRANCH   3  10
ATOM      9  N   UNL     1      52.064   7.999  11.874  0.00  0.00    +0.000 N 
ATOM     10  C   UNL     1      50.975   8.726  11.470  0.00  0.00    +0.000 C 
ATOM     11  O   UNL     1      51.105   9.704  10.734  0.00  0.00    +0.000 OA
ATOM     12  H   UNL     1      52.963   8.241  11.485  0.00  0.00    +0.000 HD
ATOM     13  H   UNL     1      51.929   7.097  12.315  0.00  0.00    +0.000 HD
ENDBRANCH   3  10
ENDBRANCH   1   6
BRANCH   1  14
ATOM     14  C   UNL     1      44.754   6.739  12.552  0.00  0.00    +0.000 C 
BRANCH  14  15
ATOM     15  C   UNL     1      44.468   5.338  12.075  0.00  0.00    +0.000 A 
ATOM     16  C   UNL     1      43.894   4.418  12.944  0.00  0.00    +0.000 A 
ATOM     17  N   UNL     1      43.621   3.137  12.630  0.00  0.00    +0.000 NA
ATOM     18  C   UNL     1      43.941   2.752  11.372  0.00  0.00    +0.000 A 
ATOM     19  C   UNL     1      44.538   3.557  10.397  0.00  0.00    +0.000 A 
ATOM     20  C   UNL     1      44.820   4.869  10.804  0.00  0.00    +0.000 A 
BRANCH  19  21
ATOM     21  N   UNL     1      44.820   3.110   9.124  0.00  0.00    +0.000 N 
ATOM     22  C   UNL     1      44.898   1.684   8.810  0.00  0.00    +0.000 C 
ATOM     23  C   UNL     1      46.277   1.363   8.246  0.00  0.00    +0.000 C 
ATOM     24  C   UNL     1      46.626   2.281   7.075  0.00  0.00    +0.000 C 
ATOM     25  C   UNL     1      46.459   3.753   7.448  0.00  0.00    +0.000 C 
ATOM     26  C   UNL     1      45.070   4.034   8.020  0.00  0.00    +0.000 C 
ENDBRANCH  19  21
ENDBRANCH  14  15
ENDBRANCH   1  14
TORSDOF 5
ENDMDL
MODEL 7
REMARK VINA RESULT:    -6.302      3.279      5.658
REMARK INTER + INTRA:          -8.949
REMARK INTER:                  -8.204
REMARK INTRA:                  -0.745
REMARK UNBOUND:                -0.806
REMARK  Name = 
REMARK  5 active torsions:
REMARK  status: ('A' for Active; 'I' for Inactive)
REMARK    1  A    between atoms: C_2  and  C_4
REMARK    2  A    between atoms: C_7  and  N_8
REMARK    3  A    between atoms: N_8  and  C_9
REMARK    4  A    between atoms: C_9  and  C_10
REMARK    5  A    between atoms: C_14  and  N_15
REMARK                            x       y       z     vdW  Elec       q    Type
REMARK                         _______ _______ _______ _____ _____    ______ ____
ROOT
ATOM      1  N   UNL     1      46.349   7.297  13.360  0.00  0.00    +0.000 N 
ATOM      2  H   UNL     1      45.758   8.109  13.533  0.00  0.00    +0.000 HD
ENDROOT
BRANCH   1   6
ATOM      3  C   UNL     1      44.508   3.983  11.624  0.00  0.00    +0.000 A 
ATOM      4  C   UNL     1      44.570   5.152  10.873  0.00  0.00    +0.000 A 
ATOM      5  C   UNL     1      45.164   6.283  11.445  0.00  0.00    +0.000 A 
ATOM      6  C   UNL     1      45.655   6.246  12.754  0.00  0.00    +0.000 A 
ATOM      7  C   UNL     1      45.561   5.004  13.394  0.00  0.00    +0.000 A 
ATOM      8  N   UNL     1      44.990   3.882  12.888  0.00  0.00    +0.000 NA
BRANCH   3  10
ATOM      9  N   UNL     1      44.490   2.203   9.953  0.00  0.00    +0.000 N 
ATOM     10  C   UNL     1      43.882   2.757  11.048  0.00  0.00    +0.000 C 
ATOM     11  O   UNL     1      42.880   2.241  11.544  0.00  0.00    +0.000 OA
ATOM     12  H   UNL     1      44.141   1.318   9.616  0.00  0.00    +0.000 HD
ATOM     13  H   UNL     1      45.411   2.524   9.676  0.00  0.00    +0.000 HD
ENDBRANCH   3  10
ENDBRANCH   1   6
BRANCH   1  14
ATOM     14  C   UNL     1      47.674   7.696  12.884  0.00  0.00    +0.000 C 
BRANCH  14  15
ATOM     15  C   UNL     1      48.734   7.508  13.939  0.00  0.00    +0.000 A 
ATOM     16  C   UNL     1      49.958   8.154  13.808  0.00  0.00    +0.000 A 
ATOM     17  N   UNL     1      50.980   8.035  14.677  0.00  0.00    +0.000 NA
ATOM     18  C   UNL     1      50.767   7.222  15.738  0.00  0.00    +0.000 A 
ATOM     19  C   UNL     1      49.600   6.496  15.991  0.00  0.00    +0.000 A 
ATOM     20  C   UNL     1      48.590   6.645  15.031  0.00  0.00    +0.000 A 
BRANCH  19  21
ATOM     21  N   UNL     1      49.438   5.699  17.105  0.00  0.00    +0.000 N 
ATOM     22  C   UNL     1      50.400   4.653  17.447  0.00  0.00    +0.000 C 
ATOM     23  C   UNL     1      49.687   3.306  17.505  0.00  0.00    +0.000 C 
ATOM     24  C   UNL     1      48.468   3.362  18.426  0.00  0.00    +0.000 C 
ATOM     25  C   UNL     1      47.539   4.517  18.056  0.00  0.00    +0.000 C 
ATOM     26  C   UNL     1      48.290   5.846  17.998  0.00  0.00    +0.000 C 
ENDBRANCH  19  21
ENDBRANCH  14  15
ENDBRANCH   1  14
TORSDOF 5
ENDMDL
MODEL 8
REMARK VINA RESULT:    -6.260      3.138      7.247
REMARK INTER + INTRA:          -8.895
REMARK INTER:                  -8.138
REMARK INTRA:                  -0.757
REMARK UNBOUND:                -0.806
REMARK  Name = 
REMARK  5 active torsions:
REMARK  status: ('A' for Active; 'I' for Inactive)
REMARK    1  A    between atoms: C_2  and  C_4
REMARK    2  A    between atoms: C_7  and  N_8
REMARK    3  A    between atoms: N_8  and  C_9
REMARK    4  A    between atoms: C_9  and  C_10
REMARK    5  A    between atoms: C_14  and  N_15
REMARK                            x       y       z     vdW  Elec       q    Type
REMARK                         _______ _______ _______ _____ _____    ______ ____
ROOT
ATOM      1  N   UNL     1      47.467   5.011  13.457  0.00  0.00    +0.000 N 
ATOM      2  H   UNL     1      47.783   4.429  12.683  0.00  0.00    +0.000 HD
ENDROOT
BRANCH   1   6
ATOM      3  C   UNL     1      48.192   9.105  13.146  0.00  0.00    +0.000 A 
ATOM      4  C   UNL     1      47.551   8.482  12.081  0.00  0.00    +0.000 A 
ATOM      5  C   UNL     1      47.318   7.104  12.155  0.00  0.00    +0.000 A 
ATOM      6  C   UNL     1      47.748   6.366  13.262  0.00  0.00    +0.000 A 
ATOM      7  C   UNL     1      48.353   7.112  14.281  0.00  0.00    +0.000 A 
ATOM      8  N   UNL     1      48.609   8.445  14.256  0.00  0.00    +0.000 NA
BRANCH   3  10
ATOM      9  N   UNL     1      47.400  11.389  12.799  0.00  0.00    +0.000 N 
ATOM     10  C   UNL     1      48.458  10.573  13.104  0.00  0.00    +0.000 C 
ATOM     11  O   UNL     1      49.567  11.044  13.356  0.00  0.00    +0.000 OA
ATOM     12  H   UNL     1      47.538  12.386  12.869  0.00  0.00    +0.000 HD
ATOM     13  H   UNL     1      46.462  11.007  12.783  0.00  0.00    +0.000 HD
ENDBRANCH   3  10
ENDBRANCH   1   6
BRANCH   1  14
ATOM     14  C   UNL     1      46.158   4.578  13.948  0.00  0.00    +0.000 C 
BRANCH  14  15
ATOM     15  C   UNL     1      45.132   4.523  12.846  0.00  0.00    +0.000 A 
ATOM     16  C   UNL     1      43.850   5.010  13.073  0.00  0.00    +0.000 A 
ATOM     17  N   UNL     1      42.852   4.986  12.169  0.00  0.00    +0.000 NA
ATOM     18  C   UNL     1      43.153   4.443  10.966  0.00  0.00    +0.000 A 
ATOM     19  C   UNL     1      44.387   3.898  10.600  0.00  0.00    +0.000 A 
ATOM     20  C   UNL     1      45.369   3.930  11.600  0.00  0.00    +0.000 A 
BRANCH  19  21
ATOM     21  N   UNL     1      44.636   3.376   9.348  0.00  0.00    +0.000 N 
ATOM     22  C   UNL     1      44.614   1.936   9.098  0.00  0.00    +0.000 C 
ATOM     23  C   UNL     1      45.967   1.494   8.551  0.00  0.00    +0.000 C 
ATOM     24  C   UNL     1      46.378   2.333   7.341  0.00  0.00    +0.000 C 
ATOM     25  C   UNL     1      46.315   3.829   7.649  0.00  0.00    +0.000 C 
ATOM     26  C   UNL     1      44.949   4.231   8.205  0.00  0.00    +0.000 C 
ENDBRANCH  19  21
ENDBRANCH  14  15
ENDBRANCH   1  14
TORSDOF 5
ENDMDL
MODEL 9
REMARK VINA RESULT:    -6.024      3.886      6.585
REMARK INTER + INTRA:          -8.590
REMARK INTER:                  -7.790
REMARK INTRA:                  -0.801
REMARK UNBOUND:                -0.806
REMARK  Name = 
REMARK  5 active torsions:
REMARK  status: ('A' for Active; 'I' for Inactive)
REMARK    1  A    between atoms: C_2  and  C_4
REMARK    2  A    between atoms: C_7  and  N_8
REMARK    3  A    between atoms: N_8  and  C_9
REMARK    4  A    between atoms: C_9  and  C_10
REMARK    5  A    between atoms: C_14  and  N_15
REMARK                            x       y       z     vdW  Elec       q    Type
REMARK                         _______ _______ _______ _____ _____    ______ ____
ROOT
ATOM      1  N   UNL     1      48.319   6.702  13.145  0.00  0.00    +0.000 N 
ATOM      2  H   UNL     1      48.961   5.966  13.433  0.00  0.00    +0.000 HD
ENDROOT
BRANCH   1   6
ATOM      3  C   UNL     1      44.459   5.515  12.107  0.00  0.00    +0.000 A 
ATOM      4  C   UNL     1      45.114   4.784  13.091  0.00  0.00    +0.000 A 
ATOM      5  C   UNL     1      46.419   5.152  13.440  0.00  0.00    +0.000 A 
ATOM      6  C   UNL     1      47.060   6.211  12.789  0.00  0.00    +0.000 A 
ATOM      7  C   UNL     1      46.284   6.886  11.839  0.00  0.00    +0.000 A 
ATOM      8  N   UNL     1      45.021   6.567  11.460  0.00  0.00    +0.000 NA
BRANCH   3  10
ATOM      9  N   UNL     1      42.129   6.151  11.747  0.00  0.00    +0.000 N 
ATOM     10  C   UNL     1      43.067   5.153  11.709  0.00  0.00    +0.000 C 
ATOM     11  O   UNL     1      42.768   4.018  11.335  0.00  0.00    +0.000 OA
ATOM     12  H   UNL     1      41.210   5.949  11.382  0.00  0.00    +0.000 HD
ATOM     13  H   UNL     1      42.426   7.112  11.870  0.00  0.00    +0.000 HD
ENDBRANCH   3  10
ENDBRANCH   1   6
BRANCH   1  14
ATOM     14  C   UNL     1      48.450   7.885  13.997  0.00  0.00    +0.000 C 
BRANCH  14  15
ATOM     15  C   UNL     1      48.633   7.518  15.448  0.00  0.00    +0.000 A 
ATOM     16  C   UNL     1      48.585   8.510  16.420  0.00  0.00    +0.000 A 
ATOM     17  N   UNL     1      48.761   8.296  17.738  0.00  0.00    +0.000 NA
ATOM     18  C   UNL     1      48.998   7.015  18.107  0.00  0.00    +0.000 A 
ATOM     19  C   UNL     1      49.092   5.920  17.244  0.00  0.00    +0.000 A 
ATOM     20  C   UNL     1      48.928   6.221  15.884  0.00  0.00    +0.000 A 
BRANCH  19  21
ATOM     21  N   UNL     1      49.315   4.633  17.685  0.00  0.00    +0.000 N 
ATOM     22  C   UNL     1      50.567   4.251  18.337  0.00  0.00    +0.000 C 
ATOM     23  C   UNL     1      51.226   3.124  17.551  0.00  0.00    +0.000 C 
ATOM     24  C   UNL     1      50.258   1.962  17.327  0.00  0.00    +0.000 C 
ATOM     25  C   UNL     1      48.945   2.439  16.706  0.00  0.00    +0.000 C 
ATOM     26  C   UNL     1      48.321   3.576  17.515  0.00  0.00    +0.000 C 
ENDBRANCH  19  21
ENDBRANCH  14  15
ENDBRANCH   1  14
TORSDOF 5
ENDMDL
