MODEL 1
REMARK VINA RESULT:    -6.931      0.000      0.000
REMARK INTER + INTRA:         -10.212
REMARK INTER:                  -9.565
REMARK INTRA:                  -0.647
REMARK UNBOUND:                -0.647
REMARK  Name = 
REMARK  8 active torsions:
REMARK  status: ('A' for Active; 'I' for Inactive)
REMARK    1  A    between atoms: C_1  and  C_2
REMARK    2  A    between atoms: C_2  and  N_3
REMARK    3  A    between atoms: N_3  and  C_4
REMARK    4  A    between atoms: C_4  and  C_5
REMARK    5  A    between atoms: C_5  and  C_6
REMARK    6  A    between atoms: C_10  and  C_11
REMARK    7  A    between atoms: C_11  and  N_12
REMARK    8  A    between atoms: C_17  and  C_18
REMARK                            x       y       z     vdW  Elec       q    Type
REMARK                         _______ _______ _______ _____ _____    ______ ____
ROOT
ATOM      1  N   UNL     1      45.208   4.656  11.505  0.00  0.00    +0.000 N 
ATOM      2  C   UNL     1      46.086   5.232  12.457  0.00  0.00    +0.000 A 
ATOM      3  C   UNL     1      46.147   4.748  13.767  0.00  0.00    +0.000 A 
ATOM      4  C   UNL     1      47.050   5.283  14.687  0.00  0.00    +0.000 A 
ATOM      5  C   UNL     1      47.921   6.290  14.293  0.00  0.00    +0.000 A 
ATOM      6  C   UNL     1      47.813   6.726  12.986  0.00  0.00    +0.000 A 
ATOM      7  N   UNL     1      46.919   6.232  12.086  0.00  0.00    +0.000 NA
ENDROOT
BRANCH   5   8
ATOM      8  C   UNL     1      48.901   6.815  15.272  0.00  0.00    +0.000 C 
ATOM      9  N   UNL     1      48.450   7.328  16.456  0.00  0.00    +0.000 N 
ATOM     10  O   UNL     1      50.103   6.803  15.032  0.00  0.00    +0.000 OA
ATOM     11  H   UNL     1      47.486   7.443  16.726  0.00  0.00    +0.000 HD
ATOM     12  H   UNL     1      49.156   7.704  17.076  0.00  0.00    +0.000 HD
ENDBRANCH   5   8
BRANCH   1  14
ATOM     13  C   UNL     1      43.567   2.843  12.209  0.00  0.00    +0.000 C 
ATOM     14  C   UNL     1      43.884   4.321  12.069  0.00  0.00    +0.000 C 
ENDBRANCH   1  14
BRANCH   1  15
ATOM     15  C   UNL     1      45.304   5.263  10.153  0.00  0.00    +0.000 C 
BRANCH  15  16
ATOM     16  C   UNL     1      44.477   4.471   9.112  0.00  0.00    +0.000 C 
BRANCH  16  17
ATOM     17  C   UNL     1      45.234   3.340   8.447  0.00  0.00    +0.000 A 
ATOM     18  C   UNL     1      45.263   2.068   9.029  0.00  0.00    +0.000 A 
ATOM     19  C   UNL     1      45.983   1.035   8.430  0.00  0.00    +0.000 A 
ATOM     20  C   UNL     1      46.675   1.257   7.238  0.00  0.00    +0.000 A 
ATOM     21  C   UNL     1      46.674   2.522   6.635  0.00  0.00    +0.000 A 
ATOM     22  C   UNL     1      45.941   3.556   7.250  0.00  0.00    +0.000 A 
BRANCH  21  23
ATOM     23  C   UNL     1      47.349   2.777   5.307  0.00  0.00    +0.000 C 
BRANCH  23  24
ATOM     24  N   UNL     1      48.332   1.761   4.934  0.00  0.00    +0.000 NA
ATOM     25  H   UNL     1      48.055   1.349   4.045  0.00  0.00    +0.000 HD
ATOM     26  H   UNL     1      48.307   1.009   5.621  0.00  0.00    +0.000 HD
ENDBRANCH  23  24
ENDBRANCH  21  23
ENDBRANCH  16  17
ENDBRANCH  15  16
ENDBRANCH   1  15
TORSDOF 7
ENDMDL
MODEL 2
REMARK VINA RESULT:    -6.891      3.068      7.244
REMARK INTER + INTRA:         -10.157
REMARK INTER:                  -9.511
REMARK INTRA:                  -0.646
REMARK UNBOUND:                -0.647
REMARK  Name = 
REMARK  8 active torsions:
REMARK  status: ('A' for Active; 'I' for Inactive)
REMARK    1  A    between atoms: C_1  and  C_2
REMARK    2  A    between atoms: C_2  and  N_3
REMARK    3  A    between atoms: N_3  and  C_4
REMARK    4  A    between atoms: C_4  and  C_5
REMARK    5  A    between atoms: C_5  and  C_6
REMARK    6  A    between atoms: C_10  and  C_11
REMARK    7  A    between atoms: C_11  and  N_12
REMARK    8  A    between atoms: C_17  and  C_18
REMARK                            x       y       z     vdW  Elec       q    Type
REMARK                         _______ _______ _______ _____ _____    ______ ____
ROOT
ATOM      1  N   UNL     1      44.489   4.121  10.332  0.00  0.00    +0.000 N 
ATOM      2  C   UNL     1      45.268   3.577   9.280  0.00  0.00    +0.000 A 
ATOM      3  C   UNL     1      45.431   2.195   9.144  0.00  0.00    +0.000 A 
ATOM      4  C   UNL     1      46.156   1.661   8.077  0.00  0.00    +0.000 A 
ATOM      5  C   UNL     1      46.698   2.508   7.119  0.00  0.00    +0.000 A 
ATOM      6  C   UNL     1      46.502   3.862   7.308  0.00  0.00    +0.000 A 
ATOM      7  N   UNL     1      45.822   4.398   8.358  0.00  0.00    +0.000 NA
ENDROOT
BRANCH   5   8
ATOM      8  C   UNL     1      47.427   1.918   5.972  0.00  0.00    +0.000 C 
ATOM      9  N   UNL     1      48.191   2.728   5.180  0.00  0.00    +0.000 N 
ATOM     10  O   UNL     1      47.345   0.721   5.719  0.00  0.00    +0.000 OA
ATOM     11  H   UNL     1      48.276   3.730   5.260  0.00  0.00    +0.000 HD
ATOM     12  H   UNL     1      48.641   2.283   4.391  0.00  0.00    +0.000 HD
ENDBRANCH   5   8
BRANCH   1  14
ATOM     13  C   UNL     1      43.471   2.745  12.216  0.00  0.00    +0.000 C 
ATOM     14  C   UNL     1      44.691   3.424  11.619  0.00  0.00    +0.000 C 
ENDBRANCH   1  14
BRANCH   1  15
ATOM     15  C   UNL     1      44.385   5.602  10.300  0.00  0.00    +0.000 C 
BRANCH  15  16
ATOM     16  C   UNL     1      44.457   6.210  11.721  0.00  0.00    +0.000 C 
BRANCH  16  17
ATOM     17  C   UNL     1      45.534   7.261  11.893  0.00  0.00    +0.000 A 
ATOM     18  C   UNL     1      45.194   8.613  12.005  0.00  0.00    +0.000 A 
ATOM     19  C   UNL     1      46.189   9.581  12.136  0.00  0.00    +0.000 A 
ATOM     20  C   UNL     1      47.535   9.211  12.167  0.00  0.00    +0.000 A 
ATOM     21  C   UNL     1      47.908   7.865  12.047  0.00  0.00    +0.000 A 
ATOM     22  C   UNL     1      46.893   6.898  11.918  0.00  0.00    +0.000 A 
BRANCH  21  23
ATOM     23  C   UNL     1      49.350   7.423  12.152  0.00  0.00    +0.000 C 
BRANCH  23  24
ATOM     24  N   UNL     1      49.704   6.848  13.449  0.00  0.00    +0.000 NA
ATOM     25  H   UNL     1      48.856   6.748  14.004  0.00  0.00    +0.000 HD
ATOM     26  H   UNL     1      50.299   7.505  13.950  0.00  0.00    +0.000 HD
ENDBRANCH  23  24
ENDBRANCH  21  23
ENDBRANCH  16  17
ENDBRANCH  15  16
ENDBRANCH   1  15
TORSDOF 7
ENDMDL
MODEL 3
REMARK VINA RESULT:    -6.890      3.005      7.067
REMARK INTER + INTRA:         -10.155
REMARK INTER:                 -10.038
REMARK INTRA:                  -0.117
REMARK UNBOUND:                -0.647
REMARK  Name = 
REMARK  8 active torsions:
REMARK  status: ('A' for Active; 'I' for Inactive)
REMARK    1  A    between atoms: C_1  and  C_2
REMARK    2  A    between atoms: C_2  and  N_3
REMARK    3  A    between atoms: N_3  and  C_4
REMARK    4  A    between atoms: C_4  and  C_5
REMARK    5  A    between atoms: C_5  and  C_6
REMARK    6  A    between atoms: C_10  and  C_11
REMARK    7  A    between atoms: C_11  and  N_12
REMARK    8  A    between atoms: C_17  and  C_18
REMARK                            x       y       z     vdW  Elec       q    Type
REMARK                         _______ _______ _______ _____ _____    ______ ____
ROOT
ATOM      1  N   UNL     1      44.095   3.770  10.330  0.00  0.00    +0.000 N 
ATOM      2  C   UNL     1      44.969   3.406   9.275  0.00  0.00    +0.000 A 
ATOM      3  C   UNL     1      45.342   2.073   9.075  0.00  0.00    +0.000 A 
ATOM      4  C   UNL     1      46.161   1.712   8.004  0.00  0.00    +0.000 A 
ATOM      5  C   UNL     1      46.591   2.681   7.107  0.00  0.00    +0.000 A 
ATOM      6  C   UNL     1      46.190   3.978   7.358  0.00  0.00    +0.000 A 
ATOM      7  N   UNL     1      45.414   4.349   8.413  0.00  0.00    +0.000 NA
ENDROOT
BRANCH   5   8
ATOM      8  C   UNL     1      47.425   2.269   5.953  0.00  0.00    +0.000 C 
ATOM      9  N   UNL     1      48.783   2.387   6.037  0.00  0.00    +0.000 N 
ATOM     10  O   UNL     1      46.913   1.836   4.926  0.00  0.00    +0.000 OA
ATOM     11  H   UNL     1      49.300   2.787   6.805  0.00  0.00    +0.000 HD
ATOM     12  H   UNL     1      49.305   2.124   5.211  0.00  0.00    +0.000 HD
ENDBRANCH   5   8
BRANCH   1  14
ATOM     13  C   UNL     1      43.223   2.231  12.160  0.00  0.00    +0.000 C 
ATOM     14  C   UNL     1      44.370   3.042  11.585  0.00  0.00    +0.000 C 
ENDBRANCH   1  14
BRANCH   1  15
ATOM     15  C   UNL     1      43.770   5.219  10.370  0.00  0.00    +0.000 C 
BRANCH  15  16
ATOM     16  C   UNL     1      43.871   5.787  11.805  0.00  0.00    +0.000 C 
BRANCH  16  17
ATOM     17  C   UNL     1      45.288   5.921  12.322  0.00  0.00    +0.000 A 
ATOM     18  C   UNL     1      46.212   6.735  11.658  0.00  0.00    +0.000 A 
ATOM     19  C   UNL     1      47.523   6.835  12.121  0.00  0.00    +0.000 A 
ATOM     20  C   UNL     1      47.926   6.130  13.257  0.00  0.00    +0.000 A 
ATOM     21  C   UNL     1      47.028   5.299  13.939  0.00  0.00    +0.000 A 
ATOM     22  C   UNL     1      45.706   5.209  13.462  0.00  0.00    +0.000 A 
BRANCH  21  23
ATOM     23  C   UNL     1      47.410   4.582  15.214  0.00  0.00    +0.000 C 
BRANCH  23  24
ATOM     24  N   UNL     1      47.655   3.152  15.043  0.00  0.00    +0.000 NA
ATOM     25  H   UNL     1      48.559   2.924  15.453  0.00  0.00    +0.000 HD
ATOM     26  H   UNL     1      47.730   2.946  14.048  0.00  0.00    +0.000 HD
ENDBRANCH  23  24
ENDBRANCH  21  23
ENDBRANCH  16  17
ENDBRANCH  15  16
ENDBRANCH   1  15
TORSDOF 7
ENDMDL
MODEL 4
REMARK VINA RESULT:    -6.776      3.307      7.233
REMARK INTER + INTRA:          -9.998
REMARK INTER:                  -9.708
REMARK INTRA:                  -0.290
REMARK UNBOUND:                -0.647
REMARK  Name = 
REMARK  8 active torsions:
REMARK  status: ('A' for Active; 'I' for Inactive)
REMARK    1  A    between atoms: C_1  and  C_2
REMARK    2  A    between atoms: C_2  and  N_3
REMARK    3  A    between atoms: N_3  and  C_4
REMARK    4  A    between atoms: C_4  and  C_5
REMARK    5  A    between atoms: C_5  and  C_6
REMARK    6  A    between atoms: C_10  and  C_11
REMARK    7  A    between atoms: C_11  and  N_12
REMARK    8  A    between atoms: C_17  and  C_18
REMARK                            x       y       z     vdW  Elec       q    Type
REMARK                         _______ _______ _______ _____ _____    ______ ____
ROOT
ATOM      1  N   UNL     1      43.956   4.112  10.651  0.00  0.00    +0.000 N 
ATOM      2  C   UNL     1      44.822   3.725   9.597  0.00  0.00    +0.000 A 
ATOM      3  C   UNL     1      45.041   2.375   9.303  0.00  0.00    +0.000 A 
ATOM      4  C   UNL     1      45.854   1.999   8.232  0.00  0.00    +0.000 A 
ATOM      5  C   UNL     1      46.432   2.974   7.429  0.00  0.00    +0.000 A 
ATOM      6  C   UNL     1      46.178   4.288   7.771  0.00  0.00    +0.000 A 
ATOM      7  N   UNL     1      45.410   4.670   8.828  0.00  0.00    +0.000 NA
ENDROOT
BRANCH   5   8
ATOM      8  C   UNL     1      47.257   2.553   6.272  0.00  0.00    +0.000 C 
ATOM      9  N   UNL     1      48.610   2.448   6.422  0.00  0.00    +0.000 N 
ATOM     10  O   UNL     1      46.743   2.308   5.186  0.00  0.00    +0.000 OA
ATOM     11  H   UNL     1      49.138   2.685   7.248  0.00  0.00    +0.000 HD
ATOM     12  H   UNL     1      49.131   2.189   5.594  0.00  0.00    +0.000 HD
ENDBRANCH   5   8
BRANCH   1  14
ATOM     13  C   UNL     1      45.489   3.141  12.435  0.00  0.00    +0.000 C 
ATOM     14  C   UNL     1      44.092   3.263  11.852  0.00  0.00    +0.000 C 
ENDBRANCH   1  14
BRANCH   1  15
ATOM     15  C   UNL     1      43.804   5.582  10.796  0.00  0.00    +0.000 C 
BRANCH  15  16
ATOM     16  C   UNL     1      44.314   6.075  12.171  0.00  0.00    +0.000 C 
BRANCH  16  17
ATOM     17  C   UNL     1      45.537   6.965  12.098  0.00  0.00    +0.000 A 
ATOM     18  C   UNL     1      46.821   6.407  12.091  0.00  0.00    +0.000 A 
ATOM     19  C   UNL     1      47.946   7.229  12.051  0.00  0.00    +0.000 A 
ATOM     20  C   UNL     1      47.804   8.617  12.009  0.00  0.00    +0.000 A 
ATOM     21  C   UNL     1      46.533   9.207  12.025  0.00  0.00    +0.000 A 
ATOM     22  C   UNL     1      45.405   8.365  12.063  0.00  0.00    +0.000 A 
BRANCH  21  23
ATOM     23  C   UNL     1      46.343  10.702  11.903  0.00  0.00    +0.000 C 
BRANCH  23  24
ATOM     24  N   UNL     1      44.970  11.148  12.133  0.00  0.00    +0.000 NA
ATOM     25  H   UNL     1      44.936  12.162  12.034  0.00  0.00    +0.000 HD
ATOM     26  H   UNL     1      44.714  10.946  13.098  0.00  0.00    +0.000 HD
ENDBRANCH  23  24
ENDBRANCH  21  23
ENDBRANCH  16  17
ENDBRANCH  15  16
ENDBRANCH   1  15
TORSDOF 7
ENDMDL
MODEL 5
REMARK VINA RESULT:    -6.342      2.862      4.812
REMARK INTER + INTRA:          -9.399
REMARK INTER:                  -8.855
REMARK INTRA:                  -0.544
REMARK UNBOUND:                -0.647
REMARK  Name = 
REMARK  8 active torsions:
REMARK  status: ('A' for Active; 'I' for Inactive)
REMARK    1  A    between atoms: C_1  and  C_2
REMARK    2  A    between atoms: C_2  and  N_3
REMARK    3  A    between atoms: N_3  and  C_4
REMARK    4  A    between atoms: C_4  and  C_5
REMARK    5  A    between atoms: C_5  and  C_6
REMARK    6  A    between atoms: C_10  and  C_11
REMARK    7  A    between atoms: C_11  and  N_12
REMARK    8  A    between atoms: C_17  and  C_18
REMARK                            x       y       z     vdW  Elec       q    Type
REMARK                         _______ _______ _______ _____ _____    ______ ____
ROOT
ATOM      1  N   UNL     1      48.186   7.114  13.258  0.00  0.00    +0.000 N 
ATOM      2  C   UNL     1      48.058   6.187  14.323  0.00  0.00    +0.000 A 
ATOM      3  C   UNL     1      48.596   6.459  15.584  0.00  0.00    +0.000 A 
ATOM      4  C   UNL     1      48.422   5.566  16.644  0.00  0.00    +0.000 A 
ATOM      5  C   UNL     1      47.682   4.406  16.454  0.00  0.00    +0.000 A 
ATOM      6  C   UNL     1      47.177   4.194  15.186  0.00  0.00    +0.000 A 
ATOM      7  N   UNL     1      47.361   5.042  14.137  0.00  0.00    +0.000 NA
ENDROOT
BRANCH   5   8
ATOM      8  C   UNL     1      47.475   3.493  17.603  0.00  0.00    +0.000 C 
ATOM      9  N   UNL     1      48.323   3.562  18.671  0.00  0.00    +0.000 N 
ATOM     10  O   UNL     1      46.561   2.675  17.602  0.00  0.00    +0.000 OA
ATOM     11  H   UNL     1      49.139   4.150  18.747  0.00  0.00    +0.000 HD
ATOM     12  H   UNL     1      48.159   2.895  19.414  0.00  0.00    +0.000 HD
ENDBRANCH   5   8
BRANCH   1  14
ATOM     13  C   UNL     1      50.150   7.876  11.830  0.00  0.00    +0.000 C 
ATOM     14  C   UNL     1      49.518   7.751  13.204  0.00  0.00    +0.000 C 
ENDBRANCH   1  14
BRANCH   1  15
ATOM     15  C   UNL     1      47.519   6.686  12.002  0.00  0.00    +0.000 C 
BRANCH  15  16
ATOM     16  C   UNL     1      46.034   7.119  11.968  0.00  0.00    +0.000 C 
BRANCH  16  17
ATOM     17  C   UNL     1      45.054   5.969  11.864  0.00  0.00    +0.000 A 
ATOM     18  C   UNL     1      44.056   5.798  12.830  0.00  0.00    +0.000 A 
ATOM     19  C   UNL     1      43.172   4.724  12.747  0.00  0.00    +0.000 A 
ATOM     20  C   UNL     1      43.267   3.811  11.695  0.00  0.00    +0.000 A 
ATOM     21  C   UNL     1      44.262   3.949  10.717  0.00  0.00    +0.000 A 
ATOM     22  C   UNL     1      45.146   5.040  10.811  0.00  0.00    +0.000 A 
BRANCH  21  23
ATOM     23  C   UNL     1      44.345   3.023   9.524  0.00  0.00    +0.000 C 
BRANCH  23  24
ATOM     24  N   UNL     1      44.347   3.712   8.235  0.00  0.00    +0.000 NA
ATOM     25  H   UNL     1      43.968   4.649   8.365  0.00  0.00    +0.000 HD
ATOM     26  H   UNL     1      43.710   3.230   7.602  0.00  0.00    +0.000 HD
ENDBRANCH  23  24
ENDBRANCH  21  23
ENDBRANCH  16  17
ENDBRANCH  15  16
ENDBRANCH   1  15
TORSDOF 7
ENDMDL
MODEL 6
REMARK VINA RESULT:    -6.154      2.825      7.145
REMARK INTER + INTRA:          -9.140
REMARK INTER:                  -9.059
REMARK INTRA:                  -0.080
REMARK UNBOUND:                -0.647
REMARK  Name = 
REMARK  8 active torsions:
REMARK  status: ('A' for Active; 'I' for Inactive)
REMARK    1  A    between atoms: C_1  and  C_2
REMARK    2  A    between atoms: C_2  and  N_3
REMARK    3  A    between atoms: N_3  and  C_4
REMARK    4  A    between atoms: C_4  and  C_5
REMARK    5  A    between atoms: C_5  and  C_6
REMARK    6  A    between atoms: C_10  and  C_11
REMARK    7  A    between atoms: C_11  and  N_12
REMARK    8  A    between atoms: C_17  and  C_18
REMARK                            x       y       z     vdW  Elec       q    Type
REMARK                         _______ _______ _______ _____ _____    ______ ____
ROOT
ATOM      1  N   UNL     1      44.213   4.145  10.682  0.00  0.00    +0.000 N 
ATOM      2  C   UNL     1      44.930   3.578   9.598  0.00  0.00    +0.000 A 
ATOM      3  C   UNL     1      45.496   4.385   8.607  0.00  0.00    +0.000 A 
ATOM      4  C   UNL     1      46.246   3.827   7.570  0.00  0.00    +0.000 A 
ATOM      5  C   UNL     1      46.460   2.455   7.535  0.00  0.00    +0.000 A 
ATOM      6  C   UNL     1      45.876   1.711   8.542  0.00  0.00    +0.000 A 
ATOM      7  N   UNL     1      45.119   2.239   9.543  0.00  0.00    +0.000 NA
ENDROOT
BRANCH   5   8
ATOM      8  C   UNL     1      47.294   1.888   6.450  0.00  0.00    +0.000 C 
ATOM      9  N   UNL     1      48.123   2.713   5.745  0.00  0.00    +0.000 N 
ATOM     10  O   UNL     1      47.243   0.694   6.172  0.00  0.00    +0.000 OA
ATOM     11  H   UNL     1      48.195   3.714   5.849  0.00  0.00    +0.000 HD
ATOM     12  H   UNL     1      48.647   2.283   4.994  0.00  0.00    +0.000 HD
ENDBRANCH   5   8
BRANCH   1  14
ATOM     13  C   UNL     1      42.518   5.914  11.371  0.00  0.00    +0.000 C 
ATOM     14  C   UNL     1      43.345   5.269  10.274  0.00  0.00    +0.000 C 
ENDBRANCH   1  14
BRANCH   1  15
ATOM     15  C   UNL     1      43.718   3.147  11.664  0.00  0.00    +0.000 C 
BRANCH  15  16
ATOM     16  C   UNL     1      44.057   3.559  13.116  0.00  0.00    +0.000 C 
BRANCH  16  17
ATOM     17  C   UNL     1      45.304   4.409  13.246  0.00  0.00    +0.000 A 
ATOM     18  C   UNL     1      46.545   3.815  13.501  0.00  0.00    +0.000 A 
ATOM     19  C   UNL     1      47.686   4.601  13.647  0.00  0.00    +0.000 A 
ATOM     20  C   UNL     1      47.605   5.990  13.532  0.00  0.00    +0.000 A 
ATOM     21  C   UNL     1      46.376   6.617  13.287  0.00  0.00    +0.000 A 
ATOM     22  C   UNL     1      45.232   5.810  13.139  0.00  0.00    +0.000 A 
BRANCH  21  23
ATOM     23  C   UNL     1      46.266   8.111  13.081  0.00  0.00    +0.000 C 
BRANCH  23  24
ATOM     24  N   UNL     1      46.815   8.905  14.178  0.00  0.00    +0.000 NA
ATOM     25  H   UNL     1      46.558   8.465  15.060  0.00  0.00    +0.000 HD
ATOM     26  H   UNL     1      46.373   9.823  14.176  0.00  0.00    +0.000 HD
ENDBRANCH  23  24
ENDBRANCH  21  23
ENDBRANCH  16  17
ENDBRANCH  15  16
ENDBRANCH   1  15
TORSDOF 7
ENDMDL
MODEL 7
REMARK VINA RESULT:    -6.148      2.642      3.482
REMARK INTER + INTRA:          -9.130
REMARK INTER:                  -8.280
REMARK INTRA:                  -0.851
REMARK UNBOUND:                -0.647
REMARK  Name = 
REMARK  8 active torsions:
REMARK  status: ('A' for Active; 'I' for Inactive)
REMARK    1  A    between atoms: C_1  and  C_2
REMARK    2  A    between atoms: C_2  and  N_3
REMARK    3  A    between atoms: N_3  and  C_4
REMARK    4  A    between atoms: C_4  and  C_5
REMARK    5  A    between atoms: C_5  and  C_6
REMARK    6  A    between atoms: C_10  and  C_11
REMARK    7  A    between atoms: C_11  and  N_12
REMARK    8  A    between atoms: C_17  and  C_18
REMARK                            x       y       z     vdW  Elec       q    Type
REMARK                         _______ _______ _______ _____ _____    ______ ____
ROOT
ATOM      1  N   UNL     1      45.464   5.772  12.734  0.00  0.00    +0.000 N 
ATOM      2  C   UNL     1      46.047   7.057  12.594  0.00  0.00    +0.000 A 
ATOM      3  C   UNL     1      47.436   7.222  12.595  0.00  0.00    +0.000 A 
ATOM      4  C   UNL     1      48.007   8.482  12.405  0.00  0.00    +0.000 A 
ATOM      5  C   UNL     1      47.190   9.583  12.184  0.00  0.00    +0.000 A 
ATOM      6  C   UNL     1      45.828   9.356  12.195  0.00  0.00    +0.000 A 
ATOM      7  N   UNL     1      45.256   8.138  12.406  0.00  0.00    +0.000 NA
ENDROOT
BRANCH   5   8
ATOM      8  C   UNL     1      47.817  10.903  11.942  0.00  0.00    +0.000 C 
ATOM      9  N   UNL     1      47.443  11.970  12.709  0.00  0.00    +0.000 N 
ATOM     10  O   UNL     1      48.657  11.052  11.061  0.00  0.00    +0.000 OA
ATOM     11  H   UNL     1      46.720  11.972  13.414  0.00  0.00    +0.000 HD
ATOM     12  H   UNL     1      47.876  12.856  12.483  0.00  0.00    +0.000 HD
ENDBRANCH   5   8
BRANCH   1  14
ATOM     13  C   UNL     1      46.587   3.551  13.265  0.00  0.00    +0.000 C 
ATOM     14  C   UNL     1      46.155   4.930  13.731  0.00  0.00    +0.000 C 
ENDBRANCH   1  14
BRANCH   1  15
ATOM     15  C   UNL     1      43.980   5.774  12.668  0.00  0.00    +0.000 C 
BRANCH  15  16
ATOM     16  C   UNL     1      43.474   5.677  11.209  0.00  0.00    +0.000 C 
BRANCH  16  17
ATOM     17  C   UNL     1      43.919   4.428  10.478  0.00  0.00    +0.000 A 
ATOM     18  C   UNL     1      43.662   3.162  11.016  0.00  0.00    +0.000 A 
ATOM     19  C   UNL     1      44.097   2.014  10.355  0.00  0.00    +0.000 A 
ATOM     20  C   UNL     1      44.786   2.115   9.145  0.00  0.00    +0.000 A 
ATOM     21  C   UNL     1      45.067   3.369   8.584  0.00  0.00    +0.000 A 
ATOM     22  C   UNL     1      44.619   4.519   9.262  0.00  0.00    +0.000 A 
BRANCH  21  23
ATOM     23  C   UNL     1      45.742   3.511   7.239  0.00  0.00    +0.000 C 
BRANCH  23  24
ATOM     24  N   UNL     1      46.958   4.321   7.266  0.00  0.00    +0.000 NA
ATOM     25  H   UNL     1      47.007   4.864   6.405  0.00  0.00    +0.000 HD
ATOM     26  H   UNL     1      47.768   3.703   7.263  0.00  0.00    +0.000 HD
ENDBRANCH  23  24
ENDBRANCH  21  23
ENDBRANCH  16  17
ENDBRANCH  15  16
ENDBRANCH   1  15
TORSDOF 7
ENDMDL
MODEL 8
REMARK VINA RESULT:    -5.976      4.300      8.062
REMARK INTER + INTRA:          -8.894
REMARK INTER:                  -8.238
REMARK INTRA:                  -0.656
REMARK UNBOUND:                -0.647
REMARK  Name = 
REMARK  8 active torsions:
REMARK  status: ('A' for Active; 'I' for Inactive)
REMARK    1  A    between atoms: C_1  and  C_2
REMARK    2  A    between atoms: C_2  and  N_3
REMARK    3  A    between atoms: N_3  and  C_4
REMARK    4  A    between atoms: C_4  and  C_5
REMARK    5  A    between atoms: C_5  and  C_6
REMARK    6  A    between atoms: C_10  and  C_11
REMARK    7  A    between atoms: C_11  and  N_12
REMARK    8  A    between atoms: C_17  and  C_18
REMARK                            x       y       z     vdW  Elec       q    Type
REMARK                         _______ _______ _______ _____ _____    ______ ____
ROOT
ATOM      1  N   UNL     1      47.742   7.506  12.873  0.00  0.00    +0.000 N 
ATOM      2  C   UNL     1      46.718   6.547  12.672  0.00  0.00    +0.000 A 
ATOM      3  C   UNL     1      45.592   6.846  11.899  0.00  0.00    +0.000 A 
ATOM      4  C   UNL     1      44.610   5.881  11.661  0.00  0.00    +0.000 A 
ATOM      5  C   UNL     1      44.764   4.600  12.173  0.00  0.00    +0.000 A 
ATOM      6  C   UNL     1      45.897   4.367  12.928  0.00  0.00    +0.000 A 
ATOM      7  N   UNL     1      46.849   5.304  13.191  0.00  0.00    +0.000 NA
ENDROOT
BRANCH   5   8
ATOM      8  C   UNL     1      43.732   3.580  11.872  0.00  0.00    +0.000 C 
ATOM      9  N   UNL     1      43.781   2.374  12.512  0.00  0.00    +0.000 N 
ATOM     10  O   UNL     1      42.846   3.800  11.054  0.00  0.00    +0.000 OA
ATOM     11  H   UNL     1      44.499   2.067  13.151  0.00  0.00    +0.000 HD
ATOM     12  H   UNL     1      43.074   1.700  12.248  0.00  0.00    +0.000 HD
ENDBRANCH   5   8
BRANCH   1  14
ATOM     13  C   UNL     1      47.684   9.937  12.124  0.00  0.00    +0.000 C 
ATOM     14  C   UNL     1      47.220   8.870  13.098  0.00  0.00    +0.000 C 
ENDBRANCH   1  14
BRANCH   1  15
ATOM     15  C   UNL     1      48.884   7.008  13.682  0.00  0.00    +0.000 C 
BRANCH  15  16
ATOM     16  C   UNL     1      48.695   7.315  15.186  0.00  0.00    +0.000 C 
BRANCH  16  17
ATOM     17  C   UNL     1      49.235   6.245  16.112  0.00  0.00    +0.000 A 
ATOM     18  C   UNL     1      50.543   6.326  16.603  0.00  0.00    +0.000 A 
ATOM     19  C   UNL     1      51.047   5.325  17.433  0.00  0.00    +0.000 A 
ATOM     20  C   UNL     1      50.249   4.237  17.790  0.00  0.00    +0.000 A 
ATOM     21  C   UNL     1      48.939   4.121  17.307  0.00  0.00    +0.000 A 
ATOM     22  C   UNL     1      48.442   5.140  16.472  0.00  0.00    +0.000 A 
BRANCH  21  23
ATOM     23  C   UNL     1      48.025   2.996  17.735  0.00  0.00    +0.000 C 
BRANCH  23  24
ATOM     24  N   UNL     1      46.603   3.284  17.559  0.00  0.00    +0.000 NA
ATOM     25  H   UNL     1      46.070   2.700  18.201  0.00  0.00    +0.000 HD
ATOM     26  H   UNL     1      46.323   3.008  16.619  0.00  0.00    +0.000 HD
ENDBRANCH  23  24
ENDBRANCH  21  23
ENDBRANCH  16  17
ENDBRANCH  15  16
ENDBRANCH   1  15
TORSDOF 7
ENDMDL
MODEL 9
REMARK VINA RESULT:    -5.922      3.893      8.214
REMARK INTER + INTRA:          -8.819
REMARK INTER:                  -8.102
REMARK INTRA:                  -0.717
REMARK UNBOUND:                -0.647
REMARK  Name = 
REMARK  8 active torsions:
REMARK  status: ('A' for Active; 'I' for Inactive)
REMARK    1  A    between atoms: C_1  and  C_2
REMARK    2  A    between atoms: C_2  and  N_3
REMARK    3  A    between atoms: N_3  and  C_4
REMARK    4  A    between atoms: C_4  and  C_5
REMARK    5  A    between atoms: C_5  and  C_6
REMARK    6  A    between atoms: C_10  and  C_11
REMARK    7  A    between atoms: C_11  and  N_12
REMARK    8  A    between atoms: C_17  and  C_18
REMARK                            x       y       z     vdW  Elec       q    Type
REMARK                         _______ _______ _______ _____ _____    ______ ____
ROOT
ATOM      1  N   UNL     1      48.343   7.345  13.753  0.00  0.00    +0.000 N 
ATOM      2  C   UNL     1      47.413   6.344  13.376  0.00  0.00    +0.000 A 
ATOM      3  C   UNL     1      46.452   6.586  12.390  0.00  0.00    +0.000 A 
ATOM      4  C   UNL     1      45.572   5.581  11.985  0.00  0.00    +0.000 A 
ATOM      5  C   UNL     1      45.668   4.314  12.546  0.00  0.00    +0.000 A 
ATOM      6  C   UNL     1      46.637   4.137  13.514  0.00  0.00    +0.000 A 
ATOM      7  N   UNL     1      47.483   5.115  13.938  0.00  0.00    +0.000 NA
ENDROOT
BRANCH   5   8
ATOM      8  C   UNL     1      44.752   3.250  12.072  0.00  0.00    +0.000 C 
ATOM      9  N   UNL     1      44.902   2.756  10.807  0.00  0.00    +0.000 N 
ATOM     10  O   UNL     1      43.860   2.816  12.793  0.00  0.00    +0.000 OA
ATOM     11  H   UNL     1      45.557   3.084  10.113  0.00  0.00    +0.000 HD
ATOM     12  H   UNL     1      44.232   2.055  10.520  0.00  0.00    +0.000 HD
ENDBRANCH   5   8
BRANCH   1  14
ATOM     13  C   UNL     1      48.468   9.805  13.111  0.00  0.00    +0.000 C 
ATOM     14  C   UNL     1      47.739   8.691  13.839  0.00  0.00    +0.000 C 
ENDBRANCH   1  14
BRANCH   1  15
ATOM     15  C   UNL     1      49.320   6.905  14.781  0.00  0.00    +0.000 C 
BRANCH  15  16
ATOM     16  C   UNL     1      48.867   7.303  16.206  0.00  0.00    +0.000 C 
BRANCH  16  17
ATOM     17  C   UNL     1      48.803   6.148  17.183  0.00  0.00    +0.000 A 
ATOM     18  C   UNL     1      48.150   6.294  18.412  0.00  0.00    +0.000 A 
ATOM     19  C   UNL     1      48.116   5.238  19.322  0.00  0.00    +0.000 A 
ATOM     20  C   UNL     1      48.725   4.021  19.012  0.00  0.00    +0.000 A 
ATOM     21  C   UNL     1      49.395   3.846  17.794  0.00  0.00    +0.000 A 
ATOM     22  C   UNL     1      49.420   4.920  16.883  0.00  0.00    +0.000 A 
BRANCH  21  23
ATOM     23  C   UNL     1      49.998   2.518  17.396  0.00  0.00    +0.000 C 
BRANCH  23  24
ATOM     24  N   UNL     1      49.391   1.919  16.209  0.00  0.00    +0.000 NA
ATOM     25  H   UNL     1      49.063   2.666  15.598  0.00  0.00    +0.000 HD
ATOM     26  H   UNL     1      48.565   1.394  16.489  0.00  0.00    +0.000 HD
ENDBRANCH  23  24
ENDBRANCH  21  23
ENDBRANCH  16  17
ENDBRANCH  15  16
ENDBRANCH   1  15
TORSDOF 7
ENDMDL
