MODEL 1
REMARK VINA RESULT:    -8.062      0.000      0.000
REMARK INTER + INTRA:         -12.314
REMARK INTER:                 -11.361
REMARK INTRA:                  -0.952
REMARK UNBOUND:                -0.952
REMARK  Name = 
REMARK  10 active torsions:
REMARK  status: ('A' for Active; 'I' for Inactive)
REMARK    1  A    between atoms: C_1  and  C_2
REMARK    2  A    between atoms: C_5  and  C_6
REMARK    3  A    between atoms: N_8  and  C_9
REMARK    4  A    between atoms: C_9  and  C_10
REMARK    5  A    between atoms: C_13  and  C_14
REMARK    6  A    between atoms: C_14  and  C_15
REMARK    7  A    between atoms: C_15  and  C_16
REMARK    8  A    between atoms: C_16  and  N_17
REMARK    9  A    between atoms: C_25  and  C_26
REMARK   10  A    between atoms: C_30  and  C_31
REMARK                            x       y       z     vdW  Elec       q    Type
REMARK                         _______ _______ _______ _____ _____    ______ ____
ROOT
ATOM      1  C   UNL     1      49.234   6.299  16.209  0.00  0.00    +0.000 C 
ATOM      2  O   UNL     1      50.340   6.506  15.727  0.00  0.00    +0.000 OA
ATOM      3  N   UNL     1      48.090   6.326  15.434  0.00  0.00    +0.000 N 
ATOM      4  H   UNL     1      47.193   6.373  15.894  0.00  0.00    +0.000 HD
ENDROOT
BRANCH   1   9
ATOM      5  C   UNL     1      46.945  10.333  19.643  0.00  0.00    +0.000 C 
ATOM      6  C   UNL     1      47.449   8.921  19.719  0.00  0.00    +0.000 A 
ATOM      7  C   UNL     1      47.944   8.290  18.563  0.00  0.00    +0.000 A 
ATOM      8  C   UNL     1      48.448   6.968  18.633  0.00  0.00    +0.000 A 
ATOM      9  C   UNL     1      49.022   6.046  17.649  0.00  0.00    +0.000 A 
ATOM     10  C   UNL     1      49.327   4.820  18.246  0.00  0.00    +0.000 A 
ATOM     11  C   UNL     1      49.929   3.570  17.679  0.00  0.00    +0.000 C 
ATOM     12  S   UNL     1      48.953   4.794  19.919  0.00  0.00    +0.000 S 
ATOM     13  C   UNL     1      48.372   6.383  19.893  0.00  0.00    +0.000 A 
ATOM     14  N   UNL     1      47.898   6.936  21.027  0.00  0.00    +0.000 NA
ATOM     15  C   UNL     1      47.444   8.200  20.915  0.00  0.00    +0.000 A 
ATOM     16  C   UNL     1      46.907   8.810  22.185  0.00  0.00    +0.000 C 
ENDBRANCH   1   9
BRANCH   3  17
ATOM     17  C   UNL     1      48.144   6.638  14.021  0.00  0.00    +0.000 C 
BRANCH  17  18
ATOM     18  C   UNL     1      47.002   5.997  13.271  0.00  0.00    +0.000 A 
ATOM     19  C   UNL     1      46.576   6.526  12.045  0.00  0.00    +0.000 A 
ATOM     20  C   UNL     1      45.513   5.946  11.346  0.00  0.00    +0.000 A 
ATOM     21  C   UNL     1      44.854   4.821  11.855  0.00  0.00    +0.000 A 
ATOM     22  C   UNL     1      45.269   4.300  13.085  0.00  0.00    +0.000 A 
ATOM     23  C   UNL     1      46.328   4.882  13.789  0.00  0.00    +0.000 A 
BRANCH  21  24
ATOM     24  C   UNL     1      43.704   4.177  11.112  0.00  0.00    +0.000 C 
BRANCH  24  25
ATOM     25  C   UNL     1      44.051   3.872   9.651  0.00  0.00    +0.000 C 
BRANCH  25  26
ATOM     26  C   UNL     1      44.725   2.504   9.474  0.00  0.00    +0.000 C 
BRANCH  26  27
ATOM     27  N   UNL     1      45.841   2.508   8.518  0.00  0.00    +0.000 NA
ATOM     28  C   UNL     1      46.191   1.162   8.040  0.00  0.00    +0.000 C 
ATOM     29  C   UNL     1      47.431   1.207   7.145  0.00  0.00    +0.000 C 
ATOM     30  C   UNL     1      47.240   2.166   5.978  0.00  0.00    +0.000 C 
ATOM     31  C   UNL     1      46.769   3.528   6.476  0.00  0.00    +0.000 C 
ATOM     32  C   UNL     1      45.543   3.395   7.381  0.00  0.00    +0.000 C 
ENDBRANCH  26  27
ENDBRANCH  25  26
ENDBRANCH  24  25
ENDBRANCH  21  24
ENDBRANCH  17  18
ENDBRANCH   3  17
TORSDOF 7
ENDMDL
MODEL 2
REMARK VINA RESULT:    -7.408      2.003      3.018
REMARK INTER + INTRA:         -11.392
REMARK INTER:                 -10.216
REMARK INTRA:                  -1.176
REMARK UNBOUND:                -0.952
REMARK  Name = 
REMARK  10 active torsions:
REMARK  status: ('A' for Active; 'I' for Inactive)
REMARK    1  A    between atoms: C_1  and  C_2
REMARK    2  A    between atoms: C_5  and  C_6
REMARK    3  A    between atoms: N_8  and  C_9
REMARK    4  A    between atoms: C_9  and  C_10
REMARK    5  A    between atoms: C_13  and  C_14
REMARK    6  A    between atoms: C_14  and  C_15
REMARK    7  A    between atoms: C_15  and  C_16
REMARK    8  A    between atoms: C_16  and  N_17
REMARK    9  A    between atoms: C_25  and  C_26
REMARK   10  A    between atoms: C_30  and  C_31
REMARK                            x       y       z     vdW  Elec       q    Type
REMARK                         _______ _______ _______ _____ _____    ______ ____
ROOT
ATOM      1  C   UNL     1      48.995   7.738  14.547  0.00  0.00    +0.000 C 
ATOM      2  O   UNL     1      49.863   7.667  13.688  0.00  0.00    +0.000 OA
ATOM      3  N   UNL     1      47.659   7.859  14.217  0.00  0.00    +0.000 N 
ATOM      4  H   UNL     1      47.004   8.135  14.934  0.00  0.00    +0.000 HD
ENDROOT
BRANCH   1   9
ATOM      5  C   UNL     1      47.738   3.187  17.866  0.00  0.00    +0.000 C 
ATOM      6  C   UNL     1      48.365   4.547  17.981  0.00  0.00    +0.000 A 
ATOM      7  C   UNL     1      48.477   5.366  16.844  0.00  0.00    +0.000 A 
ATOM      8  C   UNL     1      49.041   6.661  16.952  0.00  0.00    +0.000 A 
ATOM      9  C   UNL     1      49.296   7.742  15.993  0.00  0.00    +0.000 A 
ATOM     10  C   UNL     1      49.925   8.817  16.625  0.00  0.00    +0.000 A 
ATOM     11  C   UNL     1      50.382  10.142  16.093  0.00  0.00    +0.000 C 
ATOM     12  S   UNL     1      50.177   8.540  18.298  0.00  0.00    +0.000 S 
ATOM     13  C   UNL     1      49.480   7.000  18.227  0.00  0.00    +0.000 A 
ATOM     14  N   UNL     1      49.410   6.250  19.345  0.00  0.00    +0.000 NA
ATOM     15  C   UNL     1      48.851   5.033  19.197  0.00  0.00    +0.000 A 
ATOM     16  C   UNL     1      48.782   4.196  20.449  0.00  0.00    +0.000 C 
ENDBRANCH   1   9
BRANCH   3  17
ATOM     17  C   UNL     1      47.228   7.944  12.837  0.00  0.00    +0.000 C 
BRANCH  17  18
ATOM     18  C   UNL     1      46.445   6.721  12.427  0.00  0.00    +0.000 A 
ATOM     19  C   UNL     1      46.149   5.724  13.366  0.00  0.00    +0.000 A 
ATOM     20  C   UNL     1      45.431   4.582  12.995  0.00  0.00    +0.000 A 
ATOM     21  C   UNL     1      44.990   4.413  11.678  0.00  0.00    +0.000 A 
ATOM     22  C   UNL     1      45.296   5.402  10.737  0.00  0.00    +0.000 A 
ATOM     23  C   UNL     1      46.019   6.542  11.103  0.00  0.00    +0.000 A 
BRANCH  21  24
ATOM     24  C   UNL     1      44.210   3.187  11.257  0.00  0.00    +0.000 C 
BRANCH  24  25
ATOM     25  C   UNL     1      44.135   3.039   9.734  0.00  0.00    +0.000 C 
BRANCH  25  26
ATOM     26  C   UNL     1      44.926   1.831   9.215  0.00  0.00    +0.000 C 
BRANCH  26  27
ATOM     27  N   UNL     1      46.040   2.185   8.323  0.00  0.00    +0.000 NA
ATOM     28  C   UNL     1      46.615   1.020   7.634  0.00  0.00    +0.000 C 
ATOM     29  C   UNL     1      47.843   1.422   6.815  0.00  0.00    +0.000 C 
ATOM     30  C   UNL     1      47.511   2.532   5.825  0.00  0.00    +0.000 C 
ATOM     31  C   UNL     1      46.814   3.689   6.532  0.00  0.00    +0.000 C 
ATOM     32  C   UNL     1      45.615   3.201   7.346  0.00  0.00    +0.000 C 
ENDBRANCH  26  27
ENDBRANCH  25  26
ENDBRANCH  24  25
ENDBRANCH  21  24
ENDBRANCH  17  18
ENDBRANCH   3  17
TORSDOF 7
ENDMDL
MODEL 3
REMARK VINA RESULT:    -7.371      2.267      3.084
REMARK INTER + INTRA:         -11.340
REMARK INTER:                  -9.959
REMARK INTRA:                  -1.381
REMARK UNBOUND:                -0.952
REMARK  Name = 
REMARK  10 active torsions:
REMARK  status: ('A' for Active; 'I' for Inactive)
REMARK    1  A    between atoms: C_1  and  C_2
REMARK    2  A    between atoms: C_5  and  C_6
REMARK    3  A    between atoms: N_8  and  C_9
REMARK    4  A    between atoms: C_9  and  C_10
REMARK    5  A    between atoms: C_13  and  C_14
REMARK    6  A    between atoms: C_14  and  C_15
REMARK    7  A    between atoms: C_15  and  C_16
REMARK    8  A    between atoms: C_16  and  N_17
REMARK    9  A    between atoms: C_25  and  C_26
REMARK   10  A    between atoms: C_30  and  C_31
REMARK                            x       y       z     vdW  Elec       q    Type
REMARK                         _______ _______ _______ _____ _____    ______ ____
ROOT
ATOM      1  C   UNL     1      49.922   7.940  14.512  0.00  0.00    +0.000 C 
ATOM      2  O   UNL     1      49.584   9.108  14.383  0.00  0.00    +0.000 OA
ATOM      3  N   UNL     1      49.580   6.980  13.578  0.00  0.00    +0.000 N 
ATOM      4  H   UNL     1      49.680   6.006  13.823  0.00  0.00    +0.000 HD
ENDROOT
BRANCH   1   9
ATOM      5  C   UNL     1      47.220   5.811  19.146  0.00  0.00    +0.000 C 
ATOM      6  C   UNL     1      48.616   6.053  18.649  0.00  0.00    +0.000 A 
ATOM      7  C   UNL     1      48.819   6.622  17.378  0.00  0.00    +0.000 A 
ATOM      8  C   UNL     1      50.133   6.880  16.915  0.00  0.00    +0.000 A 
ATOM      9  C   UNL     1      50.682   7.449  15.680  0.00  0.00    +0.000 A 
ATOM     10  C   UNL     1      52.078   7.440  15.716  0.00  0.00    +0.000 A 
ATOM     11  C   UNL     1      53.092   7.911  14.718  0.00  0.00    +0.000 C 
ATOM     12  S   UNL     1      52.694   6.791  17.179  0.00  0.00    +0.000 S 
ATOM     13  C   UNL     1      51.144   6.497  17.790  0.00  0.00    +0.000 A 
ATOM     14  N   UNL     1      51.006   5.937  19.009  0.00  0.00    +0.000 NA
ATOM     15  C   UNL     1      49.738   5.726  19.414  0.00  0.00    +0.000 A 
ATOM     16  C   UNL     1      49.590   5.092  20.774  0.00  0.00    +0.000 C 
ENDBRANCH   1   9
BRANCH   3  17
ATOM     17  C   UNL     1      48.772   7.307  12.422  0.00  0.00    +0.000 C 
BRANCH  17  18
ATOM     18  C   UNL     1      47.388   6.718  12.532  0.00  0.00    +0.000 A 
ATOM     19  C   UNL     1      47.137   5.665  13.422  0.00  0.00    +0.000 A 
ATOM     20  C   UNL     1      45.858   5.105  13.527  0.00  0.00    +0.000 A 
ATOM     21  C   UNL     1      44.802   5.590  12.747  0.00  0.00    +0.000 A 
ATOM     22  C   UNL     1      45.054   6.633  11.850  0.00  0.00    +0.000 A 
ATOM     23  C   UNL     1      46.333   7.190  11.739  0.00  0.00    +0.000 A 
BRANCH  21  24
ATOM     24  C   UNL     1      43.412   5.001  12.848  0.00  0.00    +0.000 C 
BRANCH  24  25
ATOM     25  C   UNL     1      42.920   4.439  11.510  0.00  0.00    +0.000 C 
BRANCH  25  26
ATOM     26  C   UNL     1      43.548   3.080  11.170  0.00  0.00    +0.000 C 
BRANCH  26  27
ATOM     27  N   UNL     1      44.604   3.150  10.149  0.00  0.00    +0.000 NA
ATOM     28  C   UNL     1      44.693   1.929   9.334  0.00  0.00    +0.000 C 
ATOM     29  C   UNL     1      45.881   2.002   8.372  0.00  0.00    +0.000 C 
ATOM     30  C   UNL     1      45.805   3.242   7.490  0.00  0.00    +0.000 C 
ATOM     31  C   UNL     1      45.600   4.491   8.339  0.00  0.00    +0.000 C 
ATOM     32  C   UNL     1      44.412   4.329   9.289  0.00  0.00    +0.000 C 
ENDBRANCH  26  27
ENDBRANCH  25  26
ENDBRANCH  24  25
ENDBRANCH  21  24
ENDBRANCH  17  18
ENDBRANCH   3  17
TORSDOF 7
ENDMDL
MODEL 4
REMARK VINA RESULT:    -7.053      2.650      3.806
REMARK INTER + INTRA:         -10.892
REMARK INTER:                  -9.886
REMARK INTRA:                  -1.006
REMARK UNBOUND:                -0.952
REMARK  Name = 
REMARK  10 active torsions:
REMARK  status: ('A' for Active; 'I' for Inactive)
REMARK    1  A    between atoms: C_1  and  C_2
REMARK    2  A    between atoms: C_5  and  C_6
REMARK    3  A    between atoms: N_8  and  C_9
REMARK    4  A    between atoms: C_9  and  C_10
REMARK    5  A    between atoms: C_13  and  C_14
REMARK    6  A    between atoms: C_14  and  C_15
REMARK    7  A    between atoms: C_15  and  C_16
REMARK    8  A    between atoms: C_16  and  N_17
REMARK    9  A    between atoms: C_25  and  C_26
REMARK   10  A    between atoms: C_30  and  C_31
REMARK                            x       y       z     vdW  Elec       q    Type
REMARK                         _______ _______ _______ _____ _____    ______ ____
ROOT
ATOM      1  C   UNL     1      48.829   6.616  15.972  0.00  0.00    +0.000 C 
ATOM      2  O   UNL     1      48.490   7.668  16.496  0.00  0.00    +0.000 OA
ATOM      3  N   UNL     1      48.593   6.367  14.633  0.00  0.00    +0.000 N 
ATOM      4  H   UNL     1      48.681   5.420  14.292  0.00  0.00    +0.000 HD
ENDROOT
BRANCH   1   9
ATOM      5  C   UNL     1      54.523   6.600  16.916  0.00  0.00    +0.000 C 
ATOM      6  C   UNL     1      53.311   5.769  17.226  0.00  0.00    +0.000 A 
ATOM      7  C   UNL     1      52.044   6.181  16.774  0.00  0.00    +0.000 A 
ATOM      8  C   UNL     1      50.901   5.386  17.039  0.00  0.00    +0.000 A 
ATOM      9  C   UNL     1      49.476   5.519  16.720  0.00  0.00    +0.000 A 
ATOM     10  C   UNL     1      48.752   4.455  17.263  0.00  0.00    +0.000 A 
ATOM     11  C   UNL     1      47.290   4.131  17.214  0.00  0.00    +0.000 C 
ATOM     12  S   UNL     1      49.751   3.342  18.103  0.00  0.00    +0.000 S 
ATOM     13  C   UNL     1      51.150   4.239  17.783  0.00  0.00    +0.000 A 
ATOM     14  N   UNL     1      52.338   3.805  18.251  0.00  0.00    +0.000 NA
ATOM     15  C   UNL     1      53.399   4.584  17.960  0.00  0.00    +0.000 A 
ATOM     16  C   UNL     1      54.723   4.099  18.493  0.00  0.00    +0.000 C 
ENDBRANCH   1   9
BRANCH   3  17
ATOM     17  C   UNL     1      47.899   7.325  13.798  0.00  0.00    +0.000 C 
BRANCH  17  18
ATOM     18  C   UNL     1      46.817   6.662  12.981  0.00  0.00    +0.000 A 
ATOM     19  C   UNL     1      46.465   5.328  13.225  0.00  0.00    +0.000 A 
ATOM     20  C   UNL     1      45.469   4.701  12.468  0.00  0.00    +0.000 A 
ATOM     21  C   UNL     1      44.802   5.395  11.453  0.00  0.00    +0.000 A 
ATOM     22  C   UNL     1      45.162   6.723  11.200  0.00  0.00    +0.000 A 
ATOM     23  C   UNL     1      46.161   7.351  11.951  0.00  0.00    +0.000 A 
BRANCH  21  24
ATOM     24  C   UNL     1      43.720   4.736  10.625  0.00  0.00    +0.000 C 
BRANCH  24  25
ATOM     25  C   UNL     1      44.215   4.340   9.230  0.00  0.00    +0.000 C 
BRANCH  25  26
ATOM     26  C   UNL     1      44.502   2.837   9.106  0.00  0.00    +0.000 C 
BRANCH  26  27
ATOM     27  N   UNL     1      45.356   2.486   7.962  0.00  0.00    +0.000 NA
ATOM     28  C   UNL     1      46.106   3.634   7.432  0.00  0.00    +0.000 C 
ATOM     29  C   UNL     1      46.883   3.244   6.173  0.00  0.00    +0.000 C 
ATOM     30  C   UNL     1      47.809   2.064   6.436  0.00  0.00    +0.000 C 
ATOM     31  C   UNL     1      47.044   0.918   7.088  0.00  0.00    +0.000 C 
ATOM     32  C   UNL     1      46.276   1.394   8.322  0.00  0.00    +0.000 C 
ENDBRANCH  26  27
ENDBRANCH  25  26
ENDBRANCH  24  25
ENDBRANCH  21  24
ENDBRANCH  17  18
ENDBRANCH   3  17
TORSDOF 7
ENDMDL
MODEL 5
REMARK VINA RESULT:    -6.876      2.955      3.875
REMARK INTER + INTRA:         -10.642
REMARK INTER:                  -9.881
REMARK INTRA:                  -0.761
REMARK UNBOUND:                -0.952
REMARK  Name = 
REMARK  10 active torsions:
REMARK  status: ('A' for Active; 'I' for Inactive)
REMARK    1  A    between atoms: C_1  and  C_2
REMARK    2  A    between atoms: C_5  and  C_6
REMARK    3  A    between atoms: N_8  and  C_9
REMARK    4  A    between atoms: C_9  and  C_10
REMARK    5  A    between atoms: C_13  and  C_14
REMARK    6  A    between atoms: C_14  and  C_15
REMARK    7  A    between atoms: C_15  and  C_16
REMARK    8  A    between atoms: C_16  and  N_17
REMARK    9  A    between atoms: C_25  and  C_26
REMARK   10  A    between atoms: C_30  and  C_31
REMARK                            x       y       z     vdW  Elec       q    Type
REMARK                         _______ _______ _______ _____ _____    ______ ____
ROOT
ATOM      1  C   UNL     1      48.734   8.451  14.365  0.00  0.00    +0.000 C 
ATOM      2  O   UNL     1      48.364   9.614  14.453  0.00  0.00    +0.000 OA
ATOM      3  N   UNL     1      47.950   7.486  13.763  0.00  0.00    +0.000 N 
ATOM      4  H   UNL     1      48.182   6.513  13.905  0.00  0.00    +0.000 HD
ENDROOT
BRANCH   1   9
ATOM      5  C   UNL     1      48.910   4.053  18.098  0.00  0.00    +0.000 C 
ATOM      6  C   UNL     1      49.847   4.991  17.393  0.00  0.00    +0.000 A 
ATOM      7  C   UNL     1      49.336   5.963  16.515  0.00  0.00    +0.000 A 
ATOM      8  C   UNL     1      50.212   6.870  15.869  0.00  0.00    +0.000 A 
ATOM      9  C   UNL     1      50.016   7.974  14.923  0.00  0.00    +0.000 A 
ATOM     10  C   UNL     1      51.245   8.529  14.558  0.00  0.00    +0.000 A 
ATOM     11  C   UNL     1      51.578   9.664  13.638  0.00  0.00    +0.000 C 
ATOM     12  S   UNL     1      52.568   7.764  15.335  0.00  0.00    +0.000 S 
ATOM     13  C   UNL     1      51.560   6.681  16.156  0.00  0.00    +0.000 A 
ATOM     14  N   UNL     1      52.103   5.760  16.977  0.00  0.00    +0.000 NA
ATOM     15  C   UNL     1      51.229   4.930  17.581  0.00  0.00    +0.000 A 
ATOM     16  C   UNL     1      51.843   3.897  18.492  0.00  0.00    +0.000 C 
ENDBRANCH   1   9
BRANCH   3  17
ATOM     17  C   UNL     1      46.637   7.799  13.240  0.00  0.00    +0.000 C 
BRANCH  17  18
ATOM     18  C   UNL     1      45.981   6.583  12.634  0.00  0.00    +0.000 A 
ATOM     19  C   UNL     1      45.315   6.679  11.404  0.00  0.00    +0.000 A 
ATOM     20  C   UNL     1      44.696   5.560  10.836  0.00  0.00    +0.000 A 
ATOM     21  C   UNL     1      44.732   4.320  11.483  0.00  0.00    +0.000 A 
ATOM     22  C   UNL     1      45.385   4.226  12.717  0.00  0.00    +0.000 A 
ATOM     23  C   UNL     1      46.000   5.344  13.290  0.00  0.00    +0.000 A 
BRANCH  21  24
ATOM     24  C   UNL     1      44.071   3.098  10.885  0.00  0.00    +0.000 C 
BRANCH  24  25
ATOM     25  C   UNL     1      44.362   2.953   9.387  0.00  0.00    +0.000 C 
BRANCH  25  26
ATOM     26  C   UNL     1      45.555   2.030   9.100  0.00  0.00    +0.000 C 
BRANCH  26  27
ATOM     27  N   UNL     1      45.975   2.019   7.691  0.00  0.00    +0.000 NA
ATOM     28  C   UNL     1      46.466   3.326   7.229  0.00  0.00    +0.000 C 
ATOM     29  C   UNL     1      46.776   3.293   5.732  0.00  0.00    +0.000 C 
ATOM     30  C   UNL     1      47.768   2.188   5.393  0.00  0.00    +0.000 C 
ATOM     31  C   UNL     1      47.304   0.857   5.973  0.00  0.00    +0.000 C 
ATOM     32  C   UNL     1      46.993   0.979   7.466  0.00  0.00    +0.000 C 
ENDBRANCH  26  27
ENDBRANCH  25  26
ENDBRANCH  24  25
ENDBRANCH  21  24
ENDBRANCH  17  18
ENDBRANCH   3  17
TORSDOF 7
ENDMDL
MODEL 6
REMARK VINA RESULT:    -6.828      3.722      9.355
REMARK INTER + INTRA:         -10.574
REMARK INTER:                  -8.814
REMARK INTRA:                  -1.760
REMARK UNBOUND:                -0.952
REMARK  Name = 
REMARK  10 active torsions:
REMARK  status: ('A' for Active; 'I' for Inactive)
REMARK    1  A    between atoms: C_1  and  C_2
REMARK    2  A    between atoms: C_5  and  C_6
REMARK    3  A    between atoms: N_8  and  C_9
REMARK    4  A    between atoms: C_9  and  C_10
REMARK    5  A    between atoms: C_13  and  C_14
REMARK    6  A    between atoms: C_14  and  C_15
REMARK    7  A    between atoms: C_15  and  C_16
REMARK    8  A    between atoms: C_16  and  N_17
REMARK    9  A    between atoms: C_25  and  C_26
REMARK   10  A    between atoms: C_30  and  C_31
REMARK                            x       y       z     vdW  Elec       q    Type
REMARK                         _______ _______ _______ _____ _____    ______ ____
ROOT
ATOM      1  C   UNL     1      46.929   4.293  14.171  0.00  0.00    +0.000 C 
ATOM      2  O   UNL     1      47.642   3.423  13.689  0.00  0.00    +0.000 OA
ATOM      3  N   UNL     1      46.796   4.444  15.538  0.00  0.00    +0.000 N 
ATOM      4  H   UNL     1      46.042   5.013  15.893  0.00  0.00    +0.000 HD
ENDROOT
BRANCH   1   9
ATOM      5  C   UNL     1      48.419   9.841  13.622  0.00  0.00    +0.000 C 
ATOM      6  C   UNL     1      47.366   8.888  13.135  0.00  0.00    +0.000 A 
ATOM      7  C   UNL     1      47.395   7.542  13.544  0.00  0.00    +0.000 A 
ATOM      8  C   UNL     1      46.388   6.645  13.112  0.00  0.00    +0.000 A 
ATOM      9  C   UNL     1      46.128   5.221  13.346  0.00  0.00    +0.000 A 
ATOM     10  C   UNL     1      44.999   4.807  12.636  0.00  0.00    +0.000 A 
ATOM     11  C   UNL     1      44.326   3.470  12.547  0.00  0.00    +0.000 C 
ATOM     12  S   UNL     1      44.281   6.082  11.743  0.00  0.00    +0.000 S 
ATOM     13  C   UNL     1      45.441   7.200  12.259  0.00  0.00    +0.000 A 
ATOM     14  N   UNL     1      45.374   8.475  11.826  0.00  0.00    +0.000 NA
ATOM     15  C   UNL     1      46.343   9.296  12.277  0.00  0.00    +0.000 A 
ATOM     16  C   UNL     1      46.267  10.719  11.783  0.00  0.00    +0.000 C 
ENDBRANCH   1   9
BRANCH   3  17
ATOM     17  C   UNL     1      47.465   3.554  16.464  0.00  0.00    +0.000 C 
BRANCH  17  18
ATOM     18  C   UNL     1      47.686   4.215  17.801  0.00  0.00    +0.000 A 
ATOM     19  C   UNL     1      46.952   5.355  18.156  0.00  0.00    +0.000 A 
ATOM     20  C   UNL     1      47.155   5.982  19.391  0.00  0.00    +0.000 A 
ATOM     21  C   UNL     1      48.094   5.480  20.299  0.00  0.00    +0.000 A 
ATOM     22  C   UNL     1      48.837   4.350  19.941  0.00  0.00    +0.000 A 
ATOM     23  C   UNL     1      48.640   3.725  18.705  0.00  0.00    +0.000 A 
BRANCH  21  24
ATOM     24  C   UNL     1      48.326   6.141  21.640  0.00  0.00    +0.000 C 
BRANCH  24  25
ATOM     25  C   UNL     1      47.952   7.627  21.630  0.00  0.00    +0.000 C 
BRANCH  25  26
ATOM     26  C   UNL     1      49.147   8.537  21.311  0.00  0.00    +0.000 C 
BRANCH  26  27
ATOM     27  N   UNL     1      49.025   9.256  20.034  0.00  0.00    +0.000 NA
ATOM     28  C   UNL     1      49.608   8.517  18.903  0.00  0.00    +0.000 C 
ATOM     29  C   UNL     1      49.565   9.356  17.625  0.00  0.00    +0.000 C 
ATOM     30  C   UNL     1      48.147   9.810  17.306  0.00  0.00    +0.000 C 
ATOM     31  C   UNL     1      47.512  10.476  18.521  0.00  0.00    +0.000 C 
ATOM     32  C   UNL     1      47.617   9.586  19.760  0.00  0.00    +0.000 C 
ENDBRANCH  26  27
ENDBRANCH  25  26
ENDBRANCH  24  25
ENDBRANCH  21  24
ENDBRANCH  17  18
ENDBRANCH   3  17
TORSDOF 7
ENDMDL
MODEL 7
REMARK VINA RESULT:    -6.798      4.669      9.182
REMARK INTER + INTRA:         -10.532
REMARK INTER:                  -8.780
REMARK INTRA:                  -1.753
REMARK UNBOUND:                -0.952
REMARK  Name = 
REMARK  10 active torsions:
REMARK  status: ('A' for Active; 'I' for Inactive)
REMARK    1  A    between atoms: C_1  and  C_2
REMARK    2  A    between atoms: C_5  and  C_6
REMARK    3  A    between atoms: N_8  and  C_9
REMARK    4  A    between atoms: C_9  and  C_10
REMARK    5  A    between atoms: C_13  and  C_14
REMARK    6  A    between atoms: C_14  and  C_15
REMARK    7  A    between atoms: C_15  and  C_16
REMARK    8  A    between atoms: C_16  and  N_17
REMARK    9  A    between atoms: C_25  and  C_26
REMARK   10  A    between atoms: C_30  and  C_31
REMARK                            x       y       z     vdW  Elec       q    Type
REMARK                         _______ _______ _______ _____ _____    ______ ____
ROOT
ATOM      1  C   UNL     1      47.036   4.273  14.552  0.00  0.00    +0.000 C 
ATOM      2  O   UNL     1      47.312   3.154  14.143  0.00  0.00    +0.000 OA
ATOM      3  N   UNL     1      47.004   4.563  15.902  0.00  0.00    +0.000 N 
ATOM      4  H   UNL     1      46.563   5.419  16.206  0.00  0.00    +0.000 HD
ENDROOT
BRANCH   1   9
ATOM      5  C   UNL     1      50.856   8.402  13.258  0.00  0.00    +0.000 C 
ATOM      6  C   UNL     1      49.441   8.014  12.937  0.00  0.00    +0.000 A 
ATOM      7  C   UNL     1      48.886   6.854  13.508  0.00  0.00    +0.000 A 
ATOM      8  C   UNL     1      47.542   6.498  13.233  0.00  0.00    +0.000 A 
ATOM      9  C   UNL     1      46.678   5.390  13.653  0.00  0.00    +0.000 A 
ATOM     10  C   UNL     1      45.424   5.491  13.046  0.00  0.00    +0.000 A 
ATOM     11  C   UNL     1      44.206   4.624  13.151  0.00  0.00    +0.000 C 
ATOM     12  S   UNL     1      45.294   6.868  12.032  0.00  0.00    +0.000 S 
ATOM     13  C   UNL     1      46.882   7.353  12.358  0.00  0.00    +0.000 A 
ATOM     14  N   UNL     1      47.369   8.466  11.773  0.00  0.00    +0.000 NA
ATOM     15  C   UNL     1      48.646   8.774  12.078  0.00  0.00    +0.000 A 
ATOM     16  C   UNL     1      49.187  10.015  11.415  0.00  0.00    +0.000 C 
ENDBRANCH   1   9
BRANCH   3  17
ATOM     17  C   UNL     1      47.259   3.543  16.898  0.00  0.00    +0.000 C 
BRANCH  17  18
ATOM     18  C   UNL     1      48.736   3.389  17.164  0.00  0.00    +0.000 A 
ATOM     19  C   UNL     1      49.495   4.486  17.596  0.00  0.00    +0.000 A 
ATOM     20  C   UNL     1      50.867   4.357  17.837  0.00  0.00    +0.000 A 
ATOM     21  C   UNL     1      51.510   3.128  17.655  0.00  0.00    +0.000 A 
ATOM     22  C   UNL     1      50.757   2.036  17.211  0.00  0.00    +0.000 A 
ATOM     23  C   UNL     1      49.386   2.163  16.964  0.00  0.00    +0.000 A 
BRANCH  21  24
ATOM     24  C   UNL     1      52.992   2.967  17.913  0.00  0.00    +0.000 C 
BRANCH  24  25
ATOM     25  C   UNL     1      53.556   4.090  18.789  0.00  0.00    +0.000 C 
BRANCH  25  26
ATOM     26  C   UNL     1      54.696   4.860  18.107  0.00  0.00    +0.000 C 
BRANCH  26  27
ATOM     27  N   UNL     1      54.308   6.191  17.619  0.00  0.00    +0.000 NA
ATOM     28  C   UNL     1      53.716   6.158  16.273  0.00  0.00    +0.000 C 
ATOM     29  C   UNL     1      53.443   7.573  15.762  0.00  0.00    +0.000 C 
ATOM     30  C   UNL     1      52.557   8.350  16.727  0.00  0.00    +0.000 C 
ATOM     31  C   UNL     1      53.121   8.285  18.142  0.00  0.00    +0.000 C 
ATOM     32  C   UNL     1      53.389   6.841  18.567  0.00  0.00    +0.000 C 
ENDBRANCH  26  27
ENDBRANCH  25  26
ENDBRANCH  24  25
ENDBRANCH  21  24
ENDBRANCH  17  18
ENDBRANCH   3  17
TORSDOF 7
ENDMDL
MODEL 8
REMARK VINA RESULT:    -6.654      4.962      7.700
REMARK INTER + INTRA:         -10.329
REMARK INTER:                  -9.366
REMARK INTRA:                  -0.963
REMARK UNBOUND:                -0.952
REMARK  Name = 
REMARK  10 active torsions:
REMARK  status: ('A' for Active; 'I' for Inactive)
REMARK    1  A    between atoms: C_1  and  C_2
REMARK    2  A    between atoms: C_5  and  C_6
REMARK    3  A    between atoms: N_8  and  C_9
REMARK    4  A    between atoms: C_9  and  C_10
REMARK    5  A    between atoms: C_13  and  C_14
REMARK    6  A    between atoms: C_14  and  C_15
REMARK    7  A    between atoms: C_15  and  C_16
REMARK    8  A    between atoms: C_16  and  N_17
REMARK    9  A    between atoms: C_25  and  C_26
REMARK   10  A    between atoms: C_30  and  C_31
REMARK                            x       y       z     vdW  Elec       q    Type
REMARK                         _______ _______ _______ _____ _____    ______ ____
ROOT
ATOM      1  C   UNL     1      50.445   8.956  12.452  0.00  0.00    +0.000 C 
ATOM      2  O   UNL     1      50.671   9.375  13.579  0.00  0.00    +0.000 OA
ATOM      3  N   UNL     1      49.523   7.953  12.225  0.00  0.00    +0.000 N 
ATOM      4  H   UNL     1      49.523   7.485  11.330  0.00  0.00    +0.000 HD
ENDROOT
BRANCH   1   9
ATOM      5  C   UNL     1      54.033   5.543   9.489  0.00  0.00    +0.000 C 
ATOM      6  C   UNL     1      53.489   6.942   9.443  0.00  0.00    +0.000 A 
ATOM      7  C   UNL     1      52.579   7.373  10.426  0.00  0.00    +0.000 A 
ATOM      8  C   UNL     1      52.085   8.700  10.406  0.00  0.00    +0.000 A 
ATOM      9  C   UNL     1      51.155   9.451  11.255  0.00  0.00    +0.000 A 
ATOM     10  C   UNL     1      50.975  10.745  10.759  0.00  0.00    +0.000 A 
ATOM     11  C   UNL     1      50.143  11.886  11.261  0.00  0.00    +0.000 C 
ATOM     12  S   UNL     1      51.900  11.040   9.345  0.00  0.00    +0.000 S 
ATOM     13  C   UNL     1      52.544   9.476   9.347  0.00  0.00    +0.000 A 
ATOM     14  N   UNL     1      53.403   9.110   8.374  0.00  0.00    +0.000 NA
ATOM     15  C   UNL     1      53.859   7.844   8.443  0.00  0.00    +0.000 A 
ATOM     16  C   UNL     1      54.813   7.438   7.348  0.00  0.00    +0.000 C 
ENDBRANCH   1   9
BRANCH   3  17
ATOM     17  C   UNL     1      48.808   7.323  13.316  0.00  0.00    +0.000 C 
BRANCH  17  18
ATOM     18  C   UNL     1      47.623   6.535  12.817  0.00  0.00    +0.000 A 
ATOM     19  C   UNL     1      47.164   5.420  13.533  0.00  0.00    +0.000 A 
ATOM     20  C   UNL     1      46.071   4.676  13.075  0.00  0.00    +0.000 A 
ATOM     21  C   UNL     1      45.410   5.033  11.894  0.00  0.00    +0.000 A 
ATOM     22  C   UNL     1      45.876   6.137  11.172  0.00  0.00    +0.000 A 
ATOM     23  C   UNL     1      46.972   6.879  11.624  0.00  0.00    +0.000 A 
BRANCH  21  24
ATOM     24  C   UNL     1      44.225   4.243  11.384  0.00  0.00    +0.000 C 
BRANCH  24  25
ATOM     25  C   UNL     1      44.638   3.138  10.406  0.00  0.00    +0.000 C 
BRANCH  25  26
ATOM     26  C   UNL     1      44.394   3.520   8.939  0.00  0.00    +0.000 C 
BRANCH  26  27
ATOM     27  N   UNL     1      45.306   2.864   7.992  0.00  0.00    +0.000 NA
ATOM     28  C   UNL     1      46.346   3.768   7.477  0.00  0.00    +0.000 C 
ATOM     29  C   UNL     1      47.191   3.075   6.408  0.00  0.00    +0.000 C 
ATOM     30  C   UNL     1      47.805   1.785   6.936  0.00  0.00    +0.000 C 
ATOM     31  C   UNL     1      46.735   0.902   7.568  0.00  0.00    +0.000 C 
ATOM     32  C   UNL     1      45.919   1.675   8.606  0.00  0.00    +0.000 C 
ENDBRANCH  26  27
ENDBRANCH  25  26
ENDBRANCH  24  25
ENDBRANCH  21  24
ENDBRANCH  17  18
ENDBRANCH   3  17
TORSDOF 7
ENDMDL
MODEL 9
REMARK VINA RESULT:    -6.463      4.057      9.241
REMARK INTER + INTRA:         -10.060
REMARK INTER:                  -8.073
REMARK INTRA:                  -1.987
REMARK UNBOUND:                -0.952
REMARK  Name = 
REMARK  10 active torsions:
REMARK  status: ('A' for Active; 'I' for Inactive)
REMARK    1  A    between atoms: C_1  and  C_2
REMARK    2  A    between atoms: C_5  and  C_6
REMARK    3  A    between atoms: N_8  and  C_9
REMARK    4  A    between atoms: C_9  and  C_10
REMARK    5  A    between atoms: C_13  and  C_14
REMARK    6  A    between atoms: C_14  and  C_15
REMARK    7  A    between atoms: C_15  and  C_16
REMARK    8  A    between atoms: C_16  and  N_17
REMARK    9  A    between atoms: C_25  and  C_26
REMARK   10  A    between atoms: C_30  and  C_31
REMARK                            x       y       z     vdW  Elec       q    Type
REMARK                         _______ _______ _______ _____ _____    ______ ____
ROOT
ATOM      1  C   UNL     1      46.950   4.222  14.490  0.00  0.00    +0.000 C 
ATOM      2  O   UNL     1      47.302   3.136  14.049  0.00  0.00    +0.000 OA
ATOM      3  N   UNL     1      46.925   4.477  15.848  0.00  0.00    +0.000 N 
ATOM      4  H   UNL     1      46.427   5.290  16.180  0.00  0.00    +0.000 HD
ENDROOT
BRANCH   1   9
ATOM      5  C   UNL     1      50.377   8.717  13.322  0.00  0.00    +0.000 C 
ATOM      6  C   UNL     1      49.002   8.212  12.990  0.00  0.00    +0.000 A 
ATOM      7  C   UNL     1      48.556   6.990  13.525  0.00  0.00    +0.000 A 
ATOM      8  C   UNL     1      47.249   6.522  13.239  0.00  0.00    +0.000 A 
ATOM      9  C   UNL     1      46.490   5.328  13.625  0.00  0.00    +0.000 A 
ATOM     10  C   UNL     1      45.231   5.333  13.022  0.00  0.00    +0.000 A 
ATOM     11  C   UNL     1      44.097   4.357  13.101  0.00  0.00    +0.000 C 
ATOM     12  S   UNL     1      44.973   6.723  12.050  0.00  0.00    +0.000 S 
ATOM     13  C   UNL     1      46.512   7.340  12.390  0.00  0.00    +0.000 A 
ATOM     14  N   UNL     1      46.894   8.510  11.840  0.00  0.00    +0.000 NA
ATOM     15  C   UNL     1      48.139   8.923  12.154  0.00  0.00    +0.000 A 
ATOM     16  C   UNL     1      48.564  10.227  11.529  0.00  0.00    +0.000 C 
ENDBRANCH   1   9
BRANCH   3  17
ATOM     17  C   UNL     1      47.278   3.458  16.814  0.00  0.00    +0.000 C 
BRANCH  17  18
ATOM     18  C   UNL     1      48.326   3.952  17.779  0.00  0.00    +0.000 A 
ATOM     19  C   UNL     1      49.687   3.777  17.495  0.00  0.00    +0.000 A 
ATOM     20  C   UNL     1      50.668   4.224  18.388  0.00  0.00    +0.000 A 
ATOM     21  C   UNL     1      50.310   4.860  19.581  0.00  0.00    +0.000 A 
ATOM     22  C   UNL     1      48.951   5.024  19.872  0.00  0.00    +0.000 A 
ATOM     23  C   UNL     1      47.968   4.573  18.985  0.00  0.00    +0.000 A 
BRANCH  21  24
ATOM     24  C   UNL     1      51.355   5.353  20.558  0.00  0.00    +0.000 C 
BRANCH  24  25
ATOM     25  C   UNL     1      51.184   6.839  20.892  0.00  0.00    +0.000 C 
BRANCH  25  26
ATOM     26  C   UNL     1      51.415   7.751  19.679  0.00  0.00    +0.000 C 
BRANCH  26  27
ATOM     27  N   UNL     1      50.178   8.175  19.007  0.00  0.00    +0.000 NA
ATOM     28  C   UNL     1      49.935   9.621  19.115  0.00  0.00    +0.000 C 
ATOM     29  C   UNL     1      48.581   9.993  18.508  0.00  0.00    +0.000 C 
ATOM     30  C   UNL     1      48.475   9.530  17.061  0.00  0.00    +0.000 C 
ATOM     31  C   UNL     1      48.838   8.054  16.944  0.00  0.00    +0.000 C 
ATOM     32  C   UNL     1      50.191   7.761  17.594  0.00  0.00    +0.000 C 
ENDBRANCH  26  27
ENDBRANCH  25  26
ENDBRANCH  24  25
ENDBRANCH  21  24
ENDBRANCH  17  18
ENDBRANCH   3  17
TORSDOF 7
ENDMDL
