MODEL 1
REMARK VINA RESULT:    -8.602      0.000      0.000
REMARK INTER + INTRA:         -13.328
REMARK INTER:                 -12.373
REMARK INTRA:                  -0.955
REMARK UNBOUND:                -0.955
REMARK  Name = 
REMARK  9 active torsions:
REMARK  status: ('A' for Active; 'I' for Inactive)
REMARK    1  A    between atoms: C_1  and  O_2
REMARK    2  A    between atoms: O_2  and  C_3
REMARK    3  A    between atoms: C_5  and  C_6
REMARK    4  A    between atoms: C_6  and  C_7
REMARK    5  A    between atoms: C_7  and  N_8
REMARK    6  A    between atoms: C_12  and  C_13
REMARK    7  A    between atoms: C_19  and  C_20
REMARK    8  A    between atoms: C_24  and  C_25
REMARK    9  A    between atoms: C_25  and  O_26
REMARK                            x       y       z     vdW  Elec       q    Type
REMARK                         _______ _______ _______ _____ _____    ______ ____
ROOT
ATOM      1  C   UNL     1      46.747   4.749  13.899  0.00  0.00    +0.000 A 
ATOM      2  C   UNL     1      45.430   4.543  13.474  0.00  0.00    +0.000 A 
ATOM      3  C   UNL     1      44.802   5.473  12.633  0.00  0.00    +0.000 A 
ATOM      4  C   UNL     1      45.544   6.587  12.212  0.00  0.00    +0.000 A 
ATOM      5  C   UNL     1      46.848   6.846  12.654  0.00  0.00    +0.000 A 
ATOM      6  C   UNL     1      47.442   5.889  13.484  0.00  0.00    +0.000 A 
ENDROOT
BRANCH   5   7
ATOM      7  C   UNL     1      47.525   8.103  12.271  0.00  0.00    +0.000 A 
ATOM      8  C   UNL     1      48.863   8.120  11.854  0.00  0.00    +0.000 A 
ATOM      9  C   UNL     1      49.485   9.313  11.481  0.00  0.00    +0.000 A 
ATOM     10  C   UNL     1      48.771  10.511  11.487  0.00  0.00    +0.000 A 
ATOM     11  C   UNL     1      47.433  10.533  11.883  0.00  0.00    +0.000 A 
ATOM     12  C   UNL     1      46.839   9.336  12.303  0.00  0.00    +0.000 A 
BRANCH  11  13
ATOM     13  C   UNL     1      46.627  11.805  11.869  0.00  0.00    +0.000 C 
BRANCH  13  14
ATOM     14  O   UNL     1      45.277  11.546  12.242  0.00  0.00    +0.000 OA
ATOM     15  H   UNL     1      44.848  12.415  12.341  0.00  0.00    +0.000 HD
ENDBRANCH  13  14
ENDBRANCH  11  13
ENDBRANCH   5   7
BRANCH   1  17
ATOM     16  C   UNL     1      47.452   4.284  16.120  0.00  0.00    +0.000 C 
ATOM     17  O   UNL     1      47.461   3.943  14.742  0.00  0.00    +0.000 OA
ENDBRANCH   1  17
BRANCH   3  18
ATOM     18  C   UNL     1      43.339   5.296  12.252  0.00  0.00    +0.000 C 
BRANCH  18  19
ATOM     19  C   UNL     1      43.132   4.577  10.913  0.00  0.00    +0.000 C 
BRANCH  19  20
ATOM     20  N   UNL     1      43.973   5.101   9.833  0.00  0.00    +0.000 N 
ATOM     21  C   UNL     1      44.709   4.053   9.229  0.00  0.00    +0.000 A 
ATOM     22  C   UNL     1      45.574   4.351   8.183  0.00  0.00    +0.000 A 
ATOM     23  C   UNL     1      46.305   3.319   7.589  0.00  0.00    +0.000 A 
ATOM     24  C   UNL     1      46.171   2.006   8.051  0.00  0.00    +0.000 A 
ATOM     25  C   UNL     1      45.278   1.800   9.087  0.00  0.00    +0.000 A 
ATOM     26  N   UNL     1      44.553   2.785   9.668  0.00  0.00    +0.000 NA
ATOM     27  H   UNL     1      44.639   5.791  10.172  0.00  0.00    +0.000 HD
BRANCH  24  28
ATOM     28  C   UNL     1      46.954   0.922   7.427  0.00  0.00    +0.000 C 
ATOM     29  N   UNL     1      47.838   1.232   6.429  0.00  0.00    +0.000 N 
ATOM     30  O   UNL     1      46.820  -0.246   7.785  0.00  0.00    +0.000 OA
ATOM     31  H   UNL     1      47.990   2.143   6.028  0.00  0.00    +0.000 HD
ATOM     32  H   UNL     1      48.339   0.455   6.011  0.00  0.00    +0.000 HD
ENDBRANCH  24  28
ENDBRANCH  19  20
ENDBRANCH  18  19
ENDBRANCH   3  18
TORSDOF 8
ENDMDL
MODEL 2
REMARK VINA RESULT:    -8.599      1.655      2.183
REMARK INTER + INTRA:         -13.324
REMARK INTER:                 -12.286
REMARK INTRA:                  -1.038
REMARK UNBOUND:                -0.955
REMARK  Name = 
REMARK  9 active torsions:
REMARK  status: ('A' for Active; 'I' for Inactive)
REMARK    1  A    between atoms: C_1  and  O_2
REMARK    2  A    between atoms: O_2  and  C_3
REMARK    3  A    between atoms: C_5  and  C_6
REMARK    4  A    between atoms: C_6  and  C_7
REMARK    5  A    between atoms: C_7  and  N_8
REMARK    6  A    between atoms: C_12  and  C_13
REMARK    7  A    between atoms: C_19  and  C_20
REMARK    8  A    between atoms: C_24  and  C_25
REMARK    9  A    between atoms: C_25  and  O_26
REMARK                            x       y       z     vdW  Elec       q    Type
REMARK                         _______ _______ _______ _____ _____    ______ ____
ROOT
ATOM      1  C   UNL     1      46.767   4.546  14.012  0.00  0.00    +0.000 A 
ATOM      2  C   UNL     1      45.435   4.499  13.585  0.00  0.00    +0.000 A 
ATOM      3  C   UNL     1      44.942   5.459  12.691  0.00  0.00    +0.000 A 
ATOM      4  C   UNL     1      45.830   6.439  12.220  0.00  0.00    +0.000 A 
ATOM      5  C   UNL     1      47.156   6.541  12.661  0.00  0.00    +0.000 A 
ATOM      6  C   UNL     1      47.612   5.557  13.544  0.00  0.00    +0.000 A 
ENDROOT
BRANCH   5   7
ATOM      7  C   UNL     1      47.999   7.673  12.219  0.00  0.00    +0.000 A 
ATOM      8  C   UNL     1      47.495   8.978  12.141  0.00  0.00    +0.000 A 
ATOM      9  C   UNL     1      48.307  10.039  11.736  0.00  0.00    +0.000 A 
ATOM     10  C   UNL     1      49.650   9.821  11.433  0.00  0.00    +0.000 A 
ATOM     11  C   UNL     1      50.193   8.538  11.512  0.00  0.00    +0.000 A 
ATOM     12  C   UNL     1      49.352   7.476  11.869  0.00  0.00    +0.000 A 
BRANCH  11  13
ATOM     13  C   UNL     1      51.647   8.277  11.220  0.00  0.00    +0.000 C 
BRANCH  13  14
ATOM     14  O   UNL     1      51.829   6.953  10.728  0.00  0.00    +0.000 OA
ATOM     15  H   UNL     1      52.214   6.438  11.459  0.00  0.00    +0.000 HD
ENDBRANCH  13  14
ENDBRANCH  11  13
ENDBRANCH   5   7
BRANCH   1  17
ATOM     16  C   UNL     1      47.294   4.050  16.274  0.00  0.00    +0.000 C 
ATOM     17  O   UNL     1      47.363   3.695  14.902  0.00  0.00    +0.000 OA
ENDBRANCH   1  17
BRANCH   3  18
ATOM     18  C   UNL     1      43.470   5.463  12.306  0.00  0.00    +0.000 C 
BRANCH  18  19
ATOM     19  C   UNL     1      43.167   4.693  11.014  0.00  0.00    +0.000 C 
BRANCH  19  20
ATOM     20  N   UNL     1      43.927   5.173   9.856  0.00  0.00    +0.000 N 
ATOM     21  C   UNL     1      44.662   4.111   9.275  0.00  0.00    +0.000 A 
ATOM     22  C   UNL     1      45.454   4.368   8.163  0.00  0.00    +0.000 A 
ATOM     23  C   UNL     1      46.184   3.323   7.590  0.00  0.00    +0.000 A 
ATOM     24  C   UNL     1      46.120   2.038   8.139  0.00  0.00    +0.000 A 
ATOM     25  C   UNL     1      45.296   1.872   9.237  0.00  0.00    +0.000 A 
ATOM     26  N   UNL     1      44.573   2.869   9.798  0.00  0.00    +0.000 NA
ATOM     27  H   UNL     1      44.587   5.902  10.113  0.00  0.00    +0.000 HD
BRANCH  24  28
ATOM     28  C   UNL     1      46.903   0.941   7.537  0.00  0.00    +0.000 C 
ATOM     29  N   UNL     1      47.873   1.244   6.620  0.00  0.00    +0.000 N 
ATOM     30  O   UNL     1      46.691  -0.231   7.840  0.00  0.00    +0.000 OA
ATOM     31  H   UNL     1      48.095   2.160   6.266  0.00  0.00    +0.000 HD
ATOM     32  H   UNL     1      48.371   0.459   6.213  0.00  0.00    +0.000 HD
ENDBRANCH  24  28
ENDBRANCH  19  20
ENDBRANCH  18  19
ENDBRANCH   3  18
TORSDOF 8
ENDMDL
MODEL 3
REMARK VINA RESULT:    -7.808      2.079      4.801
REMARK INTER + INTRA:         -12.187
REMARK INTER:                 -11.129
REMARK INTRA:                  -1.058
REMARK UNBOUND:                -0.955
REMARK  Name = 
REMARK  9 active torsions:
REMARK  status: ('A' for Active; 'I' for Inactive)
REMARK    1  A    between atoms: C_1  and  O_2
REMARK    2  A    between atoms: O_2  and  C_3
REMARK    3  A    between atoms: C_5  and  C_6
REMARK    4  A    between atoms: C_6  and  C_7
REMARK    5  A    between atoms: C_7  and  N_8
REMARK    6  A    between atoms: C_12  and  C_13
REMARK    7  A    between atoms: C_19  and  C_20
REMARK    8  A    between atoms: C_24  and  C_25
REMARK    9  A    between atoms: C_25  and  O_26
REMARK                            x       y       z     vdW  Elec       q    Type
REMARK                         _______ _______ _______ _____ _____    ______ ____
ROOT
ATOM      1  C   UNL     1      47.230   6.570  12.121  0.00  0.00    +0.000 A 
ATOM      2  C   UNL     1      45.905   6.379  11.714  0.00  0.00    +0.000 A 
ATOM      3  C   UNL     1      45.037   5.585  12.474  0.00  0.00    +0.000 A 
ATOM      4  C   UNL     1      45.528   5.022  13.662  0.00  0.00    +0.000 A 
ATOM      5  C   UNL     1      46.859   5.156  14.076  0.00  0.00    +0.000 A 
ATOM      6  C   UNL     1      47.691   5.965  13.294  0.00  0.00    +0.000 A 
ENDROOT
BRANCH   5   7
ATOM      7  C   UNL     1      47.342   4.432  15.271  0.00  0.00    +0.000 A 
ATOM      8  C   UNL     1      47.767   3.099  15.201  0.00  0.00    +0.000 A 
ATOM      9  C   UNL     1      48.233   2.433  16.336  0.00  0.00    +0.000 A 
ATOM     10  C   UNL     1      48.315   3.097  17.559  0.00  0.00    +0.000 A 
ATOM     11  C   UNL     1      47.914   4.430  17.666  0.00  0.00    +0.000 A 
ATOM     12  C   UNL     1      47.400   5.068  16.531  0.00  0.00    +0.000 A 
BRANCH  11  13
ATOM     13  C   UNL     1      48.020   5.183  18.966  0.00  0.00    +0.000 C 
BRANCH  13  14
ATOM     14  O   UNL     1      46.729   5.564  19.430  0.00  0.00    +0.000 OA
ATOM     15  H   UNL     1      46.531   6.424  19.018  0.00  0.00    +0.000 HD
ENDBRANCH  13  14
ENDBRANCH  11  13
ENDBRANCH   5   7
BRANCH   1  17
ATOM     16  C   UNL     1      48.961   8.194  12.229  0.00  0.00    +0.000 C 
ATOM     17  O   UNL     1      48.185   7.289  11.457  0.00  0.00    +0.000 OA
ENDBRANCH   1  17
BRANCH   3  18
ATOM     18  C   UNL     1      43.626   5.299  11.978  0.00  0.00    +0.000 C 
BRANCH  18  19
ATOM     19  C   UNL     1      43.573   4.761  10.542  0.00  0.00    +0.000 C 
BRANCH  19  20
ATOM     20  N   UNL     1      43.930   3.343  10.436  0.00  0.00    +0.000 N 
ATOM     21  C   UNL     1      44.822   3.139   9.356  0.00  0.00    +0.000 A 
ATOM     22  C   UNL     1      45.273   1.852   9.088  0.00  0.00    +0.000 A 
ATOM     23  C   UNL     1      46.151   1.647   8.020  0.00  0.00    +0.000 A 
ATOM     24  C   UNL     1      46.559   2.726   7.229  0.00  0.00    +0.000 A 
ATOM     25  C   UNL     1      46.071   3.972   7.577  0.00  0.00    +0.000 A 
ATOM     26  N   UNL     1      45.229   4.191   8.615  0.00  0.00    +0.000 NA
ATOM     27  H   UNL     1      43.113   2.759  10.277  0.00  0.00    +0.000 HD
BRANCH  24  28
ATOM     28  C   UNL     1      47.477   2.501   6.095  0.00  0.00    +0.000 C 
ATOM     29  N   UNL     1      48.826   2.486   6.326  0.00  0.00    +0.000 N 
ATOM     30  O   UNL     1      47.049   2.336   4.954  0.00  0.00    +0.000 OA
ATOM     31  H   UNL     1      49.283   2.659   7.207  0.00  0.00    +0.000 HD
ATOM     32  H   UNL     1      49.422   2.353   5.516  0.00  0.00    +0.000 HD
ENDBRANCH  24  28
ENDBRANCH  19  20
ENDBRANCH  18  19
ENDBRANCH   3  18
TORSDOF 8
ENDMDL
MODEL 4
REMARK VINA RESULT:    -7.318      1.999      4.523
REMARK INTER + INTRA:         -11.481
REMARK INTER:                 -11.154
REMARK INTRA:                  -0.327
REMARK UNBOUND:                -0.955
REMARK  Name = 
REMARK  9 active torsions:
REMARK  status: ('A' for Active; 'I' for Inactive)
REMARK    1  A    between atoms: C_1  and  O_2
REMARK    2  A    between atoms: O_2  and  C_3
REMARK    3  A    between atoms: C_5  and  C_6
REMARK    4  A    between atoms: C_6  and  C_7
REMARK    5  A    between atoms: C_7  and  N_8
REMARK    6  A    between atoms: C_12  and  C_13
REMARK    7  A    between atoms: C_19  and  C_20
REMARK    8  A    between atoms: C_24  and  C_25
REMARK    9  A    between atoms: C_25  and  O_26
REMARK                            x       y       z     vdW  Elec       q    Type
REMARK                         _______ _______ _______ _____ _____    ______ ____
ROOT
ATOM      1  C   UNL     1      45.371   6.948  12.062  0.00  0.00    +0.000 A 
ATOM      2  C   UNL     1      44.429   5.932  11.870  0.00  0.00    +0.000 A 
ATOM      3  C   UNL     1      44.430   4.798  12.694  0.00  0.00    +0.000 A 
ATOM      4  C   UNL     1      45.378   4.735  13.726  0.00  0.00    +0.000 A 
ATOM      5  C   UNL     1      46.362   5.712  13.919  0.00  0.00    +0.000 A 
ATOM      6  C   UNL     1      46.321   6.833  13.082  0.00  0.00    +0.000 A 
ENDROOT
BRANCH   5   7
ATOM      7  C   UNL     1      47.408   5.520  14.947  0.00  0.00    +0.000 A 
ATOM      8  C   UNL     1      48.520   6.368  15.031  0.00  0.00    +0.000 A 
ATOM      9  C   UNL     1      49.492   6.183  16.016  0.00  0.00    +0.000 A 
ATOM     10  C   UNL     1      49.354   5.165  16.959  0.00  0.00    +0.000 A 
ATOM     11  C   UNL     1      48.253   4.309  16.917  0.00  0.00    +0.000 A 
ATOM     12  C   UNL     1      47.314   4.475  15.891  0.00  0.00    +0.000 A 
BRANCH  11  13
ATOM     13  C   UNL     1      48.060   3.221  17.940  0.00  0.00    +0.000 C 
BRANCH  13  14
ATOM     14  O   UNL     1      46.792   2.595  17.772  0.00  0.00    +0.000 OA
ATOM     15  H   UNL     1      46.948   1.796  17.237  0.00  0.00    +0.000 HD
ENDBRANCH  13  14
ENDBRANCH  11  13
ENDBRANCH   5   7
BRANCH   1  17
ATOM     16  C   UNL     1      45.183   9.313  11.947  0.00  0.00    +0.000 C 
ATOM     17  O   UNL     1      45.501   8.085  11.312  0.00  0.00    +0.000 OA
ENDBRANCH   1  17
BRANCH   3  18
ATOM     18  C   UNL     1      43.468   3.651  12.420  0.00  0.00    +0.000 C 
BRANCH  18  19
ATOM     19  C   UNL     1      43.683   2.975  11.060  0.00  0.00    +0.000 C 
BRANCH  19  20
ATOM     20  N   UNL     1      43.983   3.919   9.979  0.00  0.00    +0.000 N 
ATOM     21  C   UNL     1      44.861   3.327   9.038  0.00  0.00    +0.000 A 
ATOM     22  C   UNL     1      45.271   4.070   7.938  0.00  0.00    +0.000 A 
ATOM     23  C   UNL     1      46.141   3.491   7.010  0.00  0.00    +0.000 A 
ATOM     24  C   UNL     1      46.597   2.182   7.197  0.00  0.00    +0.000 A 
ATOM     25  C   UNL     1      46.127   1.513   8.313  0.00  0.00    +0.000 A 
ATOM     26  N   UNL     1      45.276   2.055   9.216  0.00  0.00    +0.000 NA
ATOM     27  H   UNL     1      44.428   4.764  10.328  0.00  0.00    +0.000 HD
BRANCH  24  28
ATOM     28  C   UNL     1      47.525   1.579   6.221  0.00  0.00    +0.000 C 
ATOM     29  N   UNL     1      48.727   2.189   5.983  0.00  0.00    +0.000 N 
ATOM     30  O   UNL     1      47.231   0.549   5.618  0.00  0.00    +0.000 OA
ATOM     31  H   UNL     1      49.045   3.058   6.382  0.00  0.00    +0.000 HD
ATOM     32  H   UNL     1      49.324   1.756   5.287  0.00  0.00    +0.000 HD
ENDBRANCH  24  28
ENDBRANCH  19  20
ENDBRANCH  18  19
ENDBRANCH   3  18
TORSDOF 8
ENDMDL
MODEL 5
REMARK VINA RESULT:    -7.250      3.273      7.749
REMARK INTER + INTRA:         -11.384
REMARK INTER:                 -10.195
REMARK INTRA:                  -1.189
REMARK UNBOUND:                -0.955
REMARK  Name = 
REMARK  9 active torsions:
REMARK  status: ('A' for Active; 'I' for Inactive)
REMARK    1  A    between atoms: C_1  and  O_2
REMARK    2  A    between atoms: O_2  and  C_3
REMARK    3  A    between atoms: C_5  and  C_6
REMARK    4  A    between atoms: C_6  and  C_7
REMARK    5  A    between atoms: C_7  and  N_8
REMARK    6  A    between atoms: C_12  and  C_13
REMARK    7  A    between atoms: C_19  and  C_20
REMARK    8  A    between atoms: C_24  and  C_25
REMARK    9  A    between atoms: C_25  and  O_26
REMARK                            x       y       z     vdW  Elec       q    Type
REMARK                         _______ _______ _______ _____ _____    ______ ____
ROOT
ATOM      1  C   UNL     1      45.236   9.503  12.085  0.00  0.00    +0.000 A 
ATOM      2  C   UNL     1      46.630   9.626  12.098  0.00  0.00    +0.000 A 
ATOM      3  C   UNL     1      47.443   8.491  11.978  0.00  0.00    +0.000 A 
ATOM      4  C   UNL     1      46.817   7.246  11.813  0.00  0.00    +0.000 A 
ATOM      5  C   UNL     1      45.427   7.083  11.840  0.00  0.00    +0.000 A 
ATOM      6  C   UNL     1      44.650   8.241  11.952  0.00  0.00    +0.000 A 
ENDROOT
BRANCH   5   7
ATOM      7  C   UNL     1      44.838   5.727  11.788  0.00  0.00    +0.000 A 
ATOM      8  C   UNL     1      44.083   5.212  12.851  0.00  0.00    +0.000 A 
ATOM      9  C   UNL     1      43.522   3.936  12.781  0.00  0.00    +0.000 A 
ATOM     10  C   UNL     1      43.676   3.160  11.633  0.00  0.00    +0.000 A 
ATOM     11  C   UNL     1      44.409   3.644  10.548  0.00  0.00    +0.000 A 
ATOM     12  C   UNL     1      45.009   4.905  10.653  0.00  0.00    +0.000 A 
BRANCH  11  13
ATOM     13  C   UNL     1      44.566   2.843   9.282  0.00  0.00    +0.000 C 
BRANCH  13  14
ATOM     14  O   UNL     1      44.236   3.635   8.145  0.00  0.00    +0.000 OA
ATOM     15  H   UNL     1      43.601   3.113   7.622  0.00  0.00    +0.000 HD
ENDBRANCH  13  14
ENDBRANCH  11  13
ENDBRANCH   5   7
BRANCH   1  17
ATOM     16  C   UNL     1      43.339  10.642  11.220  0.00  0.00    +0.000 C 
ATOM     17  O   UNL     1      44.332  10.520  12.226  0.00  0.00    +0.000 OA
ENDBRANCH   1  17
BRANCH   3  18
ATOM     18  C   UNL     1      48.956   8.617  12.090  0.00  0.00    +0.000 C 
BRANCH  18  19
ATOM     19  C   UNL     1      49.636   7.378  12.685  0.00  0.00    +0.000 C 
BRANCH  19  20
ATOM     20  N   UNL     1      50.128   7.580  14.051  0.00  0.00    +0.000 N 
ATOM     21  C   UNL     1      49.437   6.735  14.954  0.00  0.00    +0.000 A 
ATOM     22  C   UNL     1      49.758   6.785  16.305  0.00  0.00    +0.000 A 
ATOM     23  C   UNL     1      49.075   5.955  17.198  0.00  0.00    +0.000 A 
ATOM     24  C   UNL     1      48.076   5.094  16.733  0.00  0.00    +0.000 A 
ATOM     25  C   UNL     1      47.833   5.101  15.372  0.00  0.00    +0.000 A 
ATOM     26  N   UNL     1      48.492   5.890  14.490  0.00  0.00    +0.000 NA
ATOM     27  H   UNL     1      49.995   8.539  14.363  0.00  0.00    +0.000 HD
BRANCH  24  28
ATOM     28  C   UNL     1      47.350   4.228  17.683  0.00  0.00    +0.000 C 
ATOM     29  N   UNL     1      47.618   4.338  19.020  0.00  0.00    +0.000 N 
ATOM     30  O   UNL     1      46.519   3.412  17.291  0.00  0.00    +0.000 OA
ATOM     31  H   UNL     1      48.311   4.936  19.443  0.00  0.00    +0.000 HD
ATOM     32  H   UNL     1      47.115   3.709  19.636  0.00  0.00    +0.000 HD
ENDBRANCH  24  28
ENDBRANCH  19  20
ENDBRANCH  18  19
ENDBRANCH   3  18
TORSDOF 8
ENDMDL
MODEL 6
REMARK VINA RESULT:    -6.941      1.696      3.867
REMARK INTER + INTRA:         -10.939
REMARK INTER:                 -10.113
REMARK INTRA:                  -0.826
REMARK UNBOUND:                -0.955
REMARK  Name = 
REMARK  9 active torsions:
REMARK  status: ('A' for Active; 'I' for Inactive)
REMARK    1  A    between atoms: C_1  and  O_2
REMARK    2  A    between atoms: O_2  and  C_3
REMARK    3  A    between atoms: C_5  and  C_6
REMARK    4  A    between atoms: C_6  and  C_7
REMARK    5  A    between atoms: C_7  and  N_8
REMARK    6  A    between atoms: C_12  and  C_13
REMARK    7  A    between atoms: C_19  and  C_20
REMARK    8  A    between atoms: C_24  and  C_25
REMARK    9  A    between atoms: C_25  and  O_26
REMARK                            x       y       z     vdW  Elec       q    Type
REMARK                         _______ _______ _______ _____ _____    ______ ____
ROOT
ATOM      1  C   UNL     1      44.219   9.409  11.075  0.00  0.00    +0.000 A 
ATOM      2  C   UNL     1      43.371   8.295  11.049  0.00  0.00    +0.000 A 
ATOM      3  C   UNL     1      43.795   7.069  11.578  0.00  0.00    +0.000 A 
ATOM      4  C   UNL     1      45.072   7.006  12.156  0.00  0.00    +0.000 A 
ATOM      5  C   UNL     1      45.961   8.088  12.159  0.00  0.00    +0.000 A 
ATOM      6  C   UNL     1      45.497   9.297  11.631  0.00  0.00    +0.000 A 
ENDROOT
BRANCH   5   7
ATOM      7  C   UNL     1      47.338   7.916  12.672  0.00  0.00    +0.000 A 
ATOM      8  C   UNL     1      48.449   8.407  11.974  0.00  0.00    +0.000 A 
ATOM      9  C   UNL     1      49.741   8.249  12.478  0.00  0.00    +0.000 A 
ATOM     10  C   UNL     1      49.946   7.625  13.708  0.00  0.00    +0.000 A 
ATOM     11  C   UNL     1      48.863   7.135  14.440  0.00  0.00    +0.000 A 
ATOM     12  C   UNL     1      47.578   7.255  13.896  0.00  0.00    +0.000 A 
BRANCH  11  13
ATOM     13  C   UNL     1      49.050   6.485  15.786  0.00  0.00    +0.000 C 
BRANCH  13  14
ATOM     14  O   UNL     1      47.854   5.829  16.194  0.00  0.00    +0.000 OA
ATOM     15  H   UNL     1      47.343   6.482  16.705  0.00  0.00    +0.000 HD
ENDBRANCH  13  14
ENDBRANCH  11  13
ENDBRANCH   5   7
BRANCH   1  17
ATOM     16  C   UNL     1      43.060  10.705   9.456  0.00  0.00    +0.000 C 
ATOM     17  O   UNL     1      43.943  10.648  10.565  0.00  0.00    +0.000 OA
ENDBRANCH   1  17
BRANCH   3  18
ATOM     18  C   UNL     1      42.909   5.837  11.460  0.00  0.00    +0.000 C 
BRANCH  18  19
ATOM     19  C   UNL     1      43.561   4.677  10.697  0.00  0.00    +0.000 C 
BRANCH  19  20
ATOM     20  N   UNL     1      44.410   5.114   9.585  0.00  0.00    +0.000 N 
ATOM     21  C   UNL     1      45.055   4.002   8.990  0.00  0.00    +0.000 A 
ATOM     22  C   UNL     1      45.912   4.214   7.917  0.00  0.00    +0.000 A 
ATOM     23  C   UNL     1      46.553   3.119   7.332  0.00  0.00    +0.000 A 
ATOM     24  C   UNL     1      46.338   1.830   7.830  0.00  0.00    +0.000 A 
ATOM     25  C   UNL     1      45.459   1.712   8.891  0.00  0.00    +0.000 A 
ATOM     26  N   UNL     1      44.821   2.760   9.464  0.00  0.00    +0.000 NA
ATOM     27  H   UNL     1      45.131   5.762   9.891  0.00  0.00    +0.000 HD
BRANCH  24  28
ATOM     28  C   UNL     1      47.027   0.678   7.215  0.00  0.00    +0.000 C 
ATOM     29  N   UNL     1      47.735   0.869   6.059  0.00  0.00    +0.000 N 
ATOM     30  O   UNL     1      46.968  -0.441   7.719  0.00  0.00    +0.000 OA
ATOM     31  H   UNL     1      47.808   1.728   5.538  0.00  0.00    +0.000 HD
ATOM     32  H   UNL     1      48.173   0.047   5.657  0.00  0.00    +0.000 HD
ENDBRANCH  24  28
ENDBRANCH  19  20
ENDBRANCH  18  19
ENDBRANCH   3  18
TORSDOF 8
ENDMDL
MODEL 7
REMARK VINA RESULT:    -6.919      4.019      7.988
REMARK INTER + INTRA:         -10.907
REMARK INTER:                 -10.160
REMARK INTRA:                  -0.748
REMARK UNBOUND:                -0.955
REMARK  Name = 
REMARK  9 active torsions:
REMARK  status: ('A' for Active; 'I' for Inactive)
REMARK    1  A    between atoms: C_1  and  O_2
REMARK    2  A    between atoms: O_2  and  C_3
REMARK    3  A    between atoms: C_5  and  C_6
REMARK    4  A    between atoms: C_6  and  C_7
REMARK    5  A    between atoms: C_7  and  N_8
REMARK    6  A    between atoms: C_12  and  C_13
REMARK    7  A    between atoms: C_19  and  C_20
REMARK    8  A    between atoms: C_24  and  C_25
REMARK    9  A    between atoms: C_25  and  O_26
REMARK                            x       y       z     vdW  Elec       q    Type
REMARK                         _______ _______ _______ _____ _____    ______ ____
ROOT
ATOM      1  C   UNL     1      45.951   8.775  12.716  0.00  0.00    +0.000 A 
ATOM      2  C   UNL     1      47.101   8.610  13.496  0.00  0.00    +0.000 A 
ATOM      3  C   UNL     1      47.682   7.343  13.646  0.00  0.00    +0.000 A 
ATOM      4  C   UNL     1      47.094   6.265  12.967  0.00  0.00    +0.000 A 
ATOM      5  C   UNL     1      45.919   6.387  12.215  0.00  0.00    +0.000 A 
ATOM      6  C   UNL     1      45.377   7.669  12.082  0.00  0.00    +0.000 A 
ENDROOT
BRANCH   5   7
ATOM      7  C   UNL     1      45.284   5.186  11.630  0.00  0.00    +0.000 A 
ATOM      8  C   UNL     1      44.581   4.268  12.421  0.00  0.00    +0.000 A 
ATOM      9  C   UNL     1      43.975   3.145  11.853  0.00  0.00    +0.000 A 
ATOM     10  C   UNL     1      44.031   2.936  10.476  0.00  0.00    +0.000 A 
ATOM     11  C   UNL     1      44.710   3.836   9.653  0.00  0.00    +0.000 A 
ATOM     12  C   UNL     1      45.357   4.928  10.244  0.00  0.00    +0.000 A 
BRANCH  11  13
ATOM     13  C   UNL     1      44.762   3.654   8.158  0.00  0.00    +0.000 C 
BRANCH  13  14
ATOM     14  O   UNL     1      45.856   4.377   7.604  0.00  0.00    +0.000 OA
ATOM     15  H   UNL     1      46.073   3.943   6.759  0.00  0.00    +0.000 HD
ENDBRANCH  13  14
ENDBRANCH  11  13
ENDBRANCH   5   7
BRANCH   1  17
ATOM     16  C   UNL     1      44.350   9.974  11.436  0.00  0.00    +0.000 C 
ATOM     17  O   UNL     1      45.270   9.944  12.516  0.00  0.00    +0.000 OA
ENDBRANCH   1  17
BRANCH   3  18
ATOM     18  C   UNL     1      48.873   7.151  14.573  0.00  0.00    +0.000 C 
BRANCH  18  19
ATOM     19  C   UNL     1      48.485   6.927  16.040  0.00  0.00    +0.000 C 
BRANCH  19  20
ATOM     20  N   UNL     1      47.890   5.611  16.293  0.00  0.00    +0.000 N 
ATOM     21  C   UNL     1      48.881   4.698  16.729  0.00  0.00    +0.000 A 
ATOM     22  C   UNL     1      48.513   3.389  17.015  0.00  0.00    +0.000 A 
ATOM     23  C   UNL     1      49.490   2.485  17.441  0.00  0.00    +0.000 A 
ATOM     24  C   UNL     1      50.821   2.895  17.567  0.00  0.00    +0.000 A 
ATOM     25  C   UNL     1      51.093   4.219  17.273  0.00  0.00    +0.000 A 
ATOM     26  N   UNL     1      50.159   5.112  16.870  0.00  0.00    +0.000 NA
ATOM     27  H   UNL     1      47.459   5.224  15.458  0.00  0.00    +0.000 HD
BRANCH  24  28
ATOM     28  C   UNL     1      51.850   1.933  18.005  0.00  0.00    +0.000 C 
ATOM     29  N   UNL     1      51.587   0.593  17.913  0.00  0.00    +0.000 N 
ATOM     30  O   UNL     1      52.928   2.316  18.455  0.00  0.00    +0.000 OA
ATOM     31  H   UNL     1      50.724   0.173  17.608  0.00  0.00    +0.000 HD
ATOM     32  H   UNL     1      52.311  -0.034  18.248  0.00  0.00    +0.000 HD
ENDBRANCH  24  28
ENDBRANCH  19  20
ENDBRANCH  18  19
ENDBRANCH   3  18
TORSDOF 8
ENDMDL
MODEL 8
REMARK VINA RESULT:    -6.799      3.956      8.153
REMARK INTER + INTRA:         -10.735
REMARK INTER:                  -9.834
REMARK INTRA:                  -0.900
REMARK UNBOUND:                -0.955
REMARK  Name = 
REMARK  9 active torsions:
REMARK  status: ('A' for Active; 'I' for Inactive)
REMARK    1  A    between atoms: C_1  and  O_2
REMARK    2  A    between atoms: O_2  and  C_3
REMARK    3  A    between atoms: C_5  and  C_6
REMARK    4  A    between atoms: C_6  and  C_7
REMARK    5  A    between atoms: C_7  and  N_8
REMARK    6  A    between atoms: C_12  and  C_13
REMARK    7  A    between atoms: C_19  and  C_20
REMARK    8  A    between atoms: C_24  and  C_25
REMARK    9  A    between atoms: C_25  and  O_26
REMARK                            x       y       z     vdW  Elec       q    Type
REMARK                         _______ _______ _______ _____ _____    ______ ____
ROOT
ATOM      1  C   UNL     1      45.575   9.167  12.221  0.00  0.00    +0.000 A 
ATOM      2  C   UNL     1      46.839   9.123  12.820  0.00  0.00    +0.000 A 
ATOM      3  C   UNL     1      47.642   7.982  12.698  0.00  0.00    +0.000 A 
ATOM      4  C   UNL     1      47.154   6.910  11.936  0.00  0.00    +0.000 A 
ATOM      5  C   UNL     1      45.877   6.903  11.361  0.00  0.00    +0.000 A 
ATOM      6  C   UNL     1      45.110   8.066  11.496  0.00  0.00    +0.000 A 
ENDROOT
BRANCH   5   7
ATOM      7  C   UNL     1      45.377   5.691  10.677  0.00  0.00    +0.000 A 
ATOM      8  C   UNL     1      45.750   5.382   9.363  0.00  0.00    +0.000 A 
ATOM      9  C   UNL     1      45.281   4.226   8.736  0.00  0.00    +0.000 A 
ATOM     10  C   UNL     1      44.455   3.338   9.422  0.00  0.00    +0.000 A 
ATOM     11  C   UNL     1      44.072   3.604  10.738  0.00  0.00    +0.000 A 
ATOM     12  C   UNL     1      44.508   4.793  11.335  0.00  0.00    +0.000 A 
BRANCH  11  13
ATOM     13  C   UNL     1      43.206   2.648  11.517  0.00  0.00    +0.000 C 
BRANCH  13  14
ATOM     14  O   UNL     1      43.871   2.225  12.703  0.00  0.00    +0.000 OA
ATOM     15  H   UNL     1      43.789   1.255  12.732  0.00  0.00    +0.000 HD
ENDBRANCH  13  14
ENDBRANCH  11  13
ENDBRANCH   5   7
BRANCH   1  17
ATOM     16  C   UNL     1      43.671  10.245  11.295  0.00  0.00    +0.000 C 
ATOM     17  O   UNL     1      44.682  10.201  12.290  0.00  0.00    +0.000 OA
ENDBRANCH   1  17
BRANCH   3  18
ATOM     18  C   UNL     1      48.974   7.899  13.432  0.00  0.00    +0.000 C 
BRANCH  18  19
ATOM     19  C   UNL     1      48.844   7.983  14.958  0.00  0.00    +0.000 C 
BRANCH  19  20
ATOM     20  N   UNL     1      48.132   6.844  15.547  0.00  0.00    +0.000 N 
ATOM     21  C   UNL     1      49.034   6.012  16.254  0.00  0.00    +0.000 A 
ATOM     22  C   UNL     1      48.548   4.870  16.881  0.00  0.00    +0.000 A 
ATOM     23  C   UNL     1      49.436   4.044  17.575  0.00  0.00    +0.000 A 
ATOM     24  C   UNL     1      50.797   4.362  17.627  0.00  0.00    +0.000 A 
ATOM     25  C   UNL     1      51.188   5.524  16.986  0.00  0.00    +0.000 A 
ATOM     26  N   UNL     1      50.341   6.341  16.318  0.00  0.00    +0.000 NA
ATOM     27  H   UNL     1      47.677   6.275  14.838  0.00  0.00    +0.000 HD
BRANCH  24  28
ATOM     28  C   UNL     1      51.732   3.480  18.351  0.00  0.00    +0.000 C 
ATOM     29  N   UNL     1      51.820   2.164  17.986  0.00  0.00    +0.000 N 
ATOM     30  O   UNL     1      52.422   3.906  19.275  0.00  0.00    +0.000 OA
ATOM     31  H   UNL     1      51.269   1.701  17.281  0.00  0.00    +0.000 HD
ATOM     32  H   UNL     1      52.456   1.586  18.525  0.00  0.00    +0.000 HD
ENDBRANCH  24  28
ENDBRANCH  19  20
ENDBRANCH  18  19
ENDBRANCH   3  18
TORSDOF 8
ENDMDL
MODEL 9
REMARK VINA RESULT:    -6.461      2.214      3.839
REMARK INTER + INTRA:         -10.249
REMARK INTER:                  -9.376
REMARK INTRA:                  -0.873
REMARK UNBOUND:                -0.955
REMARK  Name = 
REMARK  9 active torsions:
REMARK  status: ('A' for Active; 'I' for Inactive)
REMARK    1  A    between atoms: C_1  and  O_2
REMARK    2  A    between atoms: O_2  and  C_3
REMARK    3  A    between atoms: C_5  and  C_6
REMARK    4  A    between atoms: C_6  and  C_7
REMARK    5  A    between atoms: C_7  and  N_8
REMARK    6  A    between atoms: C_12  and  C_13
REMARK    7  A    between atoms: C_19  and  C_20
REMARK    8  A    between atoms: C_24  and  C_25
REMARK    9  A    between atoms: C_25  and  O_26
REMARK                            x       y       z     vdW  Elec       q    Type
REMARK                         _______ _______ _______ _____ _____    ______ ____
ROOT
ATOM      1  C   UNL     1      45.408   9.727  12.162  0.00  0.00    +0.000 A 
ATOM      2  C   UNL     1      44.702   8.523  12.261  0.00  0.00    +0.000 A 
ATOM      3  C   UNL     1      45.387   7.308  12.391  0.00  0.00    +0.000 A 
ATOM      4  C   UNL     1      46.788   7.344  12.452  0.00  0.00    +0.000 A 
ATOM      5  C   UNL     1      47.527   8.525  12.312  0.00  0.00    +0.000 A 
ATOM      6  C   UNL     1      46.806   9.718  12.194  0.00  0.00    +0.000 A 
ENDROOT
BRANCH   5   7
ATOM      7  C   UNL     1      49.004   8.475  12.258  0.00  0.00    +0.000 A 
ATOM      8  C   UNL     1      49.681   7.887  11.182  0.00  0.00    +0.000 A 
ATOM      9  C   UNL     1      51.076   7.859  11.138  0.00  0.00    +0.000 A 
ATOM     10  C   UNL     1      51.824   8.449  12.156  0.00  0.00    +0.000 A 
ATOM     11  C   UNL     1      51.186   9.057  13.239  0.00  0.00    +0.000 A 
ATOM     12  C   UNL     1      49.787   9.031  13.293  0.00  0.00    +0.000 A 
BRANCH  11  13
ATOM     13  C   UNL     1      51.966   9.731  14.337  0.00  0.00    +0.000 C 
BRANCH  13  14
ATOM     14  O   UNL     1      51.108  10.077  15.420  0.00  0.00    +0.000 OA
ATOM     15  H   UNL     1      50.508   9.320  15.547  0.00  0.00    +0.000 HD
ENDBRANCH  13  14
ENDBRANCH  11  13
ENDBRANCH   5   7
BRANCH   1  17
ATOM     16  C   UNL     1      44.011  11.160  10.882  0.00  0.00    +0.000 C 
ATOM     17  O   UNL     1      44.867  10.973  11.999  0.00  0.00    +0.000 OA
ENDBRANCH   1  17
BRANCH   3  18
ATOM     18  C   UNL     1      44.620   5.993  12.399  0.00  0.00    +0.000 C 
BRANCH  18  19
ATOM     19  C   UNL     1      44.190   5.520  11.005  0.00  0.00    +0.000 C 
BRANCH  19  20
ATOM     20  N   UNL     1      44.259   4.065  10.835  0.00  0.00    +0.000 N 
ATOM     21  C   UNL     1      45.015   3.740   9.682  0.00  0.00    +0.000 A 
ATOM     22  C   UNL     1      45.190   2.403   9.346  0.00  0.00    +0.000 A 
ATOM     23  C   UNL     1      45.932   2.079   8.206  0.00  0.00    +0.000 A 
ATOM     24  C   UNL     1      46.480   3.092   7.414  0.00  0.00    +0.000 A 
ATOM     25  C   UNL     1      46.267   4.393   7.832  0.00  0.00    +0.000 A 
ATOM     26  N   UNL     1      45.561   4.725   8.938  0.00  0.00    +0.000 NA
ATOM     27  H   UNL     1      43.336   3.653  10.726  0.00  0.00    +0.000 HD
BRANCH  24  28
ATOM     28  C   UNL     1      47.253   2.744   6.205  0.00  0.00    +0.000 C 
ATOM     29  N   UNL     1      48.561   2.364   6.340  0.00  0.00    +0.000 N 
ATOM     30  O   UNL     1      46.742   2.796   5.088  0.00  0.00    +0.000 OA
ATOM     31  H   UNL     1      49.089   2.335   7.197  0.00  0.00    +0.000 HD
ATOM     32  H   UNL     1      49.062   2.157   5.483  0.00  0.00    +0.000 HD
ENDBRANCH  24  28
ENDBRANCH  19  20
ENDBRANCH  18  19
ENDBRANCH   3  18
TORSDOF 8
ENDMDL
