MODEL 1
REMARK VINA RESULT:    -8.278      0.000      0.000
REMARK INTER + INTRA:         -12.575
REMARK INTER:                 -11.666
REMARK INTRA:                  -0.909
REMARK UNBOUND:                -0.909
REMARK  Name = 
REMARK  9 active torsions:
REMARK  status: ('A' for Active; 'I' for Inactive)
REMARK    1  A    between atoms: C_1  and  C_2
REMARK    2  A    between atoms: C_5  and  C_6
REMARK    3  A    between atoms: N_8  and  C_9
REMARK    4  A    between atoms: C_9  and  C_10
REMARK    5  A    between atoms: C_13  and  C_14
REMARK    6  A    between atoms: C_14  and  N_15
REMARK    7  A    between atoms: N_15  and  C_16
REMARK    8  A    between atoms: C_16  and  C_17
REMARK    9  A    between atoms: C_16  and  C_18
REMARK                            x       y       z     vdW  Elec       q    Type
REMARK                         _______ _______ _______ _____ _____    ______ ____
ROOT
ATOM      1  C   UNL     1      47.359   6.307  13.670  0.00  0.00    +0.000 A 
ATOM      2  C   UNL     1      46.783   5.031  13.756  0.00  0.00    +0.000 A 
ATOM      3  C   UNL     1      45.751   4.651  12.890  0.00  0.00    +0.000 A 
ATOM      4  C   UNL     1      45.268   5.543  11.925  0.00  0.00    +0.000 A 
ATOM      5  C   UNL     1      45.875   6.803  11.815  0.00  0.00    +0.000 A 
ATOM      6  C   UNL     1      46.907   7.182  12.675  0.00  0.00    +0.000 A 
ENDROOT
BRANCH   1   7
ATOM      7  C   UNL     1      48.485   6.707  14.591  0.00  0.00    +0.000 C 
BRANCH   7  10
ATOM      8  C   UNL     1      49.316   5.744  16.714  0.00  0.00    +0.000 C 
ATOM      9  O   UNL     1      50.490   5.792  16.371  0.00  0.00    +0.000 OA
ATOM     10  N   UNL     1      48.279   6.160  15.909  0.00  0.00    +0.000 N 
ATOM     11  H   UNL     1      47.335   6.141  16.256  0.00  0.00    +0.000 HD
BRANCH   8  16
ATOM     12  C   UNL     1      47.244   8.992  21.111  0.00  0.00    +0.000 C 
ATOM     13  C   UNL     1      47.591   7.592  20.703  0.00  0.00    +0.000 A 
ATOM     14  C   UNL     1      48.094   7.324  19.427  0.00  0.00    +0.000 A 
ATOM     15  C   UNL     1      48.386   5.984  19.143  0.00  0.00    +0.000 A 
ATOM     16  C   UNL     1      48.899   5.230  18.028  0.00  0.00    +0.000 A 
ATOM     17  C   UNL     1      48.933   3.904  18.447  0.00  0.00    +0.000 A 
ATOM     18  N   UNL     1      48.469   3.835  19.735  0.00  0.00    +0.000 N 
ATOM     19  C   UNL     1      48.138   5.082  20.168  0.00  0.00    +0.000 A 
ATOM     20  N   UNL     1      47.653   5.365  21.387  0.00  0.00    +0.000 NA
ATOM     21  N   UNL     1      47.383   6.631  21.643  0.00  0.00    +0.000 NA
ATOM     22  H   UNL     1      48.381   3.002  20.299  0.00  0.00    +0.000 HD
ENDBRANCH   8  16
ENDBRANCH   7  10
ENDBRANCH   1   7
BRANCH   4  23
ATOM     23  C   UNL     1      44.182   5.177  10.937  0.00  0.00    +0.000 C 
BRANCH  23  24
ATOM     24  N   UNL     1      44.685   4.868   9.595  0.00  0.00    +0.000 NA
ATOM     25  H   UNL     1      45.692   5.017   9.591  0.00  0.00    +0.000 HD
BRANCH  24  26
ATOM     26  C   UNL     1      44.402   3.476   9.173  0.00  0.00    +0.000 C 
ATOM     27  C   UNL     1      43.990   2.657  10.409  0.00  0.00    +0.000 C 
BRANCH  26  28
ATOM     28  C   UNL     1      45.516   2.866   8.322  0.00  0.00    +0.000 A 
ATOM     29  C   UNL     1      45.845   1.502   8.379  0.00  0.00    +0.000 A 
ATOM     30  C   UNL     1      46.934   0.990   7.668  0.00  0.00    +0.000 A 
ATOM     31  C   UNL     1      47.716   1.834   6.884  0.00  0.00    +0.000 A 
ATOM     32  C   UNL     1      47.382   3.180   6.775  0.00  0.00    +0.000 A 
ATOM     33  C   UNL     1      46.279   3.687   7.469  0.00  0.00    +0.000 A 
ENDBRANCH  26  28
ENDBRANCH  24  26
ENDBRANCH  23  24
ENDBRANCH   4  23
TORSDOF 7
ENDMDL
MODEL 2
REMARK VINA RESULT:    -8.189      1.234      2.135
REMARK INTER + INTRA:         -12.449
REMARK INTER:                 -11.609
REMARK INTRA:                  -0.840
REMARK UNBOUND:                -0.909
REMARK  Name = 
REMARK  9 active torsions:
REMARK  status: ('A' for Active; 'I' for Inactive)
REMARK    1  A    between atoms: C_1  and  C_2
REMARK    2  A    between atoms: C_5  and  C_6
REMARK    3  A    between atoms: N_8  and  C_9
REMARK    4  A    between atoms: C_9  and  C_10
REMARK    5  A    between atoms: C_13  and  C_14
REMARK    6  A    between atoms: C_14  and  N_15
REMARK    7  A    between atoms: N_15  and  C_16
REMARK    8  A    between atoms: C_16  and  C_17
REMARK    9  A    between atoms: C_16  and  C_18
REMARK                            x       y       z     vdW  Elec       q    Type
REMARK                         _______ _______ _______ _____ _____    ______ ____
ROOT
ATOM      1  C   UNL     1      47.751   6.399  13.666  0.00  0.00    +0.000 A 
ATOM      2  C   UNL     1      47.505   7.196  12.538  0.00  0.00    +0.000 A 
ATOM      3  C   UNL     1      46.506   6.851  11.620  0.00  0.00    +0.000 A 
ATOM      4  C   UNL     1      45.736   5.697  11.808  0.00  0.00    +0.000 A 
ATOM      5  C   UNL     1      45.956   4.926  12.960  0.00  0.00    +0.000 A 
ATOM      6  C   UNL     1      46.949   5.271  13.878  0.00  0.00    +0.000 A 
ENDROOT
BRANCH   1   7
ATOM      7  C   UNL     1      48.814   6.785  14.664  0.00  0.00    +0.000 C 
BRANCH   7  10
ATOM      8  C   UNL     1      49.084   5.751  16.897  0.00  0.00    +0.000 C 
ATOM      9  O   UNL     1      50.151   5.222  16.612  0.00  0.00    +0.000 OA
ATOM     10  N   UNL     1      48.366   6.520  16.009  0.00  0.00    +0.000 N 
ATOM     11  H   UNL     1      47.516   6.969  16.306  0.00  0.00    +0.000 HD
BRANCH   8  16
ATOM     12  C   UNL     1      51.973   4.858  21.899  0.00  0.00    +0.000 C 
ATOM     13  C   UNL     1      50.607   5.032  21.308  0.00  0.00    +0.000 A 
ATOM     14  C   UNL     1      50.444   5.238  19.936  0.00  0.00    +0.000 A 
ATOM     15  C   UNL     1      49.127   5.390  19.483  0.00  0.00    +0.000 A 
ATOM     16  C   UNL     1      48.465   5.612  18.223  0.00  0.00    +0.000 A 
ATOM     17  C   UNL     1      47.104   5.660  18.511  0.00  0.00    +0.000 A 
ATOM     18  N   UNL     1      46.931   5.483  19.858  0.00  0.00    +0.000 N 
ATOM     19  C   UNL     1      48.142   5.317  20.456  0.00  0.00    +0.000 A 
ATOM     20  N   UNL     1      48.325   5.118  21.771  0.00  0.00    +0.000 NA
ATOM     21  N   UNL     1      49.569   4.975  22.186  0.00  0.00    +0.000 NA
ATOM     22  H   UNL     1      46.051   5.470  20.355  0.00  0.00    +0.000 HD
ENDBRANCH   8  16
ENDBRANCH   7  10
ENDBRANCH   1   7
BRANCH   4  23
ATOM     23  C   UNL     1      44.618   5.293  10.874  0.00  0.00    +0.000 C 
BRANCH  23  24
ATOM     24  N   UNL     1      45.068   4.978   9.514  0.00  0.00    +0.000 NA
ATOM     25  H   UNL     1      46.085   5.030   9.497  0.00  0.00    +0.000 HD
BRANCH  24  26
ATOM     26  C   UNL     1      44.647   3.633   9.058  0.00  0.00    +0.000 C 
ATOM     27  C   UNL     1      44.081   2.855  10.259  0.00  0.00    +0.000 C 
BRANCH  26  28
ATOM     28  C   UNL     1      45.724   2.905   8.253  0.00  0.00    +0.000 A 
ATOM     29  C   UNL     1      46.522   3.559   7.299  0.00  0.00    +0.000 A 
ATOM     30  C   UNL     1      47.427   2.849   6.505  0.00  0.00    +0.000 A 
ATOM     31  C   UNL     1      47.554   1.471   6.650  0.00  0.00    +0.000 A 
ATOM     32  C   UNL     1      46.809   0.808   7.620  0.00  0.00    +0.000 A 
ATOM     33  C   UNL     1      45.919   1.521   8.429  0.00  0.00    +0.000 A 
ENDBRANCH  26  28
ENDBRANCH  24  26
ENDBRANCH  23  24
ENDBRANCH   4  23
TORSDOF 7
ENDMDL
MODEL 3
REMARK VINA RESULT:    -8.016      2.545      3.135
REMARK INTER + INTRA:         -12.205
REMARK INTER:                 -10.936
REMARK INTRA:                  -1.269
REMARK UNBOUND:                -0.909
REMARK  Name = 
REMARK  9 active torsions:
REMARK  status: ('A' for Active; 'I' for Inactive)
REMARK    1  A    between atoms: C_1  and  C_2
REMARK    2  A    between atoms: C_5  and  C_6
REMARK    3  A    between atoms: N_8  and  C_9
REMARK    4  A    between atoms: C_9  and  C_10
REMARK    5  A    between atoms: C_13  and  C_14
REMARK    6  A    between atoms: C_14  and  N_15
REMARK    7  A    between atoms: N_15  and  C_16
REMARK    8  A    between atoms: C_16  and  C_17
REMARK    9  A    between atoms: C_16  and  C_18
REMARK                            x       y       z     vdW  Elec       q    Type
REMARK                         _______ _______ _______ _____ _____    ______ ____
ROOT
ATOM      1  C   UNL     1      47.255   8.037  12.475  0.00  0.00    +0.000 A 
ATOM      2  C   UNL     1      45.968   8.419  12.883  0.00  0.00    +0.000 A 
ATOM      3  C   UNL     1      44.843   7.688  12.484  0.00  0.00    +0.000 A 
ATOM      4  C   UNL     1      44.982   6.562  11.663  0.00  0.00    +0.000 A 
ATOM      5  C   UNL     1      46.273   6.158  11.293  0.00  0.00    +0.000 A 
ATOM      6  C   UNL     1      47.397   6.884  11.693  0.00  0.00    +0.000 A 
ENDROOT
BRANCH   1   7
ATOM      7  C   UNL     1      48.467   8.815  12.924  0.00  0.00    +0.000 C 
BRANCH   7  10
ATOM      8  C   UNL     1      49.072   8.111  15.219  0.00  0.00    +0.000 C 
ATOM      9  O   UNL     1      48.247   8.845  15.748  0.00  0.00    +0.000 OA
ATOM     10  N   UNL     1      49.249   8.040  13.855  0.00  0.00    +0.000 N 
ATOM     11  H   UNL     1      49.910   7.388  13.468  0.00  0.00    +0.000 HD
BRANCH   8  16
ATOM     12  C   UNL     1      47.532   2.990  17.578  0.00  0.00    +0.000 C 
ATOM     13  C   UNL     1      48.670   3.951  17.415  0.00  0.00    +0.000 A 
ATOM     14  C   UNL     1      48.507   5.136  16.694  0.00  0.00    +0.000 A 
ATOM     15  C   UNL     1      49.631   5.966  16.599  0.00  0.00    +0.000 A 
ATOM     16  C   UNL     1      49.958   7.233  15.996  0.00  0.00    +0.000 A 
ATOM     17  C   UNL     1      51.294   7.468  16.306  0.00  0.00    +0.000 A 
ATOM     18  N   UNL     1      51.768   6.419  17.049  0.00  0.00    +0.000 N 
ATOM     19  C   UNL     1      50.775   5.507  17.235  0.00  0.00    +0.000 A 
ATOM     20  N   UNL     1      50.907   4.362  17.922  0.00  0.00    +0.000 NA
ATOM     21  N   UNL     1      49.841   3.589  18.006  0.00  0.00    +0.000 NA
ATOM     22  H   UNL     1      52.703   6.316  17.417  0.00  0.00    +0.000 HD
ENDBRANCH   8  16
ENDBRANCH   7  10
ENDBRANCH   1   7
BRANCH   4  23
ATOM     23  C   UNL     1      43.809   5.710  11.231  0.00  0.00    +0.000 C 
BRANCH  23  24
ATOM     24  N   UNL     1      43.944   5.162   9.877  0.00  0.00    +0.000 NA
ATOM     25  H   UNL     1      44.787   5.551   9.460  0.00  0.00    +0.000 HD
BRANCH  24  26
ATOM     26  C   UNL     1      44.031   3.683   9.854  0.00  0.00    +0.000 C 
ATOM     27  C   UNL     1      44.174   3.171  11.298  0.00  0.00    +0.000 C 
BRANCH  26  28
ATOM     28  C   UNL     1      45.072   3.157   8.865  0.00  0.00    +0.000 A 
ATOM     29  C   UNL     1      45.431   1.801   8.800  0.00  0.00    +0.000 A 
ATOM     30  C   UNL     1      46.458   1.364   7.959  0.00  0.00    +0.000 A 
ATOM     31  C   UNL     1      47.146   2.275   7.163  0.00  0.00    +0.000 A 
ATOM     32  C   UNL     1      46.777   3.617   7.175  0.00  0.00    +0.000 A 
ATOM     33  C   UNL     1      45.735   4.050   8.000  0.00  0.00    +0.000 A 
ENDBRANCH  26  28
ENDBRANCH  24  26
ENDBRANCH  23  24
ENDBRANCH   4  23
TORSDOF 7
ENDMDL
MODEL 4
REMARK VINA RESULT:    -7.791      3.480      6.400
REMARK INTER + INTRA:         -11.889
REMARK INTER:                 -11.063
REMARK INTRA:                  -0.826
REMARK UNBOUND:                -0.909
REMARK  Name = 
REMARK  9 active torsions:
REMARK  status: ('A' for Active; 'I' for Inactive)
REMARK    1  A    between atoms: C_1  and  C_2
REMARK    2  A    between atoms: C_5  and  C_6
REMARK    3  A    between atoms: N_8  and  C_9
REMARK    4  A    between atoms: C_9  and  C_10
REMARK    5  A    between atoms: C_13  and  C_14
REMARK    6  A    between atoms: C_14  and  N_15
REMARK    7  A    between atoms: N_15  and  C_16
REMARK    8  A    between atoms: C_16  and  C_17
REMARK    9  A    between atoms: C_16  and  C_18
REMARK                            x       y       z     vdW  Elec       q    Type
REMARK                         _______ _______ _______ _____ _____    ______ ____
ROOT
ATOM      1  C   UNL     1      45.060   3.355   9.053  0.00  0.00    +0.000 A 
ATOM      2  C   UNL     1      45.423   2.000   9.078  0.00  0.00    +0.000 A 
ATOM      3  C   UNL     1      46.196   1.446   8.052  0.00  0.00    +0.000 A 
ATOM      4  C   UNL     1      46.618   2.235   6.974  0.00  0.00    +0.000 A 
ATOM      5  C   UNL     1      46.289   3.599   6.975  0.00  0.00    +0.000 A 
ATOM      6  C   UNL     1      45.521   4.154   7.999  0.00  0.00    +0.000 A 
ENDROOT
BRANCH   1   7
ATOM      7  C   UNL     1      44.244   3.954  10.171  0.00  0.00    +0.000 C 
BRANCH   7  10
ATOM      8  C   UNL     1      45.282   4.242  12.399  0.00  0.00    +0.000 C 
ATOM      9  O   UNL     1      44.732   3.255  12.872  0.00  0.00    +0.000 OA
ATOM     10  N   UNL     1      45.095   4.656  11.099  0.00  0.00    +0.000 N 
ATOM     11  H   UNL     1      45.604   5.448  10.746  0.00  0.00    +0.000 HD
BRANCH   8  16
ATOM     12  C   UNL     1      48.410   2.459  17.004  0.00  0.00    +0.000 C 
ATOM     13  C   UNL     1      48.102   3.644  16.139  0.00  0.00    +0.000 A 
ATOM     14  C   UNL     1      47.209   3.534  15.071  0.00  0.00    +0.000 A 
ATOM     15  C   UNL     1      46.989   4.698  14.322  0.00  0.00    +0.000 A 
ATOM     16  C   UNL     1      46.198   5.084  13.181  0.00  0.00    +0.000 A 
ATOM     17  C   UNL     1      46.469   6.432  12.969  0.00  0.00    +0.000 A 
ATOM     18  N   UNL     1      47.370   6.856  13.911  0.00  0.00    +0.000 N 
ATOM     19  C   UNL     1      47.690   5.822  14.735  0.00  0.00    +0.000 A 
ATOM     20  N   UNL     1      48.545   5.901  15.766  0.00  0.00    +0.000 NA
ATOM     21  N   UNL     1      48.742   4.799  16.464  0.00  0.00    +0.000 NA
ATOM     22  H   UNL     1      47.749   7.788  14.004  0.00  0.00    +0.000 HD
ENDBRANCH   8  16
ENDBRANCH   7  10
ENDBRANCH   1   7
BRANCH   4  23
ATOM     23  C   UNL     1      47.487   1.703   5.856  0.00  0.00    +0.000 C 
BRANCH  23  24
ATOM     24  N   UNL     1      47.212   0.305   5.507  0.00  0.00    +0.000 NA
ATOM     25  H   UNL     1      46.333   0.037   5.944  0.00  0.00    +0.000 HD
BRANCH  24  26
ATOM     26  C   UNL     1      47.116   0.078   4.047  0.00  0.00    +0.000 C 
ATOM     27  C   UNL     1      46.091   1.064   3.457  0.00  0.00    +0.000 C 
BRANCH  26  28
ATOM     28  C   UNL     1      46.901  -1.390   3.679  0.00  0.00    +0.000 A 
ATOM     29  C   UNL     1      46.889  -1.839   2.348  0.00  0.00    +0.000 A 
ATOM     30  C   UNL     1      46.589  -3.167   2.035  0.00  0.00    +0.000 A 
ATOM     31  C   UNL     1      46.296  -4.075   3.049  0.00  0.00    +0.000 A 
ATOM     32  C   UNL     1      46.347  -3.666   4.377  0.00  0.00    +0.000 A 
ATOM     33  C   UNL     1      46.669  -2.342   4.691  0.00  0.00    +0.000 A 
ENDBRANCH  26  28
ENDBRANCH  24  26
ENDBRANCH  23  24
ENDBRANCH   4  23
TORSDOF 7
ENDMDL
MODEL 5
REMARK VINA RESULT:    -7.764      3.341      9.437
REMARK INTER + INTRA:         -11.850
REMARK INTER:                 -10.271
REMARK INTRA:                  -1.580
REMARK UNBOUND:                -0.909
REMARK  Name = 
REMARK  9 active torsions:
REMARK  status: ('A' for Active; 'I' for Inactive)
REMARK    1  A    between atoms: C_1  and  C_2
REMARK    2  A    between atoms: C_5  and  C_6
REMARK    3  A    between atoms: N_8  and  C_9
REMARK    4  A    between atoms: C_9  and  C_10
REMARK    5  A    between atoms: C_13  and  C_14
REMARK    6  A    between atoms: C_14  and  N_15
REMARK    7  A    between atoms: N_15  and  C_16
REMARK    8  A    between atoms: C_16  and  C_17
REMARK    9  A    between atoms: C_16  and  C_18
REMARK                            x       y       z     vdW  Elec       q    Type
REMARK                         _______ _______ _______ _____ _____    ______ ____
ROOT
ATOM      1  C   UNL     1      46.929   7.775  12.882  0.00  0.00    +0.000 A 
ATOM      2  C   UNL     1      47.954   6.856  12.613  0.00  0.00    +0.000 A 
ATOM      3  C   UNL     1      49.181   6.936  13.282  0.00  0.00    +0.000 A 
ATOM      4  C   UNL     1      49.411   7.942  14.229  0.00  0.00    +0.000 A 
ATOM      5  C   UNL     1      48.368   8.832  14.525  0.00  0.00    +0.000 A 
ATOM      6  C   UNL     1      47.143   8.752  13.862  0.00  0.00    +0.000 A 
ENDROOT
BRANCH   1   7
ATOM      7  C   UNL     1      45.601   7.675  12.174  0.00  0.00    +0.000 C 
BRANCH   7  10
ATOM      8  C   UNL     1      44.108   5.879  11.353  0.00  0.00    +0.000 C 
ATOM      9  O   UNL     1      43.122   6.603  11.319  0.00  0.00    +0.000 OA
ATOM     10  N   UNL     1      45.348   6.316  11.763  0.00  0.00    +0.000 N 
ATOM     11  H   UNL     1      46.137   5.692  11.731  0.00  0.00    +0.000 HD
BRANCH   8  16
ATOM     12  C   UNL     1      46.747   3.581   6.670  0.00  0.00    +0.000 C 
ATOM     13  C   UNL     1      45.879   3.256   7.848  0.00  0.00    +0.000 A 
ATOM     14  C   UNL     1      45.499   4.252   8.751  0.00  0.00    +0.000 A 
ATOM     15  C   UNL     1      44.688   3.846   9.819  0.00  0.00    +0.000 A 
ATOM     16  C   UNL     1      44.061   4.463  10.960  0.00  0.00    +0.000 A 
ATOM     17  C   UNL     1      43.383   3.442  11.620  0.00  0.00    +0.000 A 
ATOM     18  N   UNL     1      43.577   2.269  10.938  0.00  0.00    +0.000 N 
ATOM     19  C   UNL     1      44.361   2.499   9.850  0.00  0.00    +0.000 A 
ATOM     20  N   UNL     1      44.739   1.560   8.968  0.00  0.00    +0.000 NA
ATOM     21  N   UNL     1      45.502   1.955   7.967  0.00  0.00    +0.000 NA
ATOM     22  H   UNL     1      43.205   1.363  11.183  0.00  0.00    +0.000 HD
ENDBRANCH   8  16
ENDBRANCH   7  10
ENDBRANCH   1   7
BRANCH   4  23
ATOM     23  C   UNL     1      50.700   8.056  15.011  0.00  0.00    +0.000 C 
BRANCH  23  24
ATOM     24  N   UNL     1      51.044   6.845  15.765  0.00  0.00    +0.000 NA
ATOM     25  H   UNL     1      52.014   6.922  16.063  0.00  0.00    +0.000 HD
BRANCH  24  26
ATOM     26  C   UNL     1      50.187   6.638  16.955  0.00  0.00    +0.000 C 
ATOM     27  C   UNL     1      51.029   6.878  18.221  0.00  0.00    +0.000 C 
BRANCH  26  28
ATOM     28  C   UNL     1      49.416   5.318  16.920  0.00  0.00    +0.000 A 
ATOM     29  C   UNL     1      48.113   5.221  16.404  0.00  0.00    +0.000 A 
ATOM     30  C   UNL     1      47.394   4.025  16.478  0.00  0.00    +0.000 A 
ATOM     31  C   UNL     1      47.963   2.901  17.069  0.00  0.00    +0.000 A 
ATOM     32  C   UNL     1      49.269   2.960  17.545  0.00  0.00    +0.000 A 
ATOM     33  C   UNL     1      49.997   4.150  17.451  0.00  0.00    +0.000 A 
ENDBRANCH  26  28
ENDBRANCH  24  26
ENDBRANCH  23  24
ENDBRANCH   4  23
TORSDOF 7
ENDMDL
MODEL 6
REMARK VINA RESULT:    -7.534      5.106      7.715
REMARK INTER + INTRA:         -11.526
REMARK INTER:                 -10.691
REMARK INTRA:                  -0.835
REMARK UNBOUND:                -0.909
REMARK  Name = 
REMARK  9 active torsions:
REMARK  status: ('A' for Active; 'I' for Inactive)
REMARK    1  A    between atoms: C_1  and  C_2
REMARK    2  A    between atoms: C_5  and  C_6
REMARK    3  A    between atoms: N_8  and  C_9
REMARK    4  A    between atoms: C_9  and  C_10
REMARK    5  A    between atoms: C_13  and  C_14
REMARK    6  A    between atoms: C_14  and  N_15
REMARK    7  A    between atoms: N_15  and  C_16
REMARK    8  A    between atoms: C_16  and  C_17
REMARK    9  A    between atoms: C_16  and  C_18
REMARK                            x       y       z     vdW  Elec       q    Type
REMARK                         _______ _______ _______ _____ _____    ______ ____
ROOT
ATOM      1  C   UNL     1      44.774   3.814   9.364  0.00  0.00    +0.000 A 
ATOM      2  C   UNL     1      44.882   2.416   9.347  0.00  0.00    +0.000 A 
ATOM      3  C   UNL     1      45.788   1.776   8.493  0.00  0.00    +0.000 A 
ATOM      4  C   UNL     1      46.601   2.523   7.632  0.00  0.00    +0.000 A 
ATOM      5  C   UNL     1      46.521   3.923   7.683  0.00  0.00    +0.000 A 
ATOM      6  C   UNL     1      45.621   4.562   8.536  0.00  0.00    +0.000 A 
ENDROOT
BRANCH   1   7
ATOM      7  C   UNL     1      43.811   4.501  10.299  0.00  0.00    +0.000 C 
BRANCH   7  10
ATOM      8  C   UNL     1      44.450   6.182  12.000  0.00  0.00    +0.000 C 
ATOM      9  O   UNL     1      44.140   5.465  12.943  0.00  0.00    +0.000 OA
ATOM     10  N   UNL     1      44.317   5.795  10.686  0.00  0.00    +0.000 N 
ATOM     11  H   UNL     1      44.628   6.404   9.948  0.00  0.00    +0.000 HD
BRANCH   8  16
ATOM     12  C   UNL     1      42.465  11.018   9.385  0.00  0.00    +0.000 C 
ATOM     13  C   UNL     1      43.496  10.498  10.340  0.00  0.00    +0.000 A 
ATOM     14  C   UNL     1      43.550   9.140  10.663  0.00  0.00    +0.000 A 
ATOM     15  C   UNL     1      44.549   8.756  11.566  0.00  0.00    +0.000 A 
ATOM     16  C   UNL     1      44.997   7.534  12.185  0.00  0.00    +0.000 A 
ATOM     17  C   UNL     1      46.071   7.890  12.996  0.00  0.00    +0.000 A 
ATOM     18  N   UNL     1      46.275   9.240  12.892  0.00  0.00    +0.000 N 
ATOM     19  C   UNL     1      45.367   9.775  12.032  0.00  0.00    +0.000 A 
ATOM     20  N   UNL     1      45.294  11.074  11.706  0.00  0.00    +0.000 NA
ATOM     21  N   UNL     1      44.350  11.424  10.854  0.00  0.00    +0.000 NA
ATOM     22  H   UNL     1      46.986   9.780  13.367  0.00  0.00    +0.000 HD
ENDBRANCH   8  16
ENDBRANCH   7  10
ENDBRANCH   1   7
BRANCH   4  23
ATOM     23  C   UNL     1      47.626   1.893   6.715  0.00  0.00    +0.000 C 
BRANCH  23  24
ATOM     24  N   UNL     1      47.187   0.626   6.121  0.00  0.00    +0.000 NA
ATOM     25  H   UNL     1      46.224   0.459   6.406  0.00  0.00    +0.000 HD
BRANCH  24  26
ATOM     26  C   UNL     1      47.260   0.621   4.642  0.00  0.00    +0.000 C 
ATOM     27  C   UNL     1      46.568   1.887   4.106  0.00  0.00    +0.000 C 
BRANCH  26  28
ATOM     28  C   UNL     1      46.793  -0.696   4.020  0.00  0.00    +0.000 A 
ATOM     29  C   UNL     1      46.756  -1.899   4.744  0.00  0.00    +0.000 A 
ATOM     30  C   UNL     1      46.423  -3.106   4.124  0.00  0.00    +0.000 A 
ATOM     31  C   UNL     1      46.120  -3.135   2.766  0.00  0.00    +0.000 A 
ATOM     32  C   UNL     1      46.105  -1.950   2.038  0.00  0.00    +0.000 A 
ATOM     33  C   UNL     1      46.416  -0.739   2.663  0.00  0.00    +0.000 A 
ENDBRANCH  26  28
ENDBRANCH  24  26
ENDBRANCH  23  24
ENDBRANCH   4  23
TORSDOF 7
ENDMDL
MODEL 7
REMARK VINA RESULT:    -7.293      2.422      8.991
REMARK INTER + INTRA:         -11.187
REMARK INTER:                  -9.010
REMARK INTRA:                  -2.177
REMARK UNBOUND:                -0.909
REMARK  Name = 
REMARK  9 active torsions:
REMARK  status: ('A' for Active; 'I' for Inactive)
REMARK    1  A    between atoms: C_1  and  C_2
REMARK    2  A    between atoms: C_5  and  C_6
REMARK    3  A    between atoms: N_8  and  C_9
REMARK    4  A    between atoms: C_9  and  C_10
REMARK    5  A    between atoms: C_13  and  C_14
REMARK    6  A    between atoms: C_14  and  N_15
REMARK    7  A    between atoms: N_15  and  C_16
REMARK    8  A    between atoms: C_16  and  C_17
REMARK    9  A    between atoms: C_16  and  C_18
REMARK                            x       y       z     vdW  Elec       q    Type
REMARK                         _______ _______ _______ _____ _____    ______ ____
ROOT
ATOM      1  C   UNL     1      49.822   7.550  15.256  0.00  0.00    +0.000 A 
ATOM      2  C   UNL     1      50.814   6.812  15.919  0.00  0.00    +0.000 A 
ATOM      3  C   UNL     1      50.831   6.726  17.316  0.00  0.00    +0.000 A 
ATOM      4  C   UNL     1      49.859   7.384  18.080  0.00  0.00    +0.000 A 
ATOM      5  C   UNL     1      48.844   8.085  17.411  0.00  0.00    +0.000 A 
ATOM      6  C   UNL     1      48.823   8.168  16.018  0.00  0.00    +0.000 A 
ENDROOT
BRANCH   1   7
ATOM      7  C   UNL     1      49.795   7.623  13.750  0.00  0.00    +0.000 C 
BRANCH   7  10
ATOM      8  C   UNL     1      47.661   6.572  13.065  0.00  0.00    +0.000 C 
ATOM      9  O   UNL     1      48.066   5.433  13.259  0.00  0.00    +0.000 OA
ATOM     10  N   UNL     1      48.436   7.691  13.271  0.00  0.00    +0.000 N 
ATOM     11  H   UNL     1      48.042   8.607  13.139  0.00  0.00    +0.000 HD
BRANCH   8  16
ATOM     12  C   UNL     1      44.227   2.788  10.226  0.00  0.00    +0.000 C 
ATOM     13  C   UNL     1      44.300   4.186  10.762  0.00  0.00    +0.000 A 
ATOM     14  C   UNL     1      45.445   4.639  11.420  0.00  0.00    +0.000 A 
ATOM     15  C   UNL     1      45.413   5.961  11.884  0.00  0.00    +0.000 A 
ATOM     16  C   UNL     1      46.299   6.853  12.588  0.00  0.00    +0.000 A 
ATOM     17  C   UNL     1      45.606   8.052  12.720  0.00  0.00    +0.000 A 
ATOM     18  N   UNL     1      44.371   7.916  12.141  0.00  0.00    +0.000 N 
ATOM     19  C   UNL     1      44.243   6.661  11.631  0.00  0.00    +0.000 A 
ATOM     20  N   UNL     1      43.154   6.201  10.995  0.00  0.00    +0.000 NA
ATOM     21  N   UNL     1      43.196   4.956  10.563  0.00  0.00    +0.000 NA
ATOM     22  H   UNL     1      43.652   8.623  12.085  0.00  0.00    +0.000 HD
ENDBRANCH   8  16
ENDBRANCH   7  10
ENDBRANCH   1   7
BRANCH   4  23
ATOM     23  C   UNL     1      49.802   7.297  19.589  0.00  0.00    +0.000 C 
BRANCH  23  24
ATOM     24  N   UNL     1      48.518   6.809  20.104  0.00  0.00    +0.000 NA
ATOM     25  H   UNL     1      47.790   7.077  19.446  0.00  0.00    +0.000 HD
BRANCH  24  26
ATOM     26  C   UNL     1      48.485   5.340  20.289  0.00  0.00    +0.000 C 
ATOM     27  C   UNL     1      49.677   4.923  21.170  0.00  0.00    +0.000 C 
BRANCH  26  28
ATOM     28  C   UNL     1      48.339   4.572  18.975  0.00  0.00    +0.000 A 
ATOM     29  C   UNL     1      49.285   3.625  18.547  0.00  0.00    +0.000 A 
ATOM     30  C   UNL     1      49.180   3.013  17.295  0.00  0.00    +0.000 A 
ATOM     31  C   UNL     1      48.126   3.334  16.446  0.00  0.00    +0.000 A 
ATOM     32  C   UNL     1      47.151   4.234  16.866  0.00  0.00    +0.000 A 
ATOM     33  C   UNL     1      47.244   4.830  18.127  0.00  0.00    +0.000 A 
ENDBRANCH  26  28
ENDBRANCH  24  26
ENDBRANCH  23  24
ENDBRANCH   4  23
TORSDOF 7
ENDMDL
MODEL 8
REMARK VINA RESULT:    -7.094      3.979      7.176
REMARK INTER + INTRA:         -10.906
REMARK INTER:                 -10.058
REMARK INTRA:                  -0.848
REMARK UNBOUND:                -0.909
REMARK  Name = 
REMARK  9 active torsions:
REMARK  status: ('A' for Active; 'I' for Inactive)
REMARK    1  A    between atoms: C_1  and  C_2
REMARK    2  A    between atoms: C_5  and  C_6
REMARK    3  A    between atoms: N_8  and  C_9
REMARK    4  A    between atoms: C_9  and  C_10
REMARK    5  A    between atoms: C_13  and  C_14
REMARK    6  A    between atoms: C_14  and  N_15
REMARK    7  A    between atoms: N_15  and  C_16
REMARK    8  A    between atoms: C_16  and  C_17
REMARK    9  A    between atoms: C_16  and  C_18
REMARK                            x       y       z     vdW  Elec       q    Type
REMARK                         _______ _______ _______ _____ _____    ______ ____
ROOT
ATOM      1  C   UNL     1      45.551   3.474   8.066  0.00  0.00    +0.000 A 
ATOM      2  C   UNL     1      45.876   2.174   8.480  0.00  0.00    +0.000 A 
ATOM      3  C   UNL     1      46.575   1.306   7.633  0.00  0.00    +0.000 A 
ATOM      4  C   UNL     1      46.958   1.718   6.351  0.00  0.00    +0.000 A 
ATOM      5  C   UNL     1      46.670   3.034   5.957  0.00  0.00    +0.000 A 
ATOM      6  C   UNL     1      45.976   3.902   6.802  0.00  0.00    +0.000 A 
ENDROOT
BRANCH   1   7
ATOM      7  C   UNL     1      44.816   4.414   8.988  0.00  0.00    +0.000 C 
BRANCH   7  10
ATOM      8  C   UNL     1      44.964   5.203  11.329  0.00  0.00    +0.000 C 
ATOM      9  O   UNL     1      43.957   5.893  11.246  0.00  0.00    +0.000 OA
ATOM     10  N   UNL     1      45.455   4.459  10.280  0.00  0.00    +0.000 N 
ATOM     11  H   UNL     1      46.262   3.874  10.413  0.00  0.00    +0.000 HD
BRANCH   8  16
ATOM     12  C   UNL     1      49.882   8.157  12.449  0.00  0.00    +0.000 C 
ATOM     13  C   UNL     1      48.922   7.153  13.011  0.00  0.00    +0.000 A 
ATOM     14  C   UNL     1      47.804   6.747  12.279  0.00  0.00    +0.000 A 
ATOM     15  C   UNL     1      46.968   5.806  12.893  0.00  0.00    +0.000 A 
ATOM     16  C   UNL     1      45.752   5.105  12.567  0.00  0.00    +0.000 A 
ATOM     17  C   UNL     1      45.471   4.298  13.665  0.00  0.00    +0.000 A 
ATOM     18  N   UNL     1      46.444   4.486  14.612  0.00  0.00    +0.000 N 
ATOM     19  C   UNL     1      47.353   5.390  14.159  0.00  0.00    +0.000 A 
ATOM     20  N   UNL     1      48.434   5.797  14.842  0.00  0.00    +0.000 NA
ATOM     21  N   UNL     1      49.215   6.683  14.253  0.00  0.00    +0.000 NA
ATOM     22  H   UNL     1      46.502   4.032  15.513  0.00  0.00    +0.000 HD
ENDBRANCH   8  16
ENDBRANCH   7  10
ENDBRANCH   1   7
BRANCH   4  23
ATOM     23  C   UNL     1      47.749   0.840   5.406  0.00  0.00    +0.000 C 
BRANCH  23  24
ATOM     24  N   UNL     1      46.983  -0.290   4.870  0.00  0.00    +0.000 NA
ATOM     25  H   UNL     1      46.021  -0.201   5.190  0.00  0.00    +0.000 HD
BRANCH  24  26
ATOM     26  C   UNL     1      46.995  -0.351   3.390  0.00  0.00    +0.000 C 
ATOM     27  C   UNL     1      45.858   0.533   2.847  0.00  0.00    +0.000 C 
BRANCH  26  28
ATOM     28  C   UNL     1      47.033  -1.779   2.846  0.00  0.00    +0.000 A 
ATOM     29  C   UNL     1      45.871  -2.551   2.674  0.00  0.00    +0.000 A 
ATOM     30  C   UNL     1      45.944  -3.887   2.273  0.00  0.00    +0.000 A 
ATOM     31  C   UNL     1      47.180  -4.480   2.035  0.00  0.00    +0.000 A 
ATOM     32  C   UNL     1      48.341  -3.724   2.154  0.00  0.00    +0.000 A 
ATOM     33  C   UNL     1      48.268  -2.380   2.533  0.00  0.00    +0.000 A 
ENDBRANCH  26  28
ENDBRANCH  24  26
ENDBRANCH  23  24
ENDBRANCH   4  23
TORSDOF 7
ENDMDL
MODEL 9
REMARK VINA RESULT:    -6.840      5.091      7.267
REMARK INTER + INTRA:         -10.548
REMARK INTER:                  -9.599
REMARK INTRA:                  -0.949
REMARK UNBOUND:                -0.909
REMARK  Name = 
REMARK  9 active torsions:
REMARK  status: ('A' for Active; 'I' for Inactive)
REMARK    1  A    between atoms: C_1  and  C_2
REMARK    2  A    between atoms: C_5  and  C_6
REMARK    3  A    between atoms: N_8  and  C_9
REMARK    4  A    between atoms: C_9  and  C_10
REMARK    5  A    between atoms: C_13  and  C_14
REMARK    6  A    between atoms: C_14  and  N_15
REMARK    7  A    between atoms: N_15  and  C_16
REMARK    8  A    between atoms: C_16  and  C_17
REMARK    9  A    between atoms: C_16  and  C_18
REMARK                            x       y       z     vdW  Elec       q    Type
REMARK                         _______ _______ _______ _____ _____    ______ ____
ROOT
ATOM      1  C   UNL     1      44.897   3.389   9.214  0.00  0.00    +0.000 A 
ATOM      2  C   UNL     1      45.271   2.039   9.142  0.00  0.00    +0.000 A 
ATOM      3  C   UNL     1      46.133   1.587   8.136  0.00  0.00    +0.000 A 
ATOM      4  C   UNL     1      46.632   2.474   7.175  0.00  0.00    +0.000 A 
ATOM      5  C   UNL     1      46.289   3.831   7.276  0.00  0.00    +0.000 A 
ATOM      6  C   UNL     1      45.434   4.285   8.281  0.00  0.00    +0.000 A 
ENDROOT
BRANCH   1   7
ATOM      7  C   UNL     1      43.985   3.878  10.311  0.00  0.00    +0.000 C 
BRANCH   7  10
ATOM      8  C   UNL     1      44.996   5.667  11.692  0.00  0.00    +0.000 C 
ATOM      9  O   UNL     1      45.485   4.882  12.495  0.00  0.00    +0.000 OA
ATOM     10  N   UNL     1      44.248   5.265  10.608  0.00  0.00    +0.000 N 
ATOM     11  H   UNL     1      43.906   5.947   9.953  0.00  0.00    +0.000 HD
BRANCH   8  16
ATOM     12  C   UNL     1      49.992   8.404  13.004  0.00  0.00    +0.000 C 
ATOM     13  C   UNL     1      48.544   8.620  12.685  0.00  0.00    +0.000 A 
ATOM     14  C   UNL     1      47.701   7.538  12.423  0.00  0.00    +0.000 A 
ATOM     15  C   UNL     1      46.365   7.847  12.134  0.00  0.00    +0.000 A 
ATOM     16  C   UNL     1      45.161   7.123  11.812  0.00  0.00    +0.000 A 
ATOM     17  C   UNL     1      44.171   8.085  11.645  0.00  0.00    +0.000 A 
ATOM     18  N   UNL     1      44.720   9.325  11.846  0.00  0.00    +0.000 N 
ATOM     19  C   UNL     1      46.041   9.195  12.144  0.00  0.00    +0.000 A 
ATOM     20  N   UNL     1      46.872  10.218  12.399  0.00  0.00    +0.000 NA
ATOM     21  N   UNL     1      48.127   9.915  12.670  0.00  0.00    +0.000 NA
ATOM     22  H   UNL     1      44.240  10.212  11.792  0.00  0.00    +0.000 HD
ENDBRANCH   8  16
ENDBRANCH   7  10
ENDBRANCH   1   7
BRANCH   4  23
ATOM     23  C   UNL     1      47.595   2.053   6.088  0.00  0.00    +0.000 C 
BRANCH  23  24
ATOM     24  N   UNL     1      47.431   0.660   5.660  0.00  0.00    +0.000 NA
ATOM     25  H   UNL     1      46.608   0.281   6.124  0.00  0.00    +0.000 HD
BRANCH  24  26
ATOM     26  C   UNL     1      47.267   0.517   4.195  0.00  0.00    +0.000 C 
ATOM     27  C   UNL     1      46.266   1.577   3.701  0.00  0.00    +0.000 C 
BRANCH  26  28
ATOM     28  C   UNL     1      46.970  -0.918   3.759  0.00  0.00    +0.000 A 
ATOM     29  C   UNL     1      46.941  -1.305   2.409  0.00  0.00    +0.000 A 
ATOM     30  C   UNL     1      46.566  -2.598   2.035  0.00  0.00    +0.000 A 
ATOM     31  C   UNL     1      46.215  -3.533   3.005  0.00  0.00    +0.000 A 
ATOM     32  C   UNL     1      46.281  -3.188   4.351  0.00  0.00    +0.000 A 
ATOM     33  C   UNL     1      46.677  -1.900   4.726  0.00  0.00    +0.000 A 
ENDBRANCH  26  28
ENDBRANCH  24  26
ENDBRANCH  23  24
ENDBRANCH   4  23
TORSDOF 7
ENDMDL
