MODEL 1
REMARK VINA RESULT:    -7.660      0.000      0.000
REMARK INTER + INTRA:         -12.502
REMARK INTER:                 -11.243
REMARK INTRA:                  -1.259
REMARK UNBOUND:                -1.259
REMARK  Name = 
REMARK  9 active torsions:
REMARK  status: ('A' for Active; 'I' for Inactive)
REMARK    1  A    between atoms: C_1  and  O_2
REMARK    2  A    between atoms: O_2  and  C_3
REMARK    3  A    between atoms: C_7  and  C_8
REMARK    4  A    between atoms: C_8  and  N_9
REMARK    5  A    between atoms: N_9  and  C_10
REMARK    6  A    between atoms: C_10  and  C_11
REMARK    7  A    between atoms: C_14  and  C_15
REMARK    8  A    between atoms: C_15  and  N_16
REMARK    9  A    between atoms: C_17  and  C_19
REMARK                            x       y       z     vdW  Elec       q    Type
REMARK                         _______ _______ _______ _____ _____    ______ ____
ROOT
ATOM      1  C   UNL     1      44.532   4.844  11.944  0.00  0.00    +0.000 A 
ATOM      2  C   UNL     1      45.174   4.269  13.054  0.00  0.00    +0.000 A 
ATOM      3  C   UNL     1      46.351   4.820  13.563  0.00  0.00    +0.000 A 
ATOM      4  C   UNL     1      46.919   5.954  12.970  0.00  0.00    +0.000 A 
ATOM      5  C   UNL     1      46.299   6.510  11.844  0.00  0.00    +0.000 A 
ATOM      6  C   UNL     1      45.114   5.966  11.340  0.00  0.00    +0.000 A 
ENDROOT
BRANCH   1   7
ATOM      7  C   UNL     1      43.251   4.252  11.399  0.00  0.00    +0.000 C 
BRANCH   7   8
ATOM      8  N   UNL     1      43.442   3.757  10.040  0.00  0.00    +0.000 NA
ATOM      9  H   UNL     1      42.541   3.467   9.661  0.00  0.00    +0.000 HD
BRANCH   8  10
ATOM     10  C   UNL     1      44.330   2.593  10.006  0.00  0.00    +0.000 C 
BRANCH  10  15
ATOM     11  C   UNL     1      46.728   1.673   7.360  0.00  0.00    +0.000 A 
ATOM     12  C   UNL     1      47.103   2.874   6.785  0.00  0.00    +0.000 A 
ATOM     13  C   UNL     1      46.568   4.048   7.302  0.00  0.00    +0.000 A 
ATOM     14  C   UNL     1      45.679   3.974   8.370  0.00  0.00    +0.000 A 
ATOM     15  C   UNL     1      45.349   2.722   8.889  0.00  0.00    +0.000 A 
ATOM     16  N   UNL     1      45.866   1.570   8.396  0.00  0.00    +0.000 NA
BRANCH  11  18
ATOM     17  C   UNL     1      47.329   0.577   5.390  0.00  0.00    +0.000 C 
ATOM     18  O   UNL     1      47.276   0.531   6.813  0.00  0.00    +0.000 OA
ENDBRANCH  11  18
ENDBRANCH  10  15
ENDBRANCH   8  10
ENDBRANCH   7   8
ENDBRANCH   1   7
BRANCH   4  19
ATOM     19  C   UNL     1      48.211   6.526  13.489  0.00  0.00    +0.000 C 
BRANCH  19  20
ATOM     20  N   UNL     1      48.218   6.535  14.928  0.00  0.00    +0.000 N 
ATOM     21  C   UNL     1      49.251   7.089  15.636  0.00  0.00    +0.000 C 
ATOM     22  O   UNL     1      50.205   7.630  15.082  0.00  0.00    +0.000 OA
ATOM     23  H   UNL     1      47.568   5.910  15.394  0.00  0.00    +0.000 HD
BRANCH  21  24
ATOM     24  C   UNL     1      49.126   7.067  17.099  0.00  0.00    +0.000 A 
ATOM     25  C   UNL     1      49.084   8.263  17.802  0.00  0.00    +0.000 A 
ATOM     26  S   UNL     1      48.860   8.062  19.480  0.00  0.00    +0.000 S 
ATOM     27  C   UNL     1      48.865   6.367  19.334  0.00  0.00    +0.000 A 
ATOM     28  N   UNL     1      48.727   5.571  20.429  0.00  0.00    +0.000 NA
ATOM     29  C   UNL     1      48.782   4.305  20.177  0.00  0.00    +0.000 A 
ATOM     30  N   UNL     1      48.959   3.764  18.931  0.00  0.00    +0.000 N 
ATOM     31  C   UNL     1      49.079   4.528  17.794  0.00  0.00    +0.000 A 
ATOM     32  O   UNL     1      49.206   4.010  16.689  0.00  0.00    +0.000 OA
ATOM     33  C   UNL     1      49.027   5.960  18.022  0.00  0.00    +0.000 A 
ATOM     34  H   UNL     1      48.994   2.764  18.800  0.00  0.00    +0.000 HD
ENDBRANCH  21  24
ENDBRANCH  19  20
ENDBRANCH   4  19
TORSDOF 8
ENDMDL
MODEL 2
REMARK VINA RESULT:    -7.410      2.571      4.484
REMARK INTER + INTRA:         -12.135
REMARK INTER:                 -11.378
REMARK INTRA:                  -0.757
REMARK UNBOUND:                -1.259
REMARK  Name = 
REMARK  9 active torsions:
REMARK  status: ('A' for Active; 'I' for Inactive)
REMARK    1  A    between atoms: C_1  and  O_2
REMARK    2  A    between atoms: O_2  and  C_3
REMARK    3  A    between atoms: C_7  and  C_8
REMARK    4  A    between atoms: C_8  and  N_9
REMARK    5  A    between atoms: N_9  and  C_10
REMARK    6  A    between atoms: C_10  and  C_11
REMARK    7  A    between atoms: C_14  and  C_15
REMARK    8  A    between atoms: C_15  and  N_16
REMARK    9  A    between atoms: C_17  and  C_19
REMARK                            x       y       z     vdW  Elec       q    Type
REMARK                         _______ _______ _______ _____ _____    ______ ____
ROOT
ATOM      1  C   UNL     1      45.836   3.456   8.020  0.00  0.00    +0.000 A 
ATOM      2  C   UNL     1      45.315   2.423   8.817  0.00  0.00    +0.000 A 
ATOM      3  C   UNL     1      44.819   2.686  10.095  0.00  0.00    +0.000 A 
ATOM      4  C   UNL     1      44.839   3.988  10.609  0.00  0.00    +0.000 A 
ATOM      5  C   UNL     1      45.387   5.015   9.830  0.00  0.00    +0.000 A 
ATOM      6  C   UNL     1      45.873   4.754   8.545  0.00  0.00    +0.000 A 
ENDROOT
BRANCH   1   7
ATOM      7  C   UNL     1      46.363   3.171   6.631  0.00  0.00    +0.000 C 
BRANCH   7   8
ATOM      8  N   UNL     1      46.713   1.761   6.486  0.00  0.00    +0.000 NA
ATOM      9  H   UNL     1      47.167   1.440   7.341  0.00  0.00    +0.000 HD
BRANCH   8  10
ATOM     10  C   UNL     1      47.651   1.546   5.382  0.00  0.00    +0.000 C 
BRANCH  10  15
ATOM     11  C   UNL     1      46.601  -1.317   3.310  0.00  0.00    +0.000 A 
ATOM     12  C   UNL     1      45.759  -0.777   2.354  0.00  0.00    +0.000 A 
ATOM     13  C   UNL     1      45.542   0.596   2.368  0.00  0.00    +0.000 A 
ATOM     14  C   UNL     1      46.172   1.372   3.337  0.00  0.00    +0.000 A 
ATOM     15  C   UNL     1      47.002   0.747   4.268  0.00  0.00    +0.000 A 
ATOM     16  N   UNL     1      47.224  -0.590   4.263  0.00  0.00    +0.000 NA
BRANCH  11  18
ATOM     17  C   UNL     1      46.556  -3.307   4.528  0.00  0.00    +0.000 C 
ATOM     18  O   UNL     1      46.784  -2.684   3.267  0.00  0.00    +0.000 OA
ENDBRANCH  11  18
ENDBRANCH  10  15
ENDBRANCH   8  10
ENDBRANCH   7   8
ENDBRANCH   1   7
BRANCH   4  19
ATOM     19  C   UNL     1      44.345   4.271  12.002  0.00  0.00    +0.000 C 
BRANCH  19  20
ATOM     20  N   UNL     1      45.330   5.013  12.746  0.00  0.00    +0.000 N 
ATOM     21  C   UNL     1      46.328   4.384  13.441  0.00  0.00    +0.000 C 
ATOM     22  O   UNL     1      46.451   3.161  13.440  0.00  0.00    +0.000 OA
ATOM     23  H   UNL     1      45.119   5.987  12.941  0.00  0.00    +0.000 HD
BRANCH  21  24
ATOM     24  C   UNL     1      47.290   5.252  14.132  0.00  0.00    +0.000 A 
ATOM     25  C   UNL     1      47.943   6.251  13.423  0.00  0.00    +0.000 A 
ATOM     26  S   UNL     1      48.967   7.214  14.388  0.00  0.00    +0.000 S 
ATOM     27  C   UNL     1      48.616   6.296  15.776  0.00  0.00    +0.000 A 
ATOM     28  N   UNL     1      49.191   6.591  16.973  0.00  0.00    +0.000 NA
ATOM     29  C   UNL     1      48.862   5.793  17.934  0.00  0.00    +0.000 A 
ATOM     30  N   UNL     1      48.007   4.729  17.806  0.00  0.00    +0.000 N 
ATOM     31  C   UNL     1      47.384   4.408  16.623  0.00  0.00    +0.000 A 
ATOM     32  O   UNL     1      46.600   3.468  16.551  0.00  0.00    +0.000 OA
ATOM     33  C   UNL     1      47.723   5.273  15.509  0.00  0.00    +0.000 A 
ATOM     34  H   UNL     1      47.789   4.141  18.597  0.00  0.00    +0.000 HD
ENDBRANCH  21  24
ENDBRANCH  19  20
ENDBRANCH   4  19
TORSDOF 8
ENDMDL
MODEL 3
REMARK VINA RESULT:    -7.260      4.138      7.070
REMARK INTER + INTRA:         -11.914
REMARK INTER:                 -10.982
REMARK INTRA:                  -0.933
REMARK UNBOUND:                -1.259
REMARK  Name = 
REMARK  9 active torsions:
REMARK  status: ('A' for Active; 'I' for Inactive)
REMARK    1  A    between atoms: C_1  and  O_2
REMARK    2  A    between atoms: O_2  and  C_3
REMARK    3  A    between atoms: C_7  and  C_8
REMARK    4  A    between atoms: C_8  and  N_9
REMARK    5  A    between atoms: N_9  and  C_10
REMARK    6  A    between atoms: C_10  and  C_11
REMARK    7  A    between atoms: C_14  and  C_15
REMARK    8  A    between atoms: C_15  and  N_16
REMARK    9  A    between atoms: C_17  and  C_19
REMARK                            x       y       z     vdW  Elec       q    Type
REMARK                         _______ _______ _______ _____ _____    ______ ____
ROOT
ATOM      1  C   UNL     1      46.838   2.147   6.269  0.00  0.00    +0.000 A 
ATOM      2  C   UNL     1      46.768   1.149   7.254  0.00  0.00    +0.000 A 
ATOM      3  C   UNL     1      46.034   1.348   8.425  0.00  0.00    +0.000 A 
ATOM      4  C   UNL     1      45.359   2.555   8.641  0.00  0.00    +0.000 A 
ATOM      5  C   UNL     1      45.454   3.566   7.676  0.00  0.00    +0.000 A 
ATOM      6  C   UNL     1      46.179   3.362   6.499  0.00  0.00    +0.000 A 
ENDROOT
BRANCH   1   7
ATOM      7  C   UNL     1      47.625   1.926   4.996  0.00  0.00    +0.000 C 
BRANCH   7   8
ATOM      8  N   UNL     1      47.803   0.501   4.735  0.00  0.00    +0.000 NA
ATOM      9  H   UNL     1      48.736   0.346   4.354  0.00  0.00    +0.000 HD
BRANCH   8  10
ATOM     10  C   UNL     1      46.837   0.004   3.753  0.00  0.00    +0.000 C 
BRANCH  10  15
ATOM     11  C   UNL     1      46.722  -3.661   4.133  0.00  0.00    +0.000 A 
ATOM     12  C   UNL     1      47.308  -4.158   2.982  0.00  0.00    +0.000 A 
ATOM     13  C   UNL     1      47.790  -3.252   2.045  0.00  0.00    +0.000 A 
ATOM     14  C   UNL     1      47.665  -1.889   2.293  0.00  0.00    +0.000 A 
ATOM     15  C   UNL     1      47.056  -1.471   3.477  0.00  0.00    +0.000 A 
ATOM     16  N   UNL     1      46.585  -2.344   4.400  0.00  0.00    +0.000 NA
BRANCH  11  18
ATOM     17  C   UNL     1      45.914  -5.832   4.416  0.00  0.00    +0.000 C 
ATOM     18  O   UNL     1      46.250  -4.593   5.035  0.00  0.00    +0.000 OA
ENDBRANCH  11  18
ENDBRANCH  10  15
ENDBRANCH   8  10
ENDBRANCH   7   8
ENDBRANCH   1   7
BRANCH   4  19
ATOM     19  C   UNL     1      44.603   2.793   9.921  0.00  0.00    +0.000 C 
BRANCH  19  20
ATOM     20  N   UNL     1      45.160   3.910  10.638  0.00  0.00    +0.000 N 
ATOM     21  C   UNL     1      45.357   3.867  11.992  0.00  0.00    +0.000 C 
ATOM     22  O   UNL     1      45.098   2.866  12.656  0.00  0.00    +0.000 OA
ATOM     23  H   UNL     1      45.170   4.804  10.157  0.00  0.00    +0.000 HD
BRANCH  21  24
ATOM     24  C   UNL     1      45.964   5.056  12.602  0.00  0.00    +0.000 A 
ATOM     25  C   UNL     1      47.061   4.913  13.440  0.00  0.00    +0.000 A 
ATOM     26  S   UNL     1      47.690   6.395  14.003  0.00  0.00    +0.000 S 
ATOM     27  C   UNL     1      46.485   7.278  13.189  0.00  0.00    +0.000 A 
ATOM     28  N   UNL     1      46.439   8.635  13.269  0.00  0.00    +0.000 NA
ATOM     29  C   UNL     1      45.454   9.174  12.630  0.00  0.00    +0.000 A 
ATOM     30  N   UNL     1      44.512   8.479  11.917  0.00  0.00    +0.000 N 
ATOM     31  C   UNL     1      44.533   7.110  11.789  0.00  0.00    +0.000 A 
ATOM     32  O   UNL     1      43.692   6.521  11.117  0.00  0.00    +0.000 OA
ATOM     33  C   UNL     1      45.620   6.455  12.491  0.00  0.00    +0.000 A 
ATOM     34  H   UNL     1      43.765   8.959  11.439  0.00  0.00    +0.000 HD
ENDBRANCH  21  24
ENDBRANCH  19  20
ENDBRANCH   4  19
TORSDOF 8
ENDMDL
MODEL 4
REMARK VINA RESULT:    -7.034      3.095      8.837
REMARK INTER + INTRA:         -11.583
REMARK INTER:                 -10.021
REMARK INTRA:                  -1.562
REMARK UNBOUND:                -1.259
REMARK  Name = 
REMARK  9 active torsions:
REMARK  status: ('A' for Active; 'I' for Inactive)
REMARK    1  A    between atoms: C_1  and  O_2
REMARK    2  A    between atoms: O_2  and  C_3
REMARK    3  A    between atoms: C_7  and  C_8
REMARK    4  A    between atoms: C_8  and  N_9
REMARK    5  A    between atoms: N_9  and  C_10
REMARK    6  A    between atoms: C_10  and  C_11
REMARK    7  A    between atoms: C_14  and  C_15
REMARK    8  A    between atoms: C_15  and  N_16
REMARK    9  A    between atoms: C_17  and  C_19
REMARK                            x       y       z     vdW  Elec       q    Type
REMARK                         _______ _______ _______ _____ _____    ______ ____
ROOT
ATOM      1  C   UNL     1      49.951   8.065  15.484  0.00  0.00    +0.000 A 
ATOM      2  C   UNL     1      50.614   7.753  14.286  0.00  0.00    +0.000 A 
ATOM      3  C   UNL     1      49.924   7.729  13.072  0.00  0.00    +0.000 A 
ATOM      4  C   UNL     1      48.554   8.010  13.029  0.00  0.00    +0.000 A 
ATOM      5  C   UNL     1      47.883   8.290  14.227  0.00  0.00    +0.000 A 
ATOM      6  C   UNL     1      48.575   8.325  15.440  0.00  0.00    +0.000 A 
ENDROOT
BRANCH   1   7
ATOM      7  C   UNL     1      50.701   8.101  16.797  0.00  0.00    +0.000 C 
BRANCH   7   8
ATOM      8  N   UNL     1      51.192   6.774  17.153  0.00  0.00    +0.000 NA
ATOM      9  H   UNL     1      51.174   6.178  16.325  0.00  0.00    +0.000 HD
BRANCH   8  10
ATOM     10  C   UNL     1      50.351   6.139  18.170  0.00  0.00    +0.000 C 
BRANCH  10  15
ATOM     11  C   UNL     1      49.561   2.780  16.871  0.00  0.00    +0.000 A 
ATOM     12  C   UNL     1      48.198   2.801  16.632  0.00  0.00    +0.000 A 
ATOM     13  C   UNL     1      47.504   3.979  16.882  0.00  0.00    +0.000 A 
ATOM     14  C   UNL     1      48.198   5.086  17.362  0.00  0.00    +0.000 A 
ATOM     15  C   UNL     1      49.571   4.979  17.581  0.00  0.00    +0.000 A 
ATOM     16  N   UNL     1      50.260   3.838  17.339  0.00  0.00    +0.000 NA
BRANCH  11  18
ATOM     17  C   UNL     1      51.480   1.512  17.263  0.00  0.00    +0.000 C 
ATOM     18  O   UNL     1      50.212   1.591  16.617  0.00  0.00    +0.000 OA
ENDBRANCH  11  18
ENDBRANCH  10  15
ENDBRANCH   8  10
ENDBRANCH   7   8
ENDBRANCH   1   7
BRANCH   4  19
ATOM     19  C   UNL     1      47.796   7.943  11.730  0.00  0.00    +0.000 C 
BRANCH  19  20
ATOM     20  N   UNL     1      47.063   6.708  11.635  0.00  0.00    +0.000 N 
ATOM     21  C   UNL     1      45.694   6.683  11.649  0.00  0.00    +0.000 C 
ATOM     22  O   UNL     1      45.025   7.712  11.712  0.00  0.00    +0.000 OA
ATOM     23  H   UNL     1      47.582   5.852  11.806  0.00  0.00    +0.000 HD
BRANCH  21  24
ATOM     24  C   UNL     1      45.063   5.365  11.511  0.00  0.00    +0.000 A 
ATOM     25  C   UNL     1      44.365   4.823  12.581  0.00  0.00    +0.000 A 
ATOM     26  S   UNL     1      43.632   3.324  12.231  0.00  0.00    +0.000 S 
ATOM     27  C   UNL     1      44.267   3.320  10.652  0.00  0.00    +0.000 A 
ATOM     28  N   UNL     1      44.022   2.285   9.803  0.00  0.00    +0.000 NA
ATOM     29  C   UNL     1      44.593   2.396   8.650  0.00  0.00    +0.000 A 
ATOM     30  N   UNL     1      45.382   3.449   8.267  0.00  0.00    +0.000 N 
ATOM     31  C   UNL     1      45.637   4.527   9.083  0.00  0.00    +0.000 A 
ATOM     32  O   UNL     1      46.323   5.468   8.697  0.00  0.00    +0.000 OA
ATOM     33  C   UNL     1      45.021   4.450  10.393  0.00  0.00    +0.000 A 
ATOM     34  H   UNL     1      45.801   3.477   7.350  0.00  0.00    +0.000 HD
ENDBRANCH  21  24
ENDBRANCH  19  20
ENDBRANCH   4  19
TORSDOF 8
ENDMDL
MODEL 5
REMARK VINA RESULT:    -6.959      1.552      2.352
REMARK INTER + INTRA:         -11.472
REMARK INTER:                 -10.405
REMARK INTRA:                  -1.067
REMARK UNBOUND:                -1.259
REMARK  Name = 
REMARK  9 active torsions:
REMARK  status: ('A' for Active; 'I' for Inactive)
REMARK    1  A    between atoms: C_1  and  O_2
REMARK    2  A    between atoms: O_2  and  C_3
REMARK    3  A    between atoms: C_7  and  C_8
REMARK    4  A    between atoms: C_8  and  N_9
REMARK    5  A    between atoms: N_9  and  C_10
REMARK    6  A    between atoms: C_10  and  C_11
REMARK    7  A    between atoms: C_14  and  C_15
REMARK    8  A    between atoms: C_15  and  N_16
REMARK    9  A    between atoms: C_17  and  C_19
REMARK                            x       y       z     vdW  Elec       q    Type
REMARK                         _______ _______ _______ _____ _____    ______ ____
ROOT
ATOM      1  C   UNL     1      45.000   5.169  11.809  0.00  0.00    +0.000 A 
ATOM      2  C   UNL     1      45.348   6.517  11.627  0.00  0.00    +0.000 A 
ATOM      3  C   UNL     1      46.401   7.088  12.345  0.00  0.00    +0.000 A 
ATOM      4  C   UNL     1      47.127   6.324  13.267  0.00  0.00    +0.000 A 
ATOM      5  C   UNL     1      46.761   4.988  13.474  0.00  0.00    +0.000 A 
ATOM      6  C   UNL     1      45.715   4.413  12.748  0.00  0.00    +0.000 A 
ENDROOT
BRANCH   1   7
ATOM      7  C   UNL     1      43.866   4.550  11.023  0.00  0.00    +0.000 C 
BRANCH   7   8
ATOM      8  N   UNL     1      44.352   3.473  10.166  0.00  0.00    +0.000 NA
ATOM      9  H   UNL     1      45.267   3.169  10.499  0.00  0.00    +0.000 HD
BRANCH   8  10
ATOM     10  C   UNL     1      44.512   3.913   8.779  0.00  0.00    +0.000 C 
BRANCH  10  15
ATOM     11  C   UNL     1      46.726   1.139   7.780  0.00  0.00    +0.000 A 
ATOM     12  C   UNL     1      47.548   1.672   6.802  0.00  0.00    +0.000 A 
ATOM     13  C   UNL     1      47.390   3.012   6.469  0.00  0.00    +0.000 A 
ATOM     14  C   UNL     1      46.418   3.764   7.123  0.00  0.00    +0.000 A 
ATOM     15  C   UNL     1      45.628   3.148   8.094  0.00  0.00    +0.000 A 
ATOM     16  N   UNL     1      45.773   1.844   8.430  0.00  0.00    +0.000 NA
BRANCH  11  18
ATOM     17  C   UNL     1      46.540  -1.052   6.999  0.00  0.00    +0.000 C 
ATOM     18  O   UNL     1      46.909  -0.196   8.077  0.00  0.00    +0.000 OA
ENDBRANCH  11  18
ENDBRANCH  10  15
ENDBRANCH   8  10
ENDBRANCH   7   8
ENDBRANCH   1   7
BRANCH   4  19
ATOM     19  C   UNL     1      48.235   6.945  14.075  0.00  0.00    +0.000 C 
BRANCH  19  20
ATOM     20  N   UNL     1      48.058   6.663  15.475  0.00  0.00    +0.000 N 
ATOM     21  C   UNL     1      49.111   6.304  16.273  0.00  0.00    +0.000 C 
ATOM     22  O   UNL     1      50.259   6.234  15.843  0.00  0.00    +0.000 OA
ATOM     23  H   UNL     1      47.108   6.499  15.794  0.00  0.00    +0.000 HD
BRANCH  21  24
ATOM     24  C   UNL     1      48.807   6.077  17.692  0.00  0.00    +0.000 A 
ATOM     25  C   UNL     1      49.039   4.828  18.252  0.00  0.00    +0.000 A 
ATOM     26  S   UNL     1      48.705   4.755  19.922  0.00  0.00    +0.000 S 
ATOM     27  C   UNL     1      48.188   6.376  19.946  0.00  0.00    +0.000 A 
ATOM     28  N   UNL     1      47.746   6.951  21.096  0.00  0.00    +0.000 NA
ATOM     29  C   UNL     1      47.352   8.175  20.963  0.00  0.00    +0.000 A 
ATOM     30  N   UNL     1      47.365   8.875  19.785  0.00  0.00    +0.000 N 
ATOM     31  C   UNL     1      47.825   8.342  18.604  0.00  0.00    +0.000 A 
ATOM     32  O   UNL     1      47.851   9.007  17.573  0.00  0.00    +0.000 OA
ATOM     33  C   UNL     1      48.276   6.967  18.698  0.00  0.00    +0.000 A 
ATOM     34  H   UNL     1      47.043   9.830  19.747  0.00  0.00    +0.000 HD
ENDBRANCH  21  24
ENDBRANCH  19  20
ENDBRANCH   4  19
TORSDOF 8
ENDMDL
MODEL 6
REMARK VINA RESULT:    -6.867      4.793      9.853
REMARK INTER + INTRA:         -11.337
REMARK INTER:                 -10.396
REMARK INTRA:                  -0.941
REMARK UNBOUND:                -1.259
REMARK  Name = 
REMARK  9 active torsions:
REMARK  status: ('A' for Active; 'I' for Inactive)
REMARK    1  A    between atoms: C_1  and  O_2
REMARK    2  A    between atoms: O_2  and  C_3
REMARK    3  A    between atoms: C_7  and  C_8
REMARK    4  A    between atoms: C_8  and  N_9
REMARK    5  A    between atoms: N_9  and  C_10
REMARK    6  A    between atoms: C_10  and  C_11
REMARK    7  A    between atoms: C_14  and  C_15
REMARK    8  A    between atoms: C_15  and  N_16
REMARK    9  A    between atoms: C_17  and  C_19
REMARK                            x       y       z     vdW  Elec       q    Type
REMARK                         _______ _______ _______ _____ _____    ______ ____
ROOT
ATOM      1  C   UNL     1      51.361   3.541  17.871  0.00  0.00    +0.000 A 
ATOM      2  C   UNL     1      50.541   4.675  17.990  0.00  0.00    +0.000 A 
ATOM      3  C   UNL     1      49.180   4.610  17.684  0.00  0.00    +0.000 A 
ATOM      4  C   UNL     1      48.609   3.411  17.244  0.00  0.00    +0.000 A 
ATOM      5  C   UNL     1      49.430   2.286  17.092  0.00  0.00    +0.000 A 
ATOM      6  C   UNL     1      50.790   2.347  17.409  0.00  0.00    +0.000 A 
ENDROOT
BRANCH   1   7
ATOM      7  C   UNL     1      52.832   3.609  18.213  0.00  0.00    +0.000 C 
BRANCH   7   8
ATOM      8  N   UNL     1      53.167   2.659  19.268  0.00  0.00    +0.000 NA
ATOM      9  H   UNL     1      53.037   3.107  20.175  0.00  0.00    +0.000 HD
BRANCH   8  10
ATOM     10  C   UNL     1      54.564   2.226  19.187  0.00  0.00    +0.000 C 
BRANCH  10  15
ATOM     11  C   UNL     1      54.551  -1.304  18.124  0.00  0.00    +0.000 A 
ATOM     12  C   UNL     1      54.806  -1.269  16.764  0.00  0.00    +0.000 A 
ATOM     13  C   UNL     1      55.018  -0.033  16.166  0.00  0.00    +0.000 A 
ATOM     14  C   UNL     1      54.966   1.117  16.949  0.00  0.00    +0.000 A 
ATOM     15  C   UNL     1      54.699   0.994  18.312  0.00  0.00    +0.000 A 
ATOM     16  N   UNL     1      54.493  -0.206  18.909  0.00  0.00    +0.000 NA
BRANCH  11  18
ATOM     17  C   UNL     1      53.198  -2.581  19.533  0.00  0.00    +0.000 C 
ATOM     18  O   UNL     1      54.339  -2.550  18.679  0.00  0.00    +0.000 OA
ENDBRANCH  11  18
ENDBRANCH  10  15
ENDBRANCH   8  10
ENDBRANCH   7   8
ENDBRANCH   1   7
BRANCH   4  19
ATOM     19  C   UNL     1      47.152   3.346  16.871  0.00  0.00    +0.000 C 
BRANCH  19  20
ATOM     20  N   UNL     1      46.829   4.373  15.915  0.00  0.00    +0.000 N 
ATOM     21  C   UNL     1      46.941   4.160  14.567  0.00  0.00    +0.000 C 
ATOM     22  O   UNL     1      47.292   3.076  14.107  0.00  0.00    +0.000 OA
ATOM     23  H   UNL     1      46.756   5.322  16.269  0.00  0.00    +0.000 HD
BRANCH  21  24
ATOM     24  C   UNL     1      46.549   5.274  13.695  0.00  0.00    +0.000 A 
ATOM     25  C   UNL     1      47.429   6.327  13.489  0.00  0.00    +0.000 A 
ATOM     26  S   UNL     1      46.851   7.497  12.393  0.00  0.00    +0.000 S 
ATOM     27  C   UNL     1      45.379   6.666  12.196  0.00  0.00    +0.000 A 
ATOM     28  N   UNL     1      44.406   7.151  11.379  0.00  0.00    +0.000 NA
ATOM     29  C   UNL     1      43.330   6.438  11.349  0.00  0.00    +0.000 A 
ATOM     30  N   UNL     1      43.140   5.281  12.060  0.00  0.00    +0.000 N 
ATOM     31  C   UNL     1      44.104   4.741  12.878  0.00  0.00    +0.000 A 
ATOM     32  O   UNL     1      43.913   3.686  13.476  0.00  0.00    +0.000 OA
ATOM     33  C   UNL     1      45.334   5.507  12.950  0.00  0.00    +0.000 A 
ATOM     34  H   UNL     1      42.274   4.768  11.994  0.00  0.00    +0.000 HD
ENDBRANCH  21  24
ENDBRANCH  19  20
ENDBRANCH   4  19
TORSDOF 8
ENDMDL
MODEL 7
REMARK VINA RESULT:    -6.511      4.463      6.313
REMARK INTER + INTRA:         -10.816
REMARK INTER:                  -9.808
REMARK INTRA:                  -1.007
REMARK UNBOUND:                -1.259
REMARK  Name = 
REMARK  9 active torsions:
REMARK  status: ('A' for Active; 'I' for Inactive)
REMARK    1  A    between atoms: C_1  and  O_2
REMARK    2  A    between atoms: O_2  and  C_3
REMARK    3  A    between atoms: C_7  and  C_8
REMARK    4  A    between atoms: C_8  and  N_9
REMARK    5  A    between atoms: N_9  and  C_10
REMARK    6  A    between atoms: C_10  and  C_11
REMARK    7  A    between atoms: C_14  and  C_15
REMARK    8  A    between atoms: C_15  and  N_16
REMARK    9  A    between atoms: C_17  and  C_19
REMARK                            x       y       z     vdW  Elec       q    Type
REMARK                         _______ _______ _______ _____ _____    ______ ____
ROOT
ATOM      1  C   UNL     1      45.786   5.316  12.241  0.00  0.00    +0.000 A 
ATOM      2  C   UNL     1      46.314   6.306  11.396  0.00  0.00    +0.000 A 
ATOM      3  C   UNL     1      47.463   7.014  11.754  0.00  0.00    +0.000 A 
ATOM      4  C   UNL     1      48.106   6.754  12.970  0.00  0.00    +0.000 A 
ATOM      5  C   UNL     1      47.564   5.791  13.830  0.00  0.00    +0.000 A 
ATOM      6  C   UNL     1      46.421   5.073  13.467  0.00  0.00    +0.000 A 
ENDROOT
BRANCH   1   7
ATOM      7  C   UNL     1      44.548   4.541  11.848  0.00  0.00    +0.000 C 
BRANCH   7   8
ATOM      8  N   UNL     1      44.873   3.146  11.568  0.00  0.00    +0.000 NA
ATOM      9  H   UNL     1      45.883   3.053  11.466  0.00  0.00    +0.000 HD
BRANCH   8  10
ATOM     10  C   UNL     1      44.260   2.686  10.321  0.00  0.00    +0.000 C 
BRANCH  10  15
ATOM     11  C   UNL     1      46.605   1.791   7.620  0.00  0.00    +0.000 A 
ATOM     12  C   UNL     1      46.886   2.986   6.980  0.00  0.00    +0.000 A 
ATOM     13  C   UNL     1      46.301   4.148   7.470  0.00  0.00    +0.000 A 
ATOM     14  C   UNL     1      45.460   4.069   8.576  0.00  0.00    +0.000 A 
ATOM     15  C   UNL     1      45.225   2.824   9.159  0.00  0.00    +0.000 A 
ATOM     16  N   UNL     1      45.791   1.684   8.693  0.00  0.00    +0.000 NA
BRANCH  11  18
ATOM     17  C   UNL     1      47.299   0.700   5.678  0.00  0.00    +0.000 C 
ATOM     18  O   UNL     1      47.199   0.660   7.099  0.00  0.00    +0.000 OA
ENDBRANCH  11  18
ENDBRANCH  10  15
ENDBRANCH   8  10
ENDBRANCH   7   8
ENDBRANCH   1   7
BRANCH   4  19
ATOM     19  C   UNL     1      49.319   7.545  13.380  0.00  0.00    +0.000 C 
BRANCH  19  20
ATOM     20  N   UNL     1      49.870   8.248  12.251  0.00  0.00    +0.000 N 
ATOM     21  C   UNL     1      51.203   8.555  12.179  0.00  0.00    +0.000 C 
ATOM     22  O   UNL     1      51.997   8.221  13.055  0.00  0.00    +0.000 OA
ATOM     23  H   UNL     1      49.212   8.720  11.639  0.00  0.00    +0.000 HD
BRANCH  21  24
ATOM     24  C   UNL     1      51.649   9.243  10.960  0.00  0.00    +0.000 A 
ATOM     25  C   UNL     1      51.372  10.593  10.795  0.00  0.00    +0.000 A 
ATOM     26  S   UNL     1      52.024  11.254   9.365  0.00  0.00    +0.000 S 
ATOM     27  C   UNL     1      52.653   9.746   8.889  0.00  0.00    +0.000 A 
ATOM     28  N   UNL     1      53.332   9.611   7.718  0.00  0.00    +0.000 NA
ATOM     29  C   UNL     1      53.724   8.406   7.466  0.00  0.00    +0.000 A 
ATOM     30  N   UNL     1      53.502   7.326   8.280  0.00  0.00    +0.000 N 
ATOM     31  C   UNL     1      52.842   7.420   9.483  0.00  0.00    +0.000 A 
ATOM     32  O   UNL     1      52.687   6.439  10.203  0.00  0.00    +0.000 OA
ATOM     33  C   UNL     1      52.377   8.754   9.813  0.00  0.00    +0.000 A 
ATOM     34  H   UNL     1      53.835   6.408   8.026  0.00  0.00    +0.000 HD
ENDBRANCH  21  24
ENDBRANCH  19  20
ENDBRANCH   4  19
TORSDOF 8
ENDMDL
MODEL 8
REMARK VINA RESULT:    -6.490      4.039      9.067
REMARK INTER + INTRA:         -10.785
REMARK INTER:                  -9.447
REMARK INTRA:                  -1.337
REMARK UNBOUND:                -1.259
REMARK  Name = 
REMARK  9 active torsions:
REMARK  status: ('A' for Active; 'I' for Inactive)
REMARK    1  A    between atoms: C_1  and  O_2
REMARK    2  A    between atoms: O_2  and  C_3
REMARK    3  A    between atoms: C_7  and  C_8
REMARK    4  A    between atoms: C_8  and  N_9
REMARK    5  A    between atoms: N_9  and  C_10
REMARK    6  A    between atoms: C_10  and  C_11
REMARK    7  A    between atoms: C_14  and  C_15
REMARK    8  A    between atoms: C_15  and  N_16
REMARK    9  A    between atoms: C_17  and  C_19
REMARK                            x       y       z     vdW  Elec       q    Type
REMARK                         _______ _______ _______ _____ _____    ______ ____
ROOT
ATOM      1  C   UNL     1      51.265   3.560  18.056  0.00  0.00    +0.000 A 
ATOM      2  C   UNL     1      50.379   4.599  18.386  0.00  0.00    +0.000 A 
ATOM      3  C   UNL     1      49.025   4.516  18.056  0.00  0.00    +0.000 A 
ATOM      4  C   UNL     1      48.527   3.395  17.381  0.00  0.00    +0.000 A 
ATOM      5  C   UNL     1      49.414   2.373  17.021  0.00  0.00    +0.000 A 
ATOM      6  C   UNL     1      50.767   2.450  17.362  0.00  0.00    +0.000 A 
ENDROOT
BRANCH   1   7
ATOM      7  C   UNL     1      52.730   3.647  18.423  0.00  0.00    +0.000 C 
BRANCH   7   8
ATOM      8  N   UNL     1      53.221   5.015  18.290  0.00  0.00    +0.000 NA
ATOM      9  H   UNL     1      52.431   5.638  18.123  0.00  0.00    +0.000 HD
BRANCH   8  10
ATOM     10  C   UNL     1      54.139   5.156  17.159  0.00  0.00    +0.000 C 
BRANCH  10  15
ATOM     11  C   UNL     1      51.894   7.543  15.469  0.00  0.00    +0.000 A 
ATOM     12  C   UNL     1      52.681   8.154  14.507  0.00  0.00    +0.000 A 
ATOM     13  C   UNL     1      54.005   7.749  14.386  0.00  0.00    +0.000 A 
ATOM     14  C   UNL     1      54.489   6.753  15.229  0.00  0.00    +0.000 A 
ATOM     15  C   UNL     1      53.631   6.192  16.174  0.00  0.00    +0.000 A 
ATOM     16  N   UNL     1      52.338   6.576  16.302  0.00  0.00    +0.000 NA
BRANCH  11  18
ATOM     17  C   UNL     1      50.186   8.212  16.910  0.00  0.00    +0.000 C 
ATOM     18  O   UNL     1      50.588   7.978  15.563  0.00  0.00    +0.000 OA
ENDBRANCH  11  18
ENDBRANCH  10  15
ENDBRANCH   8  10
ENDBRANCH   7   8
ENDBRANCH   1   7
BRANCH   4  19
ATOM     19  C   UNL     1      47.077   3.320  16.985  0.00  0.00    +0.000 C 
BRANCH  19  20
ATOM     20  N   UNL     1      46.764   4.337  16.016  0.00  0.00    +0.000 N 
ATOM     21  C   UNL     1      46.954   4.133  14.675  0.00  0.00    +0.000 C 
ATOM     22  O   UNL     1      47.370   3.065  14.231  0.00  0.00    +0.000 OA
ATOM     23  H   UNL     1      46.637   5.281  16.366  0.00  0.00    +0.000 HD
BRANCH  21  24
ATOM     24  C   UNL     1      46.565   5.234  13.785  0.00  0.00    +0.000 A 
ATOM     25  C   UNL     1      47.437   6.295  13.585  0.00  0.00    +0.000 A 
ATOM     26  S   UNL     1      46.865   7.449  12.467  0.00  0.00    +0.000 S 
ATOM     27  C   UNL     1      45.407   6.598  12.252  0.00  0.00    +0.000 A 
ATOM     28  N   UNL     1      44.443   7.065  11.413  0.00  0.00    +0.000 NA
ATOM     29  C   UNL     1      43.376   6.338  11.370  0.00  0.00    +0.000 A 
ATOM     30  N   UNL     1      43.187   5.186  12.088  0.00  0.00    +0.000 N 
ATOM     31  C   UNL     1      44.141   4.665  12.929  0.00  0.00    +0.000 A 
ATOM     32  O   UNL     1      43.952   3.614  13.534  0.00  0.00    +0.000 OA
ATOM     33  C   UNL     1      45.361   5.446  13.016  0.00  0.00    +0.000 A 
ATOM     34  H   UNL     1      42.328   4.663  12.011  0.00  0.00    +0.000 HD
ENDBRANCH  21  24
ENDBRANCH  19  20
ENDBRANCH   4  19
TORSDOF 8
ENDMDL
MODEL 9
REMARK VINA RESULT:    -5.951      3.877      8.940
REMARK INTER + INTRA:          -9.994
REMARK INTER:                  -8.503
REMARK INTRA:                  -1.491
REMARK UNBOUND:                -1.259
REMARK  Name = 
REMARK  9 active torsions:
REMARK  status: ('A' for Active; 'I' for Inactive)
REMARK    1  A    between atoms: C_1  and  O_2
REMARK    2  A    between atoms: O_2  and  C_3
REMARK    3  A    between atoms: C_7  and  C_8
REMARK    4  A    between atoms: C_8  and  N_9
REMARK    5  A    between atoms: N_9  and  C_10
REMARK    6  A    between atoms: C_10  and  C_11
REMARK    7  A    between atoms: C_14  and  C_15
REMARK    8  A    between atoms: C_15  and  N_16
REMARK    9  A    between atoms: C_17  and  C_19
REMARK                            x       y       z     vdW  Elec       q    Type
REMARK                         _______ _______ _______ _____ _____    ______ ____
ROOT
ATOM      1  C   UNL     1      50.055   8.114  18.039  0.00  0.00    +0.000 A 
ATOM      2  C   UNL     1      50.698   7.729  16.850  0.00  0.00    +0.000 A 
ATOM      3  C   UNL     1      50.136   8.022  15.606  0.00  0.00    +0.000 A 
ATOM      4  C   UNL     1      48.914   8.700  15.521  0.00  0.00    +0.000 A 
ATOM      5  C   UNL     1      48.255   9.055  16.704  0.00  0.00    +0.000 A 
ATOM      6  C   UNL     1      48.822   8.773  17.950  0.00  0.00    +0.000 A 
ENDROOT
BRANCH   1   7
ATOM      7  C   UNL     1      50.669   7.805  19.386  0.00  0.00    +0.000 C 
BRANCH   7   8
ATOM      8  N   UNL     1      51.516   6.619  19.313  0.00  0.00    +0.000 NA
ATOM      9  H   UNL     1      51.705   6.404  18.334  0.00  0.00    +0.000 HD
BRANCH   8  10
ATOM     10  C   UNL     1      50.864   5.449  19.903  0.00  0.00    +0.000 C 
BRANCH  10  15
ATOM     11  C   UNL     1      49.711   3.031  17.370  0.00  0.00    +0.000 A 
ATOM     12  C   UNL     1      50.826   2.265  17.074  0.00  0.00    +0.000 A 
ATOM     13  C   UNL     1      52.008   2.533  17.754  0.00  0.00    +0.000 A 
ATOM     14  C   UNL     1      52.030   3.554  18.699  0.00  0.00    +0.000 A 
ATOM     15  C   UNL     1      50.863   4.282  18.934  0.00  0.00    +0.000 A 
ATOM     16  N   UNL     1      49.704   4.029  18.280  0.00  0.00    +0.000 NA
BRANCH  11  18
ATOM     17  C   UNL     1      47.382   3.164  17.349  0.00  0.00    +0.000 C 
ATOM     18  O   UNL     1      48.560   2.738  16.668  0.00  0.00    +0.000 OA
ENDBRANCH  11  18
ENDBRANCH  10  15
ENDBRANCH   8  10
ENDBRANCH   7   8
ENDBRANCH   1   7
BRANCH   4  19
ATOM     19  C   UNL     1      48.283   8.979  14.184  0.00  0.00    +0.000 C 
BRANCH  19  20
ATOM     20  N   UNL     1      47.318   7.962  13.858  0.00  0.00    +0.000 N 
ATOM     21  C   UNL     1      47.653   6.874  13.097  0.00  0.00    +0.000 C 
ATOM     22  O   UNL     1      48.795   6.696  12.682  0.00  0.00    +0.000 OA
ATOM     23  H   UNL     1      46.340   8.197  13.996  0.00  0.00    +0.000 HD
BRANCH  21  24
ATOM     24  C   UNL     1      46.589   5.889  12.863  0.00  0.00    +0.000 A 
ATOM     25  C   UNL     1      46.792   4.562  13.217  0.00  0.00    +0.000 A 
ATOM     26  S   UNL     1      45.434   3.567  12.949  0.00  0.00    +0.000 S 
ATOM     27  C   UNL     1      44.544   4.864  12.299  0.00  0.00    +0.000 A 
ATOM     28  N   UNL     1      43.272   4.682  11.850  0.00  0.00    +0.000 NA
ATOM     29  C   UNL     1      42.727   5.742  11.352  0.00  0.00    +0.000 A 
ATOM     30  N   UNL     1      43.337   6.966  11.265  0.00  0.00    +0.000 N 
ATOM     31  C   UNL     1      44.610   7.201  11.727  0.00  0.00    +0.000 A 
ATOM     32  O   UNL     1      45.115   8.318  11.661  0.00  0.00    +0.000 OA
ATOM     33  C   UNL     1      45.270   6.041  12.294  0.00  0.00    +0.000 A 
ATOM     34  H   UNL     1      42.856   7.757  10.863  0.00  0.00    +0.000 HD
ENDBRANCH  21  24
ENDBRANCH  19  20
ENDBRANCH   4  19
TORSDOF 8
ENDMDL
