MODEL 1
REMARK VINA RESULT:    -8.365      0.000      0.000
REMARK INTER + INTRA:         -11.826
REMARK INTER:                 -11.300
REMARK INTRA:                  -0.526
REMARK UNBOUND:                -0.526
REMARK  Name = 
REMARK  6 active torsions:
REMARK  status: ('A' for Active; 'I' for Inactive)
REMARK    1  A    between atoms: C_2  and  C_4
REMARK    2  A    between atoms: N_8  and  C_9
REMARK    3  A    between atoms: C_9  and  C_10
REMARK    4  A    between atoms: C_10  and  C_11
REMARK    5  A    between atoms: C_15  and  O_16
REMARK    6  A    between atoms: O_16  and  C_17
REMARK                            x       y       z     vdW  Elec       q    Type
REMARK                         _______ _______ _______ _____ _____    ______ ____
ROOT
ATOM      1  C   UNL     1      46.461   2.480   7.670  0.00  0.00    +0.000 A 
ATOM      2  C   UNL     1      45.738   1.880   8.690  0.00  0.00    +0.000 A 
ATOM      3  C   UNL     1      44.898   2.666   9.479  0.00  0.00    +0.000 A 
ATOM      4  C   UNL     1      44.801   4.038   9.251  0.00  0.00    +0.000 A 
ATOM      5  N   UNL     1      43.991   4.856   9.998  0.00  0.00    +0.000 N 
ATOM      6  N   UNL     1      45.510   4.630   8.268  0.00  0.00    +0.000 NA
ATOM      7  C   UNL     1      46.323   3.850   7.507  0.00  0.00    +0.000 A 
ATOM      8  H   UNL     1      44.070   5.840   9.774  0.00  0.00    +0.000 HD
ENDROOT
BRANCH   1  10
ATOM      9  N   UNL     1      48.495   2.371   6.347  0.00  0.00    +0.000 N 
ATOM     10  C   UNL     1      47.378   1.720   6.797  0.00  0.00    +0.000 C 
ATOM     11  O   UNL     1      47.167   0.550   6.504  0.00  0.00    +0.000 OA
ATOM     12  H   UNL     1      49.162   1.819   5.824  0.00  0.00    +0.000 HD
ATOM     13  H   UNL     1      48.815   3.245   6.740  0.00  0.00    +0.000 HD
ENDBRANCH   1  10
BRANCH   5  14
ATOM     14  C   UNL     1      43.157   4.378  11.084  0.00  0.00    +0.000 C 
BRANCH  14  15
ATOM     15  C   UNL     1      43.214   5.291  12.310  0.00  0.00    +0.000 C 
BRANCH  15  16
ATOM     16  C   UNL     1      44.640   5.558  12.746  0.00  0.00    +0.000 A 
ATOM     17  C   UNL     1      45.242   6.791  12.471  0.00  0.00    +0.000 A 
ATOM     18  C   UNL     1      46.556   7.044  12.872  0.00  0.00    +0.000 A 
ATOM     19  C   UNL     1      47.290   6.067  13.552  0.00  0.00    +0.000 A 
ATOM     20  C   UNL     1      46.702   4.836  13.833  0.00  0.00    +0.000 A 
ATOM     21  C   UNL     1      45.378   4.591  13.449  0.00  0.00    +0.000 A 
BRANCH  20  22
ATOM     22  O   UNL     1      47.321   3.809  14.506  0.00  0.00    +0.000 OA
BRANCH  22  23
ATOM     23  C   UNL     1      47.314   3.815  15.953  0.00  0.00    +0.000 C 
ATOM     24  C   UNL     1      48.154   4.877  16.680  0.00  0.00    +0.000 C 
ATOM     25  O   UNL     1      48.788   3.868  17.507  0.00  0.00    +0.000 OA
ATOM     26  C   UNL     1      48.289   2.832  16.624  0.00  0.00    +0.000 C 
ENDBRANCH  22  23
ENDBRANCH  20  22
ENDBRANCH  15  16
ENDBRANCH  14  15
ENDBRANCH   5  14
TORSDOF 6
ENDMDL
MODEL 2
REMARK VINA RESULT:    -7.808      2.046      3.271
REMARK INTER + INTRA:         -11.073
REMARK INTER:                 -10.272
REMARK INTRA:                  -0.802
REMARK UNBOUND:                -0.526
REMARK  Name = 
REMARK  6 active torsions:
REMARK  status: ('A' for Active; 'I' for Inactive)
REMARK    1  A    between atoms: C_2  and  C_4
REMARK    2  A    between atoms: N_8  and  C_9
REMARK    3  A    between atoms: C_9  and  C_10
REMARK    4  A    between atoms: C_10  and  C_11
REMARK    5  A    between atoms: C_15  and  O_16
REMARK    6  A    between atoms: O_16  and  C_17
REMARK                            x       y       z     vdW  Elec       q    Type
REMARK                         _______ _______ _______ _____ _____    ______ ____
ROOT
ATOM      1  C   UNL     1      46.563   2.498   7.554  0.00  0.00    +0.000 A 
ATOM      2  C   UNL     1      45.803   1.900   8.547  0.00  0.00    +0.000 A 
ATOM      3  C   UNL     1      44.957   2.690   9.324  0.00  0.00    +0.000 A 
ATOM      4  C   UNL     1      44.891   4.067   9.112  0.00  0.00    +0.000 A 
ATOM      5  N   UNL     1      44.077   4.890   9.848  0.00  0.00    +0.000 N 
ATOM      6  N   UNL     1      45.636   4.658   8.155  0.00  0.00    +0.000 NA
ATOM      7  C   UNL     1      46.454   3.873   7.405  0.00  0.00    +0.000 A 
ATOM      8  H   UNL     1      44.179   5.875   9.640  0.00  0.00    +0.000 HD
ENDROOT
BRANCH   1  10
ATOM      9  N   UNL     1      48.649   2.353   6.319  0.00  0.00    +0.000 N 
ATOM     10  C   UNL     1      47.488   1.733   6.694  0.00  0.00    +0.000 C 
ATOM     11  O   UNL     1      47.245   0.584   6.349  0.00  0.00    +0.000 OA
ATOM     12  H   UNL     1      49.317   1.793   5.805  0.00  0.00    +0.000 HD
ATOM     13  H   UNL     1      48.985   3.199   6.757  0.00  0.00    +0.000 HD
ENDBRANCH   1  10
BRANCH   5  14
ATOM     14  C   UNL     1      43.207   4.414  10.906  0.00  0.00    +0.000 C 
BRANCH  14  15
ATOM     15  C   UNL     1      43.303   5.269  12.171  0.00  0.00    +0.000 C 
BRANCH  15  16
ATOM     16  C   UNL     1      44.727   5.370  12.674  0.00  0.00    +0.000 A 
ATOM     17  C   UNL     1      45.378   4.238  13.180  0.00  0.00    +0.000 A 
ATOM     18  C   UNL     1      46.693   4.325  13.645  0.00  0.00    +0.000 A 
ATOM     19  C   UNL     1      47.376   5.543  13.614  0.00  0.00    +0.000 A 
ATOM     20  C   UNL     1      46.741   6.678  13.112  0.00  0.00    +0.000 A 
ATOM     21  C   UNL     1      45.430   6.585  12.628  0.00  0.00    +0.000 A 
BRANCH  20  22
ATOM     22  O   UNL     1      47.318   7.922  13.021  0.00  0.00    +0.000 OA
BRANCH  22  23
ATOM     23  C   UNL     1      48.328   8.152  12.011  0.00  0.00    +0.000 C 
ATOM     24  C   UNL     1      49.803   8.156  12.445  0.00  0.00    +0.000 C 
ATOM     25  O   UNL     1      50.035   9.431  11.793  0.00  0.00    +0.000 OA
ATOM     26  C   UNL     1      48.603   9.629  11.675  0.00  0.00    +0.000 C 
ENDBRANCH  22  23
ENDBRANCH  20  22
ENDBRANCH  15  16
ENDBRANCH  14  15
ENDBRANCH   5  14
TORSDOF 6
ENDMDL
MODEL 3
REMARK VINA RESULT:    -7.753      1.945      2.332
REMARK INTER + INTRA:         -10.999
REMARK INTER:                 -10.147
REMARK INTRA:                  -0.852
REMARK UNBOUND:                -0.526
REMARK  Name = 
REMARK  6 active torsions:
REMARK  status: ('A' for Active; 'I' for Inactive)
REMARK    1  A    between atoms: C_2  and  C_4
REMARK    2  A    between atoms: N_8  and  C_9
REMARK    3  A    between atoms: C_9  and  C_10
REMARK    4  A    between atoms: C_10  and  C_11
REMARK    5  A    between atoms: C_15  and  O_16
REMARK    6  A    between atoms: O_16  and  C_17
REMARK                            x       y       z     vdW  Elec       q    Type
REMARK                         _______ _______ _______ _____ _____    ______ ____
ROOT
ATOM      1  C   UNL     1      46.453   2.761   7.358  0.00  0.00    +0.000 A 
ATOM      2  C   UNL     1      45.833   3.908   7.829  0.00  0.00    +0.000 A 
ATOM      3  C   UNL     1      44.996   3.819   8.941  0.00  0.00    +0.000 A 
ATOM      4  C   UNL     1      44.775   2.588   9.556  0.00  0.00    +0.000 A 
ATOM      5  N   UNL     1      43.960   2.445  10.651  0.00  0.00    +0.000 N 
ATOM      6  N   UNL     1      45.365   1.466   9.096  0.00  0.00    +0.000 NA
ATOM      7  C   UNL     1      46.180   1.570   8.013  0.00  0.00    +0.000 A 
ATOM      8  H   UNL     1      43.831   1.487  10.954  0.00  0.00    +0.000 HD
ENDROOT
BRANCH   1  10
ATOM      9  N   UNL     1      48.691   2.663   6.418  0.00  0.00    +0.000 N 
ATOM     10  C   UNL     1      47.347   2.770   6.182  0.00  0.00    +0.000 C 
ATOM     11  O   UNL     1      46.909   2.844   5.041  0.00  0.00    +0.000 OA
ATOM     12  H   UNL     1      49.289   2.580   5.606  0.00  0.00    +0.000 HD
ATOM     13  H   UNL     1      49.070   2.379   7.310  0.00  0.00    +0.000 HD
ENDBRANCH   1  10
BRANCH   5  14
ATOM     14  C   UNL     1      43.259   3.550  11.275  0.00  0.00    +0.000 C 
BRANCH  14  15
ATOM     15  C   UNL     1      43.826   3.899  12.652  0.00  0.00    +0.000 C 
BRANCH  15  16
ATOM     16  C   UNL     1      44.849   5.013  12.573  0.00  0.00    +0.000 A 
ATOM     17  C   UNL     1      44.620   6.124  11.753  0.00  0.00    +0.000 A 
ATOM     18  C   UNL     1      45.559   7.155  11.677  0.00  0.00    +0.000 A 
ATOM     19  C   UNL     1      46.743   7.091  12.417  0.00  0.00    +0.000 A 
ATOM     20  C   UNL     1      46.984   5.991  13.238  0.00  0.00    +0.000 A 
ATOM     21  C   UNL     1      46.032   4.968  13.329  0.00  0.00    +0.000 A 
BRANCH  20  22
ATOM     22  O   UNL     1      48.103   5.828  14.019  0.00  0.00    +0.000 OA
BRANCH  22  23
ATOM     23  C   UNL     1      48.643   6.975  14.717  0.00  0.00    +0.000 C 
ATOM     24  C   UNL     1      49.938   7.609  14.181  0.00  0.00    +0.000 C 
ATOM     25  O   UNL     1      50.556   7.554  15.493  0.00  0.00    +0.000 OA
ATOM     26  C   UNL     1      49.513   6.653  15.945  0.00  0.00    +0.000 C 
ENDBRANCH  22  23
ENDBRANCH  20  22
ENDBRANCH  15  16
ENDBRANCH  14  15
ENDBRANCH   5  14
TORSDOF 6
ENDMDL
MODEL 4
REMARK VINA RESULT:    -6.797      3.430      7.040
REMARK INTER + INTRA:          -9.708
REMARK INTER:                  -8.921
REMARK INTRA:                  -0.788
REMARK UNBOUND:                -0.526
REMARK  Name = 
REMARK  6 active torsions:
REMARK  status: ('A' for Active; 'I' for Inactive)
REMARK    1  A    between atoms: C_2  and  C_4
REMARK    2  A    between atoms: N_8  and  C_9
REMARK    3  A    between atoms: C_9  and  C_10
REMARK    4  A    between atoms: C_10  and  C_11
REMARK    5  A    between atoms: C_15  and  O_16
REMARK    6  A    between atoms: O_16  and  C_17
REMARK                            x       y       z     vdW  Elec       q    Type
REMARK                         _______ _______ _______ _____ _____    ______ ____
ROOT
ATOM      1  C   UNL     1      47.333   7.358  12.618  0.00  0.00    +0.000 A 
ATOM      2  C   UNL     1      46.006   7.352  12.214  0.00  0.00    +0.000 A 
ATOM      3  C   UNL     1      45.222   6.229  12.477  0.00  0.00    +0.000 A 
ATOM      4  C   UNL     1      45.773   5.123  13.123  0.00  0.00    +0.000 A 
ATOM      5  N   UNL     1      45.046   3.994  13.405  0.00  0.00    +0.000 N 
ATOM      6  N   UNL     1      47.066   5.117  13.509  0.00  0.00    +0.000 NA
ATOM      7  C   UNL     1      47.816   6.220  13.247  0.00  0.00    +0.000 A 
ATOM      8  H   UNL     1      45.586   3.240  13.811  0.00  0.00    +0.000 HD
ENDROOT
BRANCH   1  10
ATOM      9  N   UNL     1      49.577   8.276  12.471  0.00  0.00    +0.000 N 
ATOM     10  C   UNL     1      48.231   8.503  12.370  0.00  0.00    +0.000 C 
ATOM     11  O   UNL     1      47.798   9.607  12.062  0.00  0.00    +0.000 OA
ATOM     12  H   UNL     1      50.187   9.041  12.214  0.00  0.00    +0.000 HD
ATOM     13  H   UNL     1      49.975   7.348  12.501  0.00  0.00    +0.000 HD
ENDBRANCH   1  10
BRANCH   5  14
ATOM     14  C   UNL     1      43.644   3.842  13.068  0.00  0.00    +0.000 C 
BRANCH  14  15
ATOM     15  C   UNL     1      43.410   2.750  12.022  0.00  0.00    +0.000 C 
BRANCH  15  16
ATOM     16  C   UNL     1      44.008   3.119  10.681  0.00  0.00    +0.000 A 
ATOM     17  C   UNL     1      43.736   4.366  10.106  0.00  0.00    +0.000 A 
ATOM     18  C   UNL     1      44.285   4.712   8.870  0.00  0.00    +0.000 A 
ATOM     19  C   UNL     1      45.114   3.818   8.187  0.00  0.00    +0.000 A 
ATOM     20  C   UNL     1      45.395   2.573   8.747  0.00  0.00    +0.000 A 
ATOM     21  C   UNL     1      44.860   2.235   9.997  0.00  0.00    +0.000 A 
BRANCH  20  22
ATOM     22  O   UNL     1      46.205   1.622   8.175  0.00  0.00    +0.000 OA
BRANCH  22  23
ATOM     23  C   UNL     1      46.667   1.820   6.818  0.00  0.00    +0.000 C 
ATOM     24  C   UNL     1      47.283   0.622   6.077  0.00  0.00    +0.000 C 
ATOM     25  O   UNL     1      48.455   1.396   5.715  0.00  0.00    +0.000 OA
ATOM     26  C   UNL     1      48.080   2.412   6.680  0.00  0.00    +0.000 C 
ENDBRANCH  22  23
ENDBRANCH  20  22
ENDBRANCH  15  16
ENDBRANCH  14  15
ENDBRANCH   5  14
TORSDOF 6
ENDMDL
MODEL 5
REMARK VINA RESULT:    -6.667      2.946      4.368
REMARK INTER + INTRA:          -9.532
REMARK INTER:                  -8.829
REMARK INTRA:                  -0.703
REMARK UNBOUND:                -0.526
REMARK  Name = 
REMARK  6 active torsions:
REMARK  status: ('A' for Active; 'I' for Inactive)
REMARK    1  A    between atoms: C_2  and  C_4
REMARK    2  A    between atoms: N_8  and  C_9
REMARK    3  A    between atoms: C_9  and  C_10
REMARK    4  A    between atoms: C_10  and  C_11
REMARK    5  A    between atoms: C_15  and  O_16
REMARK    6  A    between atoms: O_16  and  C_17
REMARK                            x       y       z     vdW  Elec       q    Type
REMARK                         _______ _______ _______ _____ _____    ______ ____
ROOT
ATOM      1  C   UNL     1      44.369   4.271  11.494  0.00  0.00    +0.000 A 
ATOM      2  C   UNL     1      45.205   5.084  10.745  0.00  0.00    +0.000 A 
ATOM      3  C   UNL     1      45.575   6.328  11.254  0.00  0.00    +0.000 A 
ATOM      4  C   UNL     1      45.095   6.752  12.492  0.00  0.00    +0.000 A 
ATOM      5  N   UNL     1      45.427   7.967  13.037  0.00  0.00    +0.000 N 
ATOM      6  N   UNL     1      44.271   5.972  13.221  0.00  0.00    +0.000 NA
ATOM      7  C   UNL     1      43.921   4.760  12.713  0.00  0.00    +0.000 A 
ATOM      8  H   UNL     1      44.953   8.179  13.906  0.00  0.00    +0.000 HD
ENDROOT
BRANCH   1  10
ATOM      9  N   UNL     1      44.691   2.328  10.072  0.00  0.00    +0.000 N 
ATOM     10  C   UNL     1      43.924   2.943  11.024  0.00  0.00    +0.000 C 
ATOM     11  O   UNL     1      42.926   2.400  11.480  0.00  0.00    +0.000 OA
ATOM     12  H   UNL     1      44.430   1.384   9.819  0.00  0.00    +0.000 HD
ATOM     13  H   UNL     1      45.624   2.636   9.838  0.00  0.00    +0.000 HD
ENDBRANCH   1  10
BRANCH   5  14
ATOM     14  C   UNL     1      46.307   8.919  12.389  0.00  0.00    +0.000 C 
BRANCH  14  15
ATOM     15  C   UNL     1      47.782   8.537  12.524  0.00  0.00    +0.000 C 
BRANCH  15  16
ATOM     16  C   UNL     1      48.151   8.216  13.957  0.00  0.00    +0.000 A 
ATOM     17  C   UNL     1      48.302   9.245  14.893  0.00  0.00    +0.000 A 
ATOM     18  C   UNL     1      48.641   8.956  16.217  0.00  0.00    +0.000 A 
ATOM     19  C   UNL     1      48.837   7.634  16.625  0.00  0.00    +0.000 A 
ATOM     20  C   UNL     1      48.689   6.599  15.704  0.00  0.00    +0.000 A 
ATOM     21  C   UNL     1      48.329   6.889  14.382  0.00  0.00    +0.000 A 
BRANCH  20  22
ATOM     22  O   UNL     1      48.843   5.264  15.995  0.00  0.00    +0.000 OA
BRANCH  22  23
ATOM     23  C   UNL     1      47.664   4.440  16.147  0.00  0.00    +0.000 C 
ATOM     24  C   UNL     1      47.017   4.346  17.539  0.00  0.00    +0.000 C 
ATOM     25  O   UNL     1      47.018   2.896  17.486  0.00  0.00    +0.000 OA
ATOM     26  C   UNL     1      47.928   2.939  16.358  0.00  0.00    +0.000 C 
ENDBRANCH  22  23
ENDBRANCH  20  22
ENDBRANCH  15  16
ENDBRANCH  14  15
ENDBRANCH   5  14
TORSDOF 6
ENDMDL
MODEL 6
REMARK VINA RESULT:    -6.579      3.031      4.173
REMARK INTER + INTRA:          -9.413
REMARK INTER:                  -8.429
REMARK INTRA:                  -0.984
REMARK UNBOUND:                -0.526
REMARK  Name = 
REMARK  6 active torsions:
REMARK  status: ('A' for Active; 'I' for Inactive)
REMARK    1  A    between atoms: C_2  and  C_4
REMARK    2  A    between atoms: N_8  and  C_9
REMARK    3  A    between atoms: C_9  and  C_10
REMARK    4  A    between atoms: C_10  and  C_11
REMARK    5  A    between atoms: C_15  and  O_16
REMARK    6  A    between atoms: O_16  and  C_17
REMARK                            x       y       z     vdW  Elec       q    Type
REMARK                         _______ _______ _______ _____ _____    ______ ____
ROOT
ATOM      1  C   UNL     1      43.803   4.219  11.176  0.00  0.00    +0.000 A 
ATOM      2  C   UNL     1      44.982   4.916  10.961  0.00  0.00    +0.000 A 
ATOM      3  C   UNL     1      44.967   6.309  11.020  0.00  0.00    +0.000 A 
ATOM      4  C   UNL     1      43.776   6.988  11.275  0.00  0.00    +0.000 A 
ATOM      5  N   UNL     1      43.706   8.357  11.342  0.00  0.00    +0.000 N 
ATOM      6  N   UNL     1      42.623   6.317  11.473  0.00  0.00    +0.000 NA
ATOM      7  C   UNL     1      42.655   4.959  11.414  0.00  0.00    +0.000 A 
ATOM      8  H   UNL     1      42.769   8.722  11.462  0.00  0.00    +0.000 HD
ENDROOT
BRANCH   1  10
ATOM      9  N   UNL     1      44.405   2.123  10.105  0.00  0.00    +0.000 N 
ATOM     10  C   UNL     1      43.734   2.744  11.122  0.00  0.00    +0.000 C 
ATOM     11  O   UNL     1      43.123   2.098  11.964  0.00  0.00    +0.000 OA
ATOM     12  H   UNL     1      44.427   1.112  10.126  0.00  0.00    +0.000 HD
ATOM     13  H   UNL     1      45.092   2.595   9.533  0.00  0.00    +0.000 HD
ENDBRANCH   1  10
BRANCH   5  14
ATOM     14  C   UNL     1      44.853   9.225  11.163  0.00  0.00    +0.000 C 
BRANCH  14  15
ATOM     15  C   UNL     1      45.576   9.518  12.479  0.00  0.00    +0.000 C 
BRANCH  15  16
ATOM     16  C   UNL     1      46.957   8.898  12.511  0.00  0.00    +0.000 A 
ATOM     17  C   UNL     1      48.004   9.471  11.778  0.00  0.00    +0.000 A 
ATOM     18  C   UNL     1      49.280   8.905  11.804  0.00  0.00    +0.000 A 
ATOM     19  C   UNL     1      49.531   7.757  12.562  0.00  0.00    +0.000 A 
ATOM     20  C   UNL     1      48.500   7.177  13.297  0.00  0.00    +0.000 A 
ATOM     21  C   UNL     1      47.225   7.758  13.286  0.00  0.00    +0.000 A 
BRANCH  20  22
ATOM     22  O   UNL     1      48.633   6.060  14.086  0.00  0.00    +0.000 OA
BRANCH  22  23
ATOM     23  C   UNL     1      47.450   5.479  14.682  0.00  0.00    +0.000 C 
ATOM     24  C   UNL     1      47.616   4.638  15.958  0.00  0.00    +0.000 C 
ATOM     25  O   UNL     1      46.863   3.540  15.382  0.00  0.00    +0.000 OA
ATOM     26  C   UNL     1      46.988   4.145  14.070  0.00  0.00    +0.000 C 
ENDBRANCH  22  23
ENDBRANCH  20  22
ENDBRANCH  15  16
ENDBRANCH  14  15
ENDBRANCH   5  14
TORSDOF 6
ENDMDL
MODEL 7
REMARK VINA RESULT:    -6.301      3.041      8.028
REMARK INTER + INTRA:          -9.038
REMARK INTER:                  -8.915
REMARK INTRA:                  -0.123
REMARK UNBOUND:                -0.526
REMARK  Name = 
REMARK  6 active torsions:
REMARK  status: ('A' for Active; 'I' for Inactive)
REMARK    1  A    between atoms: C_2  and  C_4
REMARK    2  A    between atoms: N_8  and  C_9
REMARK    3  A    between atoms: C_9  and  C_10
REMARK    4  A    between atoms: C_10  and  C_11
REMARK    5  A    between atoms: C_15  and  O_16
REMARK    6  A    between atoms: O_16  and  C_17
REMARK                            x       y       z     vdW  Elec       q    Type
REMARK                         _______ _______ _______ _____ _____    ______ ____
ROOT
ATOM      1  C   UNL     1      48.628   4.118  16.991  0.00  0.00    +0.000 A 
ATOM      2  C   UNL     1      48.595   5.459  16.642  0.00  0.00    +0.000 A 
ATOM      3  C   UNL     1      47.933   5.841  15.475  0.00  0.00    +0.000 A 
ATOM      4  C   UNL     1      47.329   4.880  14.665  0.00  0.00    +0.000 A 
ATOM      5  N   UNL     1      46.666   5.202  13.507  0.00  0.00    +0.000 N 
ATOM      6  N   UNL     1      47.367   3.573  14.992  0.00  0.00    +0.000 NA
ATOM      7  C   UNL     1      48.014   3.217  16.133  0.00  0.00    +0.000 A 
ATOM      8  H   UNL     1      46.337   4.404  12.978  0.00  0.00    +0.000 HD
ENDROOT
BRANCH   1  10
ATOM      9  N   UNL     1      50.145   2.553  18.063  0.00  0.00    +0.000 N 
ATOM     10  C   UNL     1      49.315   3.631  18.205  0.00  0.00    +0.000 C 
ATOM     11  O   UNL     1      49.170   4.180  19.289  0.00  0.00    +0.000 OA
ATOM     12  H   UNL     1      50.679   2.281  18.879  0.00  0.00    +0.000 HD
ATOM     13  H   UNL     1      50.460   2.218  17.164  0.00  0.00    +0.000 HD
ENDBRANCH   1  10
BRANCH   5  14
ATOM     14  C   UNL     1      46.525   6.560  13.019  0.00  0.00    +0.000 C 
BRANCH  14  15
ATOM     15  C   UNL     1      46.730   6.662  11.506  0.00  0.00    +0.000 C 
BRANCH  15  16
ATOM     16  C   UNL     1      45.790   5.747  10.749  0.00  0.00    +0.000 A 
ATOM     17  C   UNL     1      44.606   5.300  11.347  0.00  0.00    +0.000 A 
ATOM     18  C   UNL     1      43.735   4.458  10.653  0.00  0.00    +0.000 A 
ATOM     19  C   UNL     1      44.034   4.046   9.351  0.00  0.00    +0.000 A 
ATOM     20  C   UNL     1      45.208   4.484   8.743  0.00  0.00    +0.000 A 
ATOM     21  C   UNL     1      46.071   5.345   9.432  0.00  0.00    +0.000 A 
BRANCH  20  22
ATOM     22  O   UNL     1      45.598   4.156   7.466  0.00  0.00    +0.000 OA
BRANCH  22  23
ATOM     23  C   UNL     1      46.780   3.342   7.282  0.00  0.00    +0.000 C 
ATOM     24  C   UNL     1      47.055   2.764   5.885  0.00  0.00    +0.000 C 
ATOM     25  O   UNL     1      47.223   1.428   6.425  0.00  0.00    +0.000 OA
ATOM     26  C   UNL     1      46.632   1.862   7.677  0.00  0.00    +0.000 C 
ENDBRANCH  22  23
ENDBRANCH  20  22
ENDBRANCH  15  16
ENDBRANCH  14  15
ENDBRANCH   5  14
TORSDOF 6
ENDMDL
MODEL 8
REMARK VINA RESULT:    -6.214      3.258      4.966
REMARK INTER + INTRA:          -8.920
REMARK INTER:                  -8.144
REMARK INTRA:                  -0.777
REMARK UNBOUND:                -0.526
REMARK  Name = 
REMARK  6 active torsions:
REMARK  status: ('A' for Active; 'I' for Inactive)
REMARK    1  A    between atoms: C_2  and  C_4
REMARK    2  A    between atoms: N_8  and  C_9
REMARK    3  A    between atoms: C_9  and  C_10
REMARK    4  A    between atoms: C_10  and  C_11
REMARK    5  A    between atoms: C_15  and  O_16
REMARK    6  A    between atoms: O_16  and  C_17
REMARK                            x       y       z     vdW  Elec       q    Type
REMARK                         _______ _______ _______ _____ _____    ______ ____
ROOT
ATOM      1  C   UNL     1      44.884   4.506  11.915  0.00  0.00    +0.000 A 
ATOM      2  C   UNL     1      45.834   4.534  12.924  0.00  0.00    +0.000 A 
ATOM      3  C   UNL     1      46.807   5.533  12.912  0.00  0.00    +0.000 A 
ATOM      4  C   UNL     1      46.830   6.479  11.888  0.00  0.00    +0.000 A 
ATOM      5  N   UNL     1      47.766   7.481  11.829  0.00  0.00    +0.000 N 
ATOM      6  N   UNL     1      45.916   6.451  10.897  0.00  0.00    +0.000 NA
ATOM      7  C   UNL     1      44.973   5.472  10.924  0.00  0.00    +0.000 A 
ATOM      8  H   UNL     1      47.712   8.054  10.996  0.00  0.00    +0.000 HD
ENDROOT
BRANCH   1  10
ATOM      9  N   UNL     1      43.971   2.381  12.657  0.00  0.00    +0.000 N 
ATOM     10  C   UNL     1      43.826   3.477  11.851  0.00  0.00    +0.000 C 
ATOM     11  O   UNL     1      42.847   3.605  11.128  0.00  0.00    +0.000 OA
ATOM     12  H   UNL     1      43.201   1.724  12.673  0.00  0.00    +0.000 HD
ATOM     13  H   UNL     1      44.635   2.344  13.417  0.00  0.00    +0.000 HD
ENDBRANCH   1  10
BRANCH   5  14
ATOM     14  C   UNL     1      48.810   7.658  12.819  0.00  0.00    +0.000 C 
BRANCH  14  15
ATOM     15  C   UNL     1      48.402   8.625  13.932  0.00  0.00    +0.000 C 
BRANCH  15  16
ATOM     16  C   UNL     1      48.757   8.087  15.302  0.00  0.00    +0.000 A 
ATOM     17  C   UNL     1      48.844   8.953  16.398  0.00  0.00    +0.000 A 
ATOM     18  C   UNL     1      49.170   8.463  17.665  0.00  0.00    +0.000 A 
ATOM     19  C   UNL     1      49.417   7.100  17.856  0.00  0.00    +0.000 A 
ATOM     20  C   UNL     1      49.332   6.227  16.773  0.00  0.00    +0.000 A 
ATOM     21  C   UNL     1      48.985   6.717  15.508  0.00  0.00    +0.000 A 
BRANCH  20  22
ATOM     22  O   UNL     1      49.540   4.870  16.845  0.00  0.00    +0.000 OA
BRANCH  22  23
ATOM     23  C   UNL     1      48.642   4.066  17.645  0.00  0.00    +0.000 C 
ATOM     24  C   UNL     1      48.193   2.705  17.089  0.00  0.00    +0.000 C 
ATOM     25  O   UNL     1      46.797   3.023  17.323  0.00  0.00    +0.000 OA
ATOM     26  C   UNL     1      47.149   4.416  17.517  0.00  0.00    +0.000 C 
ENDBRANCH  22  23
ENDBRANCH  20  22
ENDBRANCH  15  16
ENDBRANCH  14  15
ENDBRANCH   5  14
TORSDOF 6
ENDMDL
MODEL 9
REMARK VINA RESULT:    -6.164      3.375      5.635
REMARK INTER + INTRA:          -8.852
REMARK INTER:                  -7.901
REMARK INTRA:                  -0.952
REMARK UNBOUND:                -0.526
REMARK  Name = 
REMARK  6 active torsions:
REMARK  status: ('A' for Active; 'I' for Inactive)
REMARK    1  A    between atoms: C_2  and  C_4
REMARK    2  A    between atoms: N_8  and  C_9
REMARK    3  A    between atoms: C_9  and  C_10
REMARK    4  A    between atoms: C_10  and  C_11
REMARK    5  A    between atoms: C_15  and  O_16
REMARK    6  A    between atoms: O_16  and  C_17
REMARK                            x       y       z     vdW  Elec       q    Type
REMARK                         _______ _______ _______ _____ _____    ______ ____
ROOT
ATOM      1  C   UNL     1      45.532   4.687  12.462  0.00  0.00    +0.000 A 
ATOM      2  C   UNL     1      46.599   4.352  13.281  0.00  0.00    +0.000 A 
ATOM      3  C   UNL     1      47.337   5.369  13.885  0.00  0.00    +0.000 A 
ATOM      4  C   UNL     1      47.012   6.706  13.652  0.00  0.00    +0.000 A 
ATOM      5  N   UNL     1      47.706   7.744  14.220  0.00  0.00    +0.000 N 
ATOM      6  N   UNL     1      45.983   7.039  12.848  0.00  0.00    +0.000 NA
ATOM      7  C   UNL     1      45.272   6.036  12.268  0.00  0.00    +0.000 A 
ATOM      8  H   UNL     1      47.412   8.662  13.911  0.00  0.00    +0.000 HD
ENDROOT
BRANCH   1  10
ATOM      9  N   UNL     1      44.197   2.659  12.549  0.00  0.00    +0.000 N 
ATOM     10  C   UNL     1      44.706   3.670  11.780  0.00  0.00    +0.000 C 
ATOM     11  O   UNL     1      44.464   3.736  10.581  0.00  0.00    +0.000 OA
ATOM     12  H   UNL     1      43.562   2.018  12.093  0.00  0.00    +0.000 HD
ATOM     13  H   UNL     1      44.187   2.691  13.559  0.00  0.00    +0.000 HD
ENDBRANCH   1  10
BRANCH   5  14
ATOM     14  C   UNL     1      48.831   7.558  15.115  0.00  0.00    +0.000 C 
BRANCH  14  15
ATOM     15  C   UNL     1      48.683   8.354  16.413  0.00  0.00    +0.000 C 
BRANCH  15  16
ATOM     16  C   UNL     1      48.378   7.455  17.592  0.00  0.00    +0.000 A 
ATOM     17  C   UNL     1      47.827   7.990  18.763  0.00  0.00    +0.000 A 
ATOM     18  C   UNL     1      47.542   7.165  19.854  0.00  0.00    +0.000 A 
ATOM     19  C   UNL     1      47.804   5.793  19.793  0.00  0.00    +0.000 A 
ATOM     20  C   UNL     1      48.350   5.247  18.634  0.00  0.00    +0.000 A 
ATOM     21  C   UNL     1      48.617   6.072  17.533  0.00  0.00    +0.000 A 
BRANCH  20  22
ATOM     22  O   UNL     1      48.637   3.914  18.456  0.00  0.00    +0.000 OA
BRANCH  22  23
ATOM     23  C   UNL     1      49.174   3.477  17.186  0.00  0.00    +0.000 C 
ATOM     24  C   UNL     1      48.319   2.539  16.318  0.00  0.00    +0.000 C 
ATOM     25  O   UNL     1      49.419   1.605  16.172  0.00  0.00    +0.000 OA
ATOM     26  C   UNL     1      50.125   2.269  17.250  0.00  0.00    +0.000 C 
ENDBRANCH  22  23
ENDBRANCH  20  22
ENDBRANCH  15  16
ENDBRANCH  14  15
ENDBRANCH   5  14
TORSDOF 6
ENDMDL
