MODEL 1
REMARK VINA RESULT:    -8.104      0.000      0.000
REMARK INTER + INTRA:         -10.902
REMARK INTER:                 -10.000
REMARK INTRA:                  -0.902
REMARK UNBOUND:                -0.902
REMARK  Name = 
REMARK  4 active torsions:
REMARK  status: ('A' for Active; 'I' for Inactive)
REMARK    1  A    between atoms: C_2  and  C_4
REMARK    2  A    between atoms: C_7  and  C_8
REMARK    3  A    between atoms: C_8  and  C_9
REMARK    4  A    between atoms: C_9  and  C_10
REMARK                            x       y       z     vdW  Elec       q    Type
REMARK                         _______ _______ _______ _____ _____    ______ ____
ROOT
ATOM      1  C   UNL     1      43.813   4.033  11.552  0.00  0.00    +0.000 C 
ENDROOT
BRANCH   1   2
ATOM      2  C   UNL     1      45.100   4.284  12.303  0.00  0.00    +0.000 A 
ATOM      3  C   UNL     1      45.787   3.247  12.923  0.00  0.00    +0.000 A 
ATOM      4  C   UNL     1      46.958   3.550  13.591  0.00  0.00    +0.000 A 
ATOM      5  N   UNL     1      47.470   4.796  13.694  0.00  0.00    +0.000 NA
ATOM      6  C   UNL     1      46.818   5.823  13.106  0.00  0.00    +0.000 A 
ATOM      7  N   UNL     1      47.324   7.098  13.252  0.00  0.00    +0.000 N 
ATOM      8  C   UNL     1      47.145   8.145  12.243  0.00  0.00    +0.000 C 
ATOM      9  C   UNL     1      48.506   8.656  11.717  0.00  0.00    +0.000 C 
ATOM     10  N   UNL     1      49.448   9.058  12.781  0.00  0.00    +0.000 NA
ATOM     11  C   UNL     1      49.642   7.901  13.685  0.00  0.00    +0.000 C 
ATOM     12  C   UNL     1      48.327   7.363  14.291  0.00  0.00    +0.000 C 
ATOM     13  C   UNL     1      45.628   5.580  12.411  0.00  0.00    +0.000 A 
ATOM     14  H   UNL     1      49.011   9.805  13.322  0.00  0.00    +0.000 HD
ENDBRANCH   1   2
BRANCH   1  15
ATOM     15  C   UNL     1      43.852   4.573  10.118  0.00  0.00    +0.000 C 
BRANCH  15  19
ATOM     16  C   UNL     1      46.618   2.460   7.539  0.00  0.00    +0.000 A 
ATOM     17  C   UNL     1      45.797   1.749   8.422  0.00  0.00    +0.000 A 
ATOM     18  C   UNL     1      44.912   2.433   9.265  0.00  0.00    +0.000 A 
ATOM     19  C   UNL     1      44.832   3.832   9.235  0.00  0.00    +0.000 A 
ATOM     20  C   UNL     1      45.678   4.539   8.368  0.00  0.00    +0.000 A 
ATOM     21  C   UNL     1      46.566   3.859   7.528  0.00  0.00    +0.000 A 
BRANCH  16  23
ATOM     22  N   UNL     1      48.690   2.468   6.255  0.00  0.00    +0.000 N 
ATOM     23  C   UNL     1      47.567   1.777   6.621  0.00  0.00    +0.000 C 
ATOM     24  O   UNL     1      47.381   0.630   6.241  0.00  0.00    +0.000 OA
ATOM     25  H   UNL     1      49.378   1.953   5.721  0.00  0.00    +0.000 HD
ATOM     26  H   UNL     1      49.003   3.288   6.754  0.00  0.00    +0.000 HD
ENDBRANCH  16  23
ENDBRANCH  15  19
ENDBRANCH   1  15
TORSDOF 4
ENDMDL
MODEL 2
REMARK VINA RESULT:    -8.019      1.485      2.880
REMARK INTER + INTRA:         -10.797
REMARK INTER:                 -10.168
REMARK INTRA:                  -0.629
REMARK UNBOUND:                -0.902
REMARK  Name = 
REMARK  4 active torsions:
REMARK  status: ('A' for Active; 'I' for Inactive)
REMARK    1  A    between atoms: C_2  and  C_4
REMARK    2  A    between atoms: C_7  and  C_8
REMARK    3  A    between atoms: C_8  and  C_9
REMARK    4  A    between atoms: C_9  and  C_10
REMARK                            x       y       z     vdW  Elec       q    Type
REMARK                         _______ _______ _______ _____ _____    ______ ____
ROOT
ATOM      1  C   UNL     1      43.556   5.006  10.604  0.00  0.00    +0.000 C 
ENDROOT
BRANCH   1   2
ATOM      2  C   UNL     1      44.476   5.858  11.447  0.00  0.00    +0.000 A 
ATOM      3  C   UNL     1      44.386   7.245  11.434  0.00  0.00    +0.000 A 
ATOM      4  C   UNL     1      45.260   7.960  12.230  0.00  0.00    +0.000 A 
ATOM      5  N   UNL     1      46.209   7.397  13.010  0.00  0.00    +0.000 NA
ATOM      6  C   UNL     1      46.321   6.051  13.034  0.00  0.00    +0.000 A 
ATOM      7  N   UNL     1      47.320   5.485  13.799  0.00  0.00    +0.000 N 
ATOM      8  C   UNL     1      47.198   4.160  14.412  0.00  0.00    +0.000 C 
ATOM      9  C   UNL     1      47.331   4.239  15.951  0.00  0.00    +0.000 C 
ATOM     10  N   UNL     1      48.533   4.963  16.412  0.00  0.00    +0.000 NA
ATOM     11  C   UNL     1      48.507   6.320  15.823  0.00  0.00    +0.000 C 
ATOM     12  C   UNL     1      48.425   6.323  14.281  0.00  0.00    +0.000 C 
ATOM     13  C   UNL     1      45.463   5.270  12.252  0.00  0.00    +0.000 A 
ATOM     14  H   UNL     1      49.352   4.479  16.044  0.00  0.00    +0.000 HD
ENDBRANCH   1   2
BRANCH   1  15
ATOM     15  C   UNL     1      43.998   3.539  10.547  0.00  0.00    +0.000 C 
BRANCH  15  19
ATOM     16  C   UNL     1      46.548   2.658   7.159  0.00  0.00    +0.000 A 
ATOM     17  C   UNL     1      46.083   3.961   7.368  0.00  0.00    +0.000 A 
ATOM     18  C   UNL     1      45.248   4.243   8.456  0.00  0.00    +0.000 A 
ATOM     19  C   UNL     1      44.871   3.231   9.350  0.00  0.00    +0.000 A 
ATOM     20  C   UNL     1      45.318   1.922   9.117  0.00  0.00    +0.000 A 
ATOM     21  C   UNL     1      46.149   1.637   8.029  0.00  0.00    +0.000 A 
BRANCH  16  23
ATOM     22  N   UNL     1      48.791   2.373   6.246  0.00  0.00    +0.000 N 
ATOM     23  C   UNL     1      47.442   2.313   6.022  0.00  0.00    +0.000 C 
ATOM     24  O   UNL     1      46.999   1.949   4.942  0.00  0.00    +0.000 OA
ATOM     25  H   UNL     1      49.384   2.033   5.501  0.00  0.00    +0.000 HD
ATOM     26  H   UNL     1      49.180   2.404   7.177  0.00  0.00    +0.000 HD
ENDBRANCH  16  23
ENDBRANCH  15  19
ENDBRANCH   1  15
TORSDOF 4
ENDMDL
MODEL 3
REMARK VINA RESULT:    -7.763      2.552      3.197
REMARK INTER + INTRA:         -10.480
REMARK INTER:                  -9.721
REMARK INTRA:                  -0.760
REMARK UNBOUND:                -0.902
REMARK  Name = 
REMARK  4 active torsions:
REMARK  status: ('A' for Active; 'I' for Inactive)
REMARK    1  A    between atoms: C_2  and  C_4
REMARK    2  A    between atoms: C_7  and  C_8
REMARK    3  A    between atoms: C_8  and  C_9
REMARK    4  A    between atoms: C_9  and  C_10
REMARK                            x       y       z     vdW  Elec       q    Type
REMARK                         _______ _______ _______ _____ _____    ______ ____
ROOT
ATOM      1  C   UNL     1      44.349   4.457  11.654  0.00  0.00    +0.000 C 
ENDROOT
BRANCH   1   2
ATOM      2  C   UNL     1      45.100   5.764  11.758  0.00  0.00    +0.000 A 
ATOM      3  C   UNL     1      46.450   5.795  12.091  0.00  0.00    +0.000 A 
ATOM      4  C   UNL     1      47.072   7.026  12.168  0.00  0.00    +0.000 A 
ATOM      5  N   UNL     1      46.447   8.205  11.955  0.00  0.00    +0.000 NA
ATOM      6  C   UNL     1      45.135   8.202  11.638  0.00  0.00    +0.000 A 
ATOM      7  N   UNL     1      44.493   9.412  11.465  0.00  0.00    +0.000 N 
ATOM      8  C   UNL     1      43.352   9.585  10.562  0.00  0.00    +0.000 C 
ATOM      9  C   UNL     1      43.656  10.635   9.468  0.00  0.00    +0.000 C 
ATOM     10  N   UNL     1      44.156  11.921   9.994  0.00  0.00    +0.000 NA
ATOM     11  C   UNL     1      45.366  11.649  10.802  0.00  0.00    +0.000 C 
ATOM     12  C   UNL     1      45.129  10.643  11.950  0.00  0.00    +0.000 C 
ATOM     13  C   UNL     1      44.448   6.987  11.540  0.00  0.00    +0.000 A 
ATOM     14  H   UNL     1      43.445  12.304  10.617  0.00  0.00    +0.000 HD
ENDBRANCH   1   2
BRANCH   1  15
ATOM     15  C   UNL     1      43.782   4.213  10.250  0.00  0.00    +0.000 C 
BRANCH  15  19
ATOM     16  C   UNL     1      46.600   2.378   7.519  0.00  0.00    +0.000 A 
ATOM     17  C   UNL     1      45.879   1.587   8.420  0.00  0.00    +0.000 A 
ATOM     18  C   UNL     1      44.977   2.182   9.312  0.00  0.00    +0.000 A 
ATOM     19  C   UNL     1      44.782   3.570   9.313  0.00  0.00    +0.000 A 
ATOM     20  C   UNL     1      45.529   4.358   8.426  0.00  0.00    +0.000 A 
ATOM     21  C   UNL     1      46.433   3.768   7.537  0.00  0.00    +0.000 A 
BRANCH  16  23
ATOM     22  N   UNL     1      48.707   2.496   6.299  0.00  0.00    +0.000 N 
ATOM     23  C   UNL     1      47.561   1.790   6.549  0.00  0.00    +0.000 C 
ATOM     24  O   UNL     1      47.365   0.702   6.027  0.00  0.00    +0.000 OA
ATOM     25  H   UNL     1      49.400   2.034   5.724  0.00  0.00    +0.000 HD
ATOM     26  H   UNL     1      49.021   3.242   6.902  0.00  0.00    +0.000 HD
ENDBRANCH  16  23
ENDBRANCH  15  19
ENDBRANCH   1  15
TORSDOF 4
ENDMDL
MODEL 4
REMARK VINA RESULT:    -7.300      1.224      2.403
REMARK INTER + INTRA:          -9.910
REMARK INTER:                  -9.244
REMARK INTRA:                  -0.665
REMARK UNBOUND:                -0.902
REMARK  Name = 
REMARK  4 active torsions:
REMARK  status: ('A' for Active; 'I' for Inactive)
REMARK    1  A    between atoms: C_2  and  C_4
REMARK    2  A    between atoms: C_7  and  C_8
REMARK    3  A    between atoms: C_8  and  C_9
REMARK    4  A    between atoms: C_9  and  C_10
REMARK                            x       y       z     vdW  Elec       q    Type
REMARK                         _______ _______ _______ _____ _____    ______ ____
ROOT
ATOM      1  C   UNL     1      44.781   4.210  11.761  0.00  0.00    +0.000 C 
ENDROOT
BRANCH   1   2
ATOM      2  C   UNL     1      45.200   5.651  11.933  0.00  0.00    +0.000 A 
ATOM      3  C   UNL     1      44.412   6.693  11.456  0.00  0.00    +0.000 A 
ATOM      4  C   UNL     1      44.858   7.986  11.648  0.00  0.00    +0.000 A 
ATOM      5  N   UNL     1      46.021   8.303  12.257  0.00  0.00    +0.000 NA
ATOM      6  C   UNL     1      46.809   7.310  12.723  0.00  0.00    +0.000 A 
ATOM      7  N   UNL     1      48.015   7.639  13.305  0.00  0.00    +0.000 N 
ATOM      8  C   UNL     1      48.640   6.831  14.355  0.00  0.00    +0.000 C 
ATOM      9  C   UNL     1      48.838   7.650  15.652  0.00  0.00    +0.000 C 
ATOM     10  N   UNL     1      49.533   8.937  15.447  0.00  0.00    +0.000 NA
ATOM     11  C   UNL     1      48.767   9.720  14.450  0.00  0.00    +0.000 C 
ATOM     12  C   UNL     1      48.570   8.985  13.107  0.00  0.00    +0.000 C 
ATOM     13  C   UNL     1      46.411   5.978  12.562  0.00  0.00    +0.000 A 
ATOM     14  H   UNL     1      50.451   8.739  15.049  0.00  0.00    +0.000 HD
ENDBRANCH   1   2
BRANCH   1  15
ATOM     15  C   UNL     1      44.037   3.965  10.443  0.00  0.00    +0.000 C 
BRANCH  15  19
ATOM     16  C   UNL     1      46.625   2.300   7.395  0.00  0.00    +0.000 A 
ATOM     17  C   UNL     1      46.435   3.684   7.476  0.00  0.00    +0.000 A 
ATOM     18  C   UNL     1      45.589   4.222   8.454  0.00  0.00    +0.000 A 
ATOM     19  C   UNL     1      44.924   3.386   9.363  0.00  0.00    +0.000 A 
ATOM     20  C   UNL     1      45.097   1.998   9.256  0.00  0.00    +0.000 A 
ATOM     21  C   UNL     1      45.939   1.459   8.278  0.00  0.00    +0.000 A 
BRANCH  16  23
ATOM     22  N   UNL     1      48.608   2.415   5.982  0.00  0.00    +0.000 N 
ATOM     23  C   UNL     1      47.520   1.686   6.378  0.00  0.00    +0.000 C 
ATOM     24  O   UNL     1      47.323   0.561   5.943  0.00  0.00    +0.000 OA
ATOM     25  H   UNL     1      49.265   1.943   5.374  0.00  0.00    +0.000 HD
ATOM     26  H   UNL     1      48.943   3.209   6.507  0.00  0.00    +0.000 HD
ENDBRANCH  16  23
ENDBRANCH  15  19
ENDBRANCH   1  15
TORSDOF 4
ENDMDL
MODEL 5
REMARK VINA RESULT:    -6.796      3.173      5.346
REMARK INTER + INTRA:          -9.287
REMARK INTER:                  -8.785
REMARK INTRA:                  -0.501
REMARK UNBOUND:                -0.902
REMARK  Name = 
REMARK  4 active torsions:
REMARK  status: ('A' for Active; 'I' for Inactive)
REMARK    1  A    between atoms: C_2  and  C_4
REMARK    2  A    between atoms: C_7  and  C_8
REMARK    3  A    between atoms: C_8  and  C_9
REMARK    4  A    between atoms: C_9  and  C_10
REMARK                            x       y       z     vdW  Elec       q    Type
REMARK                         _______ _______ _______ _____ _____    ______ ____
ROOT
ATOM      1  C   UNL     1      46.623   3.621   6.625  0.00  0.00    +0.000 C 
ENDROOT
BRANCH   1   2
ATOM      2  C   UNL     1      45.738   3.314   7.811  0.00  0.00    +0.000 A 
ATOM      3  C   UNL     1      45.299   2.020   8.067  0.00  0.00    +0.000 A 
ATOM      4  C   UNL     1      44.493   1.814   9.169  0.00  0.00    +0.000 A 
ATOM      5  N   UNL     1      44.090   2.794  10.007  0.00  0.00    +0.000 NA
ATOM      6  C   UNL     1      44.496   4.061   9.776  0.00  0.00    +0.000 A 
ATOM      7  N   UNL     1      44.046   5.063  10.611  0.00  0.00    +0.000 N 
ATOM      8  C   UNL     1      44.822   6.273  10.892  0.00  0.00    +0.000 C 
ATOM      9  C   UNL     1      45.120   6.411  12.403  0.00  0.00    +0.000 C 
ATOM     10  N   UNL     1      43.924   6.299  13.263  0.00  0.00    +0.000 NA
ATOM     11  C   UNL     1      43.273   5.000  12.978  0.00  0.00    +0.000 C 
ATOM     12  C   UNL     1      42.899   4.809  11.492  0.00  0.00    +0.000 C 
ATOM     13  C   UNL     1      45.318   4.335   8.677  0.00  0.00    +0.000 A 
ATOM     14  H   UNL     1      43.274   7.038  12.995  0.00  0.00    +0.000 HD
ENDBRANCH   1   2
BRANCH   1  15
ATOM     15  C   UNL     1      47.671   2.531   6.374  0.00  0.00    +0.000 C 
BRANCH  15  19
ATOM     16  C   UNL     1      46.454  -0.413   3.439  0.00  0.00    +0.000 A 
ATOM     17  C   UNL     1      46.282   0.951   3.179  0.00  0.00    +0.000 A 
ATOM     18  C   UNL     1      46.664   1.903   4.133  0.00  0.00    +0.000 A 
ATOM     19  C   UNL     1      47.224   1.505   5.355  0.00  0.00    +0.000 A 
ATOM     20  C   UNL     1      47.367   0.135   5.620  0.00  0.00    +0.000 A 
ATOM     21  C   UNL     1      46.982  -0.817   4.670  0.00  0.00    +0.000 A 
BRANCH  16  23
ATOM     22  N   UNL     1      47.045  -2.332   2.057  0.00  0.00    +0.000 N 
ATOM     23  C   UNL     1      46.070  -1.458   2.453  0.00  0.00    +0.000 C 
ATOM     24  O   UNL     1      44.923  -1.565   2.043  0.00  0.00    +0.000 OA
ATOM     25  H   UNL     1      46.746  -3.101   1.472  0.00  0.00    +0.000 HD
ATOM     26  H   UNL     1      47.909  -2.441   2.567  0.00  0.00    +0.000 HD
ENDBRANCH  16  23
ENDBRANCH  15  19
ENDBRANCH   1  15
TORSDOF 4
ENDMDL
MODEL 6
REMARK VINA RESULT:    -6.383      4.229      6.432
REMARK INTER + INTRA:          -8.778
REMARK INTER:                  -8.028
REMARK INTRA:                  -0.750
REMARK UNBOUND:                -0.902
REMARK  Name = 
REMARK  4 active torsions:
REMARK  status: ('A' for Active; 'I' for Inactive)
REMARK    1  A    between atoms: C_2  and  C_4
REMARK    2  A    between atoms: C_7  and  C_8
REMARK    3  A    between atoms: C_8  and  C_9
REMARK    4  A    between atoms: C_9  and  C_10
REMARK                            x       y       z     vdW  Elec       q    Type
REMARK                         _______ _______ _______ _____ _____    ______ ____
ROOT
ATOM      1  C   UNL     1      48.714   7.914  13.580  0.00  0.00    +0.000 C 
ENDROOT
BRANCH   1   2
ATOM      2  C   UNL     1      48.679   7.825  15.088  0.00  0.00    +0.000 A 
ATOM      3  C   UNL     1      48.376   8.934  15.869  0.00  0.00    +0.000 A 
ATOM      4  C   UNL     1      48.362   8.779  17.242  0.00  0.00    +0.000 A 
ATOM      5  N   UNL     1      48.641   7.619  17.875  0.00  0.00    +0.000 NA
ATOM      6  C   UNL     1      48.946   6.528  17.140  0.00  0.00    +0.000 A 
ATOM      7  N   UNL     1      49.272   5.358  17.795  0.00  0.00    +0.000 N 
ATOM      8  C   UNL     1      49.014   4.031  17.230  0.00  0.00    +0.000 C 
ATOM      9  C   UNL     1      48.082   3.203  18.145  0.00  0.00    +0.000 C 
ATOM     10  N   UNL     1      48.527   3.137  19.552  0.00  0.00    +0.000 NA
ATOM     11  C   UNL     1      48.656   4.522  20.059  0.00  0.00    +0.000 C 
ATOM     12  C   UNL     1      49.612   5.400  19.223  0.00  0.00    +0.000 C 
ATOM     13  C   UNL     1      48.973   6.620  15.744  0.00  0.00    +0.000 A 
ATOM     14  H   UNL     1      49.454   2.712  19.569  0.00  0.00    +0.000 HD
ENDBRANCH   1   2
BRANCH   1  15
ATOM     15  C   UNL     1      48.574   6.544  12.905  0.00  0.00    +0.000 C 
BRANCH  15  19
ATOM     16  C   UNL     1      44.486   5.469  11.962  0.00  0.00    +0.000 A 
ATOM     17  C   UNL     1      45.094   6.552  11.318  0.00  0.00    +0.000 A 
ATOM     18  C   UNL     1      46.411   6.908  11.632  0.00  0.00    +0.000 A 
ATOM     19  C   UNL     1      47.139   6.186  12.589  0.00  0.00    +0.000 A 
ATOM     20  C   UNL     1      46.513   5.119  13.250  0.00  0.00    +0.000 A 
ATOM     21  C   UNL     1      45.196   4.764  12.941  0.00  0.00    +0.000 A 
BRANCH  16  23
ATOM     22  N   UNL     1      42.120   6.009  11.738  0.00  0.00    +0.000 N 
ATOM     23  C   UNL     1      43.093   5.050  11.655  0.00  0.00    +0.000 C 
ATOM     24  O   UNL     1      42.826   3.911  11.301  0.00  0.00    +0.000 OA
ATOM     25  H   UNL     1      41.197   5.738  11.422  0.00  0.00    +0.000 HD
ATOM     26  H   UNL     1      42.336   6.995  11.760  0.00  0.00    +0.000 HD
ENDBRANCH  16  23
ENDBRANCH  15  19
ENDBRANCH   1  15
TORSDOF 4
ENDMDL
MODEL 7
REMARK VINA RESULT:    -6.270      3.427      5.889
REMARK INTER + INTRA:          -8.638
REMARK INTER:                  -7.897
REMARK INTRA:                  -0.742
REMARK UNBOUND:                -0.902
REMARK  Name = 
REMARK  4 active torsions:
REMARK  status: ('A' for Active; 'I' for Inactive)
REMARK    1  A    between atoms: C_2  and  C_4
REMARK    2  A    between atoms: C_7  and  C_8
REMARK    3  A    between atoms: C_8  and  C_9
REMARK    4  A    between atoms: C_9  and  C_10
REMARK                            x       y       z     vdW  Elec       q    Type
REMARK                         _______ _______ _______ _____ _____    ______ ____
ROOT
ATOM      1  C   UNL     1      48.486   7.594  13.102  0.00  0.00    +0.000 C 
ENDROOT
BRANCH   1   2
ATOM      2  C   UNL     1      48.557   7.624  14.611  0.00  0.00    +0.000 A 
ATOM      3  C   UNL     1      48.387   8.809  15.318  0.00  0.00    +0.000 A 
ATOM      4  C   UNL     1      48.465   8.761  16.696  0.00  0.00    +0.000 A 
ATOM      5  N   UNL     1      48.711   7.636  17.402  0.00  0.00    +0.000 NA
ATOM      6  C   UNL     1      48.887   6.472  16.739  0.00  0.00    +0.000 A 
ATOM      7  N   UNL     1      49.181   5.336  17.464  0.00  0.00    +0.000 N 
ATOM      8  C   UNL     1      48.793   3.992  17.028  0.00  0.00    +0.000 C 
ATOM      9  C   UNL     1      47.878   3.306  18.069  0.00  0.00    +0.000 C 
ATOM     10  N   UNL     1      48.420   3.316  19.443  0.00  0.00    +0.000 NA
ATOM     11  C   UNL     1      48.679   4.723  19.825  0.00  0.00    +0.000 C 
ATOM     12  C   UNL     1      49.628   5.462  18.857  0.00  0.00    +0.000 C 
ATOM     13  C   UNL     1      48.817   6.454  15.341  0.00  0.00    +0.000 A 
ATOM     14  H   UNL     1      49.316   2.827  19.431  0.00  0.00    +0.000 HD
ENDBRANCH   1   2
BRANCH   1  15
ATOM     15  C   UNL     1      47.085   7.920  12.571  0.00  0.00    +0.000 C 
BRANCH  15  19
ATOM     16  C   UNL     1      44.819   4.345  11.652  0.00  0.00    +0.000 A 
ATOM     17  C   UNL     1      45.367   5.114  10.619  0.00  0.00    +0.000 A 
ATOM     18  C   UNL     1      46.089   6.277  10.916  0.00  0.00    +0.000 A 
ATOM     19  C   UNL     1      46.276   6.684  12.245  0.00  0.00    +0.000 A 
ATOM     20  C   UNL     1      45.700   5.922  13.272  0.00  0.00    +0.000 A 
ATOM     21  C   UNL     1      44.975   4.763  12.978  0.00  0.00    +0.000 A 
BRANCH  16  23
ATOM     22  N   UNL     1      43.753   2.306  12.460  0.00  0.00    +0.000 N 
ATOM     23  C   UNL     1      44.052   3.099  11.385  0.00  0.00    +0.000 C 
ATOM     24  O   UNL     1      43.664   2.811  10.262  0.00  0.00    +0.000 OA
ATOM     25  H   UNL     1      43.140   1.522  12.280  0.00  0.00    +0.000 HD
ATOM     26  H   UNL     1      43.818   2.642  13.409  0.00  0.00    +0.000 HD
ENDBRANCH  16  23
ENDBRANCH  15  19
ENDBRANCH   1  15
TORSDOF 4
ENDMDL
MODEL 8
REMARK VINA RESULT:    -6.112      4.450      8.716
REMARK INTER + INTRA:          -8.443
REMARK INTER:                  -7.610
REMARK INTRA:                  -0.834
REMARK UNBOUND:                -0.902
REMARK  Name = 
REMARK  4 active torsions:
REMARK  status: ('A' for Active; 'I' for Inactive)
REMARK    1  A    between atoms: C_2  and  C_4
REMARK    2  A    between atoms: C_7  and  C_8
REMARK    3  A    between atoms: C_8  and  C_9
REMARK    4  A    between atoms: C_9  and  C_10
REMARK                            x       y       z     vdW  Elec       q    Type
REMARK                         _______ _______ _______ _____ _____    ______ ____
ROOT
ATOM      1  C   UNL     1      49.208   7.200  13.813  0.00  0.00    +0.000 C 
ENDROOT
BRANCH   1   2
ATOM      2  C   UNL     1      47.750   7.318  13.438  0.00  0.00    +0.000 A 
ATOM      3  C   UNL     1      47.158   8.557  13.223  0.00  0.00    +0.000 A 
ATOM      4  C   UNL     1      45.820   8.588  12.882  0.00  0.00    +0.000 A 
ATOM      5  N   UNL     1      45.043   7.489  12.759  0.00  0.00    +0.000 NA
ATOM      6  C   UNL     1      45.592   6.273  12.970  0.00  0.00    +0.000 A 
ATOM      7  N   UNL     1      44.784   5.159  12.886  0.00  0.00    +0.000 N 
ATOM      8  C   UNL     1      45.281   3.844  12.472  0.00  0.00    +0.000 C 
ATOM      9  C   UNL     1      44.547   3.338  11.208  0.00  0.00    +0.000 C 
ATOM     10  N   UNL     1      43.075   3.372  11.317  0.00  0.00    +0.000 NA
ATOM     11  C   UNL     1      42.668   4.761  11.632  0.00  0.00    +0.000 C 
ATOM     12  C   UNL     1      43.324   5.320  12.913  0.00  0.00    +0.000 C 
ATOM     13  C   UNL     1      46.945   6.175  13.315  0.00  0.00    +0.000 A 
ATOM     14  H   UNL     1      42.804   2.782  12.103  0.00  0.00    +0.000 HD
ENDBRANCH   1   2
BRANCH   1  15
ATOM     15  C   UNL     1      49.565   8.023  15.057  0.00  0.00    +0.000 C 
BRANCH  15  19
ATOM     16  C   UNL     1      48.457   6.014  18.732  0.00  0.00    +0.000 A 
ATOM     17  C   UNL     1      48.339   7.405  18.628  0.00  0.00    +0.000 A 
ATOM     18  C   UNL     1      48.709   8.056  17.444  0.00  0.00    +0.000 A 
ATOM     19  C   UNL     1      49.198   7.328  16.350  0.00  0.00    +0.000 A 
ATOM     20  C   UNL     1      49.340   5.938  16.472  0.00  0.00    +0.000 A 
ATOM     21  C   UNL     1      48.975   5.286  17.654  0.00  0.00    +0.000 A 
BRANCH  16  23
ATOM     22  N   UNL     1      48.473   3.977  20.070  0.00  0.00    +0.000 N 
ATOM     23  C   UNL     1      48.070   5.281  19.965  0.00  0.00    +0.000 C 
ATOM     24  O   UNL     1      47.455   5.824  20.871  0.00  0.00    +0.000 OA
ATOM     25  H   UNL     1      48.298   3.524  20.958  0.00  0.00    +0.000 HD
ATOM     26  H   UNL     1      49.196   3.589  19.482  0.00  0.00    +0.000 HD
ENDBRANCH  16  23
ENDBRANCH  15  19
ENDBRANCH   1  15
TORSDOF 4
ENDMDL
MODEL 9
REMARK VINA RESULT:    -5.545      3.122      5.380
REMARK INTER + INTRA:          -7.744
REMARK INTER:                  -7.091
REMARK INTRA:                  -0.653
REMARK UNBOUND:                -0.902
REMARK  Name = 
REMARK  4 active torsions:
REMARK  status: ('A' for Active; 'I' for Inactive)
REMARK    1  A    between atoms: C_2  and  C_4
REMARK    2  A    between atoms: C_7  and  C_8
REMARK    3  A    between atoms: C_8  and  C_9
REMARK    4  A    between atoms: C_9  and  C_10
REMARK                            x       y       z     vdW  Elec       q    Type
REMARK                         _______ _______ _______ _____ _____    ______ ____
ROOT
ATOM      1  C   UNL     1      47.969   8.138  12.171  0.00  0.00    +0.000 C 
ENDROOT
BRANCH   1   2
ATOM      2  C   UNL     1      49.065   8.004  13.202  0.00  0.00    +0.000 A 
ATOM      3  C   UNL     1      50.263   8.698  13.075  0.00  0.00    +0.000 A 
ATOM      4  C   UNL     1      51.221   8.527  14.055  0.00  0.00    +0.000 A 
ATOM      5  N   UNL     1      51.074   7.713  15.124  0.00  0.00    +0.000 NA
ATOM      6  C   UNL     1      49.922   7.022  15.267  0.00  0.00    +0.000 A 
ATOM      7  N   UNL     1      49.796   6.161  16.337  0.00  0.00    +0.000 N 
ATOM      8  C   UNL     1      48.508   5.855  16.965  0.00  0.00    +0.000 C 
ATOM      9  C   UNL     1      48.505   6.247  18.461  0.00  0.00    +0.000 C 
ATOM     10  N   UNL     1      49.646   5.702  19.225  0.00  0.00    +0.000 NA
ATOM     11  C   UNL     1      50.895   6.154  18.573  0.00  0.00    +0.000 C 
ATOM     12  C   UNL     1      50.994   5.755  17.084  0.00  0.00    +0.000 C 
ATOM     13  C   UNL     1      48.911   7.155  14.309  0.00  0.00    +0.000 A 
ATOM     14  H   UNL     1      49.610   4.684  19.160  0.00  0.00    +0.000 HD
ENDBRANCH   1   2
BRANCH   1  15
ATOM     15  C   UNL     1      46.575   7.879  12.756  0.00  0.00    +0.000 C 
BRANCH  15  19
ATOM     16  C   UNL     1      44.807   4.149  11.443  0.00  0.00    +0.000 A 
ATOM     17  C   UNL     1      45.056   4.369  12.802  0.00  0.00    +0.000 A 
ATOM     18  C   UNL     1      45.639   5.570  13.226  0.00  0.00    +0.000 A 
ATOM     19  C   UNL     1      45.978   6.566  12.299  0.00  0.00    +0.000 A 
ATOM     20  C   UNL     1      45.751   6.327  10.936  0.00  0.00    +0.000 A 
ATOM     21  C   UNL     1      45.173   5.127  10.510  0.00  0.00    +0.000 A 
BRANCH  16  23
ATOM     22  N   UNL     1      43.360   2.223  11.812  0.00  0.00    +0.000 N 
ATOM     23  C   UNL     1      44.183   2.894  10.948  0.00  0.00    +0.000 C 
ATOM     24  O   UNL     1      44.359   2.494   9.806  0.00  0.00    +0.000 OA
ATOM     25  H   UNL     1      42.858   1.433  11.428  0.00  0.00    +0.000 HD
ATOM     26  H   UNL     1      42.986   2.656  12.643  0.00  0.00    +0.000 HD
ENDBRANCH  16  23
ENDBRANCH  15  19
ENDBRANCH   1  15
TORSDOF 4
ENDMDL
