MODEL 1
REMARK VINA RESULT:    -7.569      0.000      0.000
REMARK INTER + INTRA:          -8.652
REMARK INTER:                  -8.454
REMARK INTRA:                  -0.197
REMARK UNBOUND:                -0.197
REMARK  Name = 
REMARK  2 active torsions:
REMARK  status: ('A' for Active; 'I' for Inactive)
REMARK    1  A    between atoms: N_5  and  C_6
REMARK    2  A    between atoms: C_6  and  C_7
REMARK                            x       y       z     vdW  Elec       q    Type
REMARK                         _______ _______ _______ _____ _____    ______ ____
ROOT
ATOM      1  C   UNL     1      44.718   4.486  11.551  0.00  0.00    +0.000 A 
ATOM      2  C   UNL     1      45.035   3.526  12.492  0.00  0.00    +0.000 A 
ATOM      3  N   UNL     1      46.084   3.657  13.324  0.00  0.00    +0.000 NA
ATOM      4  N   UNL     1      46.875   4.784  13.251  0.00  0.00    +0.000 NA
ATOM      5  C   UNL     1      46.594   5.785  12.389  0.00  0.00    +0.000 A 
ATOM      6  N   UNL     1      47.415   6.903  12.278  0.00  0.00    +0.000 N 
ATOM      7  C   UNL     1      48.797   6.805  12.778  0.00  0.00    +0.000 C 
ATOM      8  C   UNL     1      49.034   7.623  14.063  0.00  0.00    +0.000 C 
ATOM      9  N   UNL     1      48.549   9.017  13.970  0.00  0.00    +0.000 NA
ATOM     10  C   UNL     1      47.109   8.973  13.655  0.00  0.00    +0.000 C 
ATOM     11  C   UNL     1      46.786   8.230  12.339  0.00  0.00    +0.000 C 
ATOM     12  C   UNL     1      45.504   5.642  11.529  0.00  0.00    +0.000 A 
ATOM     13  H   UNL     1      49.033   9.467  13.193  0.00  0.00    +0.000 HD
ENDROOT
BRANCH   1  14
ATOM     14  C   UNL     1      43.598   4.274  10.574  0.00  0.00    +0.000 C 
BRANCH  14  19
ATOM     15  C   UNL     1      46.725   2.084   7.516  0.00  0.00    +0.000 A 
ATOM     16  C   UNL     1      45.779   1.641   8.408  0.00  0.00    +0.000 A 
ATOM     17  N   UNL     1      44.882   2.453   8.996  0.00  0.00    +0.000 NA
ATOM     18  C   UNL     1      44.928   3.756   8.678  0.00  0.00    +0.000 A 
ATOM     19  N   UNL     1      44.018   4.645   9.242  0.00  0.00    +0.000 N 
ATOM     20  N   UNL     1      45.823   4.284   7.835  0.00  0.00    +0.000 NA
ATOM     21  C   UNL     1      46.699   3.431   7.265  0.00  0.00    +0.000 A 
ATOM     22  H   UNL     1      44.424   5.567   9.141  0.00  0.00    +0.000 HD
ENDBRANCH  14  19
ENDBRANCH   1  14
TORSDOF 2
ENDMDL
MODEL 2
REMARK VINA RESULT:    -6.817      3.420      4.357
REMARK INTER + INTRA:          -7.811
REMARK INTER:                  -7.548
REMARK INTRA:                  -0.263
REMARK UNBOUND:                -0.197
REMARK  Name = 
REMARK  2 active torsions:
REMARK  status: ('A' for Active; 'I' for Inactive)
REMARK    1  A    between atoms: N_5  and  C_6
REMARK    2  A    between atoms: C_6  and  C_7
REMARK                            x       y       z     vdW  Elec       q    Type
REMARK                         _______ _______ _______ _____ _____    ______ ____
ROOT
ATOM      1  C   UNL     1      46.539   4.906  13.833  0.00  0.00    +0.000 A 
ATOM      2  C   UNL     1      47.319   5.925  13.323  0.00  0.00    +0.000 A 
ATOM      3  N   UNL     1      48.383   6.413  13.985  0.00  0.00    +0.000 NA
ATOM      4  N   UNL     1      48.724   5.884  15.212  0.00  0.00    +0.000 NA
ATOM      5  C   UNL     1      48.036   4.852  15.747  0.00  0.00    +0.000 A 
ATOM      6  N   UNL     1      48.345   4.345  17.006  0.00  0.00    +0.000 N 
ATOM      7  C   UNL     1      49.127   5.190  17.924  0.00  0.00    +0.000 C 
ATOM      8  C   UNL     1      50.569   4.682  18.133  0.00  0.00    +0.000 C 
ATOM      9  N   UNL     1      50.642   3.244  18.465  0.00  0.00    +0.000 NA
ATOM     10  C   UNL     1      49.994   2.494  17.372  0.00  0.00    +0.000 C 
ATOM     11  C   UNL     1      48.519   2.892  17.140  0.00  0.00    +0.000 C 
ATOM     12  C   UNL     1      46.933   4.352  15.054  0.00  0.00    +0.000 A 
ATOM     13  H   UNL     1      50.105   3.090  19.319  0.00  0.00    +0.000 HD
ENDROOT
BRANCH   1  14
ATOM     14  C   UNL     1      45.304   4.442  13.117  0.00  0.00    +0.000 C 
BRANCH  14  19
ATOM     15  C   UNL     1      44.885   3.035   8.451  0.00  0.00    +0.000 A 
ATOM     16  C   UNL     1      44.460   2.525   9.653  0.00  0.00    +0.000 A 
ATOM     17  N   UNL     1      44.519   3.212  10.809  0.00  0.00    +0.000 NA
ATOM     18  C   UNL     1      45.019   4.456  10.761  0.00  0.00    +0.000 A 
ATOM     19  N   UNL     1      45.095   5.223  11.920  0.00  0.00    +0.000 N 
ATOM     20  N   UNL     1      45.475   5.033   9.642  0.00  0.00    +0.000 NA
ATOM     21  C   UNL     1      45.389   4.309   8.508  0.00  0.00    +0.000 A 
ATOM     22  H   UNL     1      45.777   5.949  11.735  0.00  0.00    +0.000 HD
ENDBRANCH  14  19
ENDBRANCH   1  14
TORSDOF 2
ENDMDL
MODEL 3
REMARK VINA RESULT:    -6.771      1.401      2.023
REMARK INTER + INTRA:          -7.760
REMARK INTER:                  -7.444
REMARK INTRA:                  -0.316
REMARK UNBOUND:                -0.197
REMARK  Name = 
REMARK  2 active torsions:
REMARK  status: ('A' for Active; 'I' for Inactive)
REMARK    1  A    between atoms: N_5  and  C_6
REMARK    2  A    between atoms: C_6  and  C_7
REMARK                            x       y       z     vdW  Elec       q    Type
REMARK                         _______ _______ _______ _____ _____    ______ ____
ROOT
ATOM      1  C   UNL     1      44.761   3.793  11.024  0.00  0.00    +0.000 A 
ATOM      2  C   UNL     1      44.631   3.282  12.301  0.00  0.00    +0.000 A 
ATOM      3  N   UNL     1      45.039   3.960  13.389  0.00  0.00    +0.000 NA
ATOM      4  N   UNL     1      45.603   5.210  13.242  0.00  0.00    +0.000 NA
ATOM      5  C   UNL     1      45.715   5.790  12.027  0.00  0.00    +0.000 A 
ATOM      6  N   UNL     1      46.326   7.031  11.867  0.00  0.00    +0.000 N 
ATOM      7  C   UNL     1      47.218   7.511  12.935  0.00  0.00    +0.000 C 
ATOM      8  C   UNL     1      46.623   8.688  13.736  0.00  0.00    +0.000 C 
ATOM      9  N   UNL     1      46.103   9.776  12.881  0.00  0.00    +0.000 NA
ATOM     10  C   UNL     1      45.079   9.200  11.989  0.00  0.00    +0.000 C 
ATOM     11  C   UNL     1      45.610   8.057  11.095  0.00  0.00    +0.000 C 
ATOM     12  C   UNL     1      45.289   5.081  10.904  0.00  0.00    +0.000 A 
ATOM     13  H   UNL     1      46.873  10.119  12.305  0.00  0.00    +0.000 HD
ENDROOT
BRANCH   1  14
ATOM     14  C   UNL     1      44.381   2.979   9.821  0.00  0.00    +0.000 C 
BRANCH  14  19
ATOM     15  C   UNL     1      47.246   2.385   5.901  0.00  0.00    +0.000 A 
ATOM     16  C   UNL     1      46.772   3.473   6.593  0.00  0.00    +0.000 A 
ATOM     17  N   UNL     1      46.157   3.379   7.785  0.00  0.00    +0.000 NA
ATOM     18  C   UNL     1      46.012   2.152   8.309  0.00  0.00    +0.000 A 
ATOM     19  N   UNL     1      45.396   1.988   9.546  0.00  0.00    +0.000 N 
ATOM     20  N   UNL     1      46.424   1.031   7.703  0.00  0.00    +0.000 NA
ATOM     21  C   UNL     1      47.042   1.176   6.513  0.00  0.00    +0.000 A 
ATOM     22  H   UNL     1      45.100   1.020   9.589  0.00  0.00    +0.000 HD
ENDBRANCH  14  19
ENDBRANCH   1  14
TORSDOF 2
ENDMDL
MODEL 4
REMARK VINA RESULT:    -6.566      3.070      7.092
REMARK INTER + INTRA:          -7.531
REMARK INTER:                  -7.228
REMARK INTRA:                  -0.303
REMARK UNBOUND:                -0.197
REMARK  Name = 
REMARK  2 active torsions:
REMARK  status: ('A' for Active; 'I' for Inactive)
REMARK    1  A    between atoms: N_5  and  C_6
REMARK    2  A    between atoms: C_6  and  C_7
REMARK                            x       y       z     vdW  Elec       q    Type
REMARK                         _______ _______ _______ _____ _____    ______ ____
ROOT
ATOM      1  C   UNL     1      48.053   6.694  13.754  0.00  0.00    +0.000 A 
ATOM      2  C   UNL     1      48.347   7.492  12.667  0.00  0.00    +0.000 A 
ATOM      3  N   UNL     1      47.698   7.375  11.494  0.00  0.00    +0.000 NA
ATOM      4  N   UNL     1      46.698   6.435  11.360  0.00  0.00    +0.000 NA
ATOM      5  C   UNL     1      46.324   5.655  12.397  0.00  0.00    +0.000 A 
ATOM      6  N   UNL     1      45.349   4.672  12.255  0.00  0.00    +0.000 N 
ATOM      7  C   UNL     1      45.032   4.196  10.899  0.00  0.00    +0.000 C 
ATOM      8  C   UNL     1      43.646   4.659  10.404  0.00  0.00    +0.000 C 
ATOM      9  N   UNL     1      42.561   4.404  11.375  0.00  0.00    +0.000 NA
ATOM     10  C   UNL     1      42.909   5.096  12.631  0.00  0.00    +0.000 C 
ATOM     11  C   UNL     1      44.255   4.639  13.237  0.00  0.00    +0.000 C 
ATOM     12  C   UNL     1      47.003   5.782  13.610  0.00  0.00    +0.000 A 
ATOM     13  H   UNL     1      42.533   3.401  11.560  0.00  0.00    +0.000 HD
ENDROOT
BRANCH   1  14
ATOM     14  C   UNL     1      48.853   6.782  15.021  0.00  0.00    +0.000 C 
BRANCH  14  19
ATOM     15  C   UNL     1      49.283   2.940  18.016  0.00  0.00    +0.000 A 
ATOM     16  C   UNL     1      50.172   3.787  17.402  0.00  0.00    +0.000 A 
ATOM     17  N   UNL     1      49.802   4.919  16.777  0.00  0.00    +0.000 NA
ATOM     18  C   UNL     1      48.494   5.219  16.770  0.00  0.00    +0.000 A 
ATOM     19  N   UNL     1      48.048   6.384  16.152  0.00  0.00    +0.000 N 
ATOM     20  N   UNL     1      47.550   4.448  17.324  0.00  0.00    +0.000 NA
ATOM     21  C   UNL     1      47.970   3.326  17.944  0.00  0.00    +0.000 A 
ATOM     22  H   UNL     1      47.060   6.249  15.972  0.00  0.00    +0.000 HD
ENDBRANCH  14  19
ENDBRANCH   1  14
TORSDOF 2
ENDMDL
MODEL 5
REMARK VINA RESULT:    -6.441      3.657      6.771
REMARK INTER + INTRA:          -7.392
REMARK INTER:                  -7.067
REMARK INTRA:                  -0.325
REMARK UNBOUND:                -0.197
REMARK  Name = 
REMARK  2 active torsions:
REMARK  status: ('A' for Active; 'I' for Inactive)
REMARK    1  A    between atoms: N_5  and  C_6
REMARK    2  A    between atoms: C_6  and  C_7
REMARK                            x       y       z     vdW  Elec       q    Type
REMARK                         _______ _______ _______ _____ _____    ______ ____
ROOT
ATOM      1  C   UNL     1      45.754   8.346  12.402  0.00  0.00    +0.000 A 
ATOM      2  C   UNL     1      46.810   7.897  13.169  0.00  0.00    +0.000 A 
ATOM      3  N   UNL     1      46.896   6.625  13.598  0.00  0.00    +0.000 NA
ATOM      4  N   UNL     1      45.907   5.725  13.262  0.00  0.00    +0.000 NA
ATOM      5  C   UNL     1      44.871   6.082  12.473  0.00  0.00    +0.000 A 
ATOM      6  N   UNL     1      43.845   5.192  12.170  0.00  0.00    +0.000 N 
ATOM      7  C   UNL     1      43.664   4.016  13.038  0.00  0.00    +0.000 C 
ATOM      8  C   UNL     1      44.070   2.694  12.356  0.00  0.00    +0.000 C 
ATOM      9  N   UNL     1      43.478   2.519  11.013  0.00  0.00    +0.000 NA
ATOM     10  C   UNL     1      43.894   3.666  10.184  0.00  0.00    +0.000 C 
ATOM     11  C   UNL     1      43.463   5.034  10.760  0.00  0.00    +0.000 C 
ATOM     12  C   UNL     1      44.789   7.404  12.033  0.00  0.00    +0.000 A 
ATOM     13  H   UNL     1      42.463   2.547  11.111  0.00  0.00    +0.000 HD
ENDROOT
BRANCH   1  14
ATOM     14  C   UNL     1      45.635   9.791  12.014  0.00  0.00    +0.000 C 
BRANCH  14  19
ATOM     15  C   UNL     1      42.103  11.846   9.326  0.00  0.00    +0.000 A 
ATOM     16  C   UNL     1      42.982  10.809   9.132  0.00  0.00    +0.000 A 
ATOM     17  N   UNL     1      43.736  10.286  10.116  0.00  0.00    +0.000 NA
ATOM     18  C   UNL     1      43.604  10.817  11.342  0.00  0.00    +0.000 A 
ATOM     19  N   UNL     1      44.345  10.311  12.405  0.00  0.00    +0.000 N 
ATOM     20  N   UNL     1      42.788  11.839  11.626  0.00  0.00    +0.000 NA
ATOM     21  C   UNL     1      42.048  12.327  10.609  0.00  0.00    +0.000 A 
ATOM     22  H   UNL     1      44.351  11.033  13.115  0.00  0.00    +0.000 HD
ENDBRANCH  14  19
ENDBRANCH   1  14
TORSDOF 2
ENDMDL
MODEL 6
REMARK VINA RESULT:    -6.150      3.029      7.448
REMARK INTER + INTRA:          -7.066
REMARK INTER:                  -6.995
REMARK INTRA:                  -0.071
REMARK UNBOUND:                -0.197
REMARK  Name = 
REMARK  2 active torsions:
REMARK  status: ('A' for Active; 'I' for Inactive)
REMARK    1  A    between atoms: N_5  and  C_6
REMARK    2  A    between atoms: C_6  and  C_7
REMARK                            x       y       z     vdW  Elec       q    Type
REMARK                         _______ _______ _______ _____ _____    ______ ____
ROOT
ATOM      1  C   UNL     1      47.633   5.871  14.330  0.00  0.00    +0.000 A 
ATOM      2  C   UNL     1      47.391   4.681  14.987  0.00  0.00    +0.000 A 
ATOM      3  N   UNL     1      46.420   3.833  14.601  0.00  0.00    +0.000 NA
ATOM      4  N   UNL     1      45.636   4.146  13.510  0.00  0.00    +0.000 NA
ATOM      5  C   UNL     1      45.850   5.269  12.791  0.00  0.00    +0.000 A 
ATOM      6  N   UNL     1      45.033   5.615  11.719  0.00  0.00    +0.000 N 
ATOM      7  C   UNL     1      43.700   4.996  11.632  0.00  0.00    +0.000 C 
ATOM      8  C   UNL     1      43.583   3.968  10.487  0.00  0.00    +0.000 C 
ATOM      9  N   UNL     1      44.071   4.478   9.188  0.00  0.00    +0.000 NA
ATOM     10  C   UNL     1      45.478   4.886   9.363  0.00  0.00    +0.000 C 
ATOM     11  C   UNL     1      45.677   5.970  10.446  0.00  0.00    +0.000 C 
ATOM     12  C   UNL     1      46.859   6.143  13.198  0.00  0.00    +0.000 A 
ATOM     13  H   UNL     1      43.526   5.307   8.951  0.00  0.00    +0.000 HD
ENDROOT
BRANCH   1  14
ATOM     14  C   UNL     1      48.661   6.841  14.836  0.00  0.00    +0.000 C 
BRANCH  14  19
ATOM     15  C   UNL     1      51.085   4.759  18.538  0.00  0.00    +0.000 A 
ATOM     16  C   UNL     1      51.436   5.212  17.291  0.00  0.00    +0.000 A 
ATOM     17  N   UNL     1      50.619   5.949  16.516  0.00  0.00    +0.000 NA
ATOM     18  C   UNL     1      49.408   6.249  17.009  0.00  0.00    +0.000 A 
ATOM     19  N   UNL     1      48.522   7.020  16.262  0.00  0.00    +0.000 N 
ATOM     20  N   UNL     1      48.969   5.839  18.205  0.00  0.00    +0.000 NA
ATOM     21  C   UNL     1      49.824   5.108  18.948  0.00  0.00    +0.000 A 
ATOM     22  H   UNL     1      47.601   6.846  16.648  0.00  0.00    +0.000 HD
ENDBRANCH  14  19
ENDBRANCH   1  14
TORSDOF 2
ENDMDL
MODEL 7
REMARK VINA RESULT:    -6.146      3.227      5.146
REMARK INTER + INTRA:          -7.062
REMARK INTER:                  -6.796
REMARK INTRA:                  -0.266
REMARK UNBOUND:                -0.197
REMARK  Name = 
REMARK  2 active torsions:
REMARK  status: ('A' for Active; 'I' for Inactive)
REMARK    1  A    between atoms: N_5  and  C_6
REMARK    2  A    between atoms: C_6  and  C_7
REMARK                            x       y       z     vdW  Elec       q    Type
REMARK                         _______ _______ _______ _____ _____    ______ ____
ROOT
ATOM      1  C   UNL     1      47.979   6.506  13.311  0.00  0.00    +0.000 A 
ATOM      2  C   UNL     1      49.182   7.184  13.337  0.00  0.00    +0.000 A 
ATOM      3  N   UNL     1      49.978   7.190  14.421  0.00  0.00    +0.000 NA
ATOM      4  N   UNL     1      49.597   6.496  15.550  0.00  0.00    +0.000 NA
ATOM      5  C   UNL     1      48.458   5.771  15.577  0.00  0.00    +0.000 A 
ATOM      6  N   UNL     1      48.044   5.107  16.729  0.00  0.00    +0.000 N 
ATOM      7  C   UNL     1      48.609   5.534  18.020  0.00  0.00    +0.000 C 
ATOM      8  C   UNL     1      49.591   4.506  18.620  0.00  0.00    +0.000 C 
ATOM      9  N   UNL     1      49.053   3.129  18.649  0.00  0.00    +0.000 NA
ATOM     10  C   UNL     1      48.705   2.751  17.267  0.00  0.00    +0.000 C 
ATOM     11  C   UNL     1      47.668   3.691  16.611  0.00  0.00    +0.000 C 
ATOM     12  C   UNL     1      47.638   5.770  14.449  0.00  0.00    +0.000 A 
ATOM     13  H   UNL     1      48.197   3.138  19.204  0.00  0.00    +0.000 HD
ENDROOT
BRANCH   1  14
ATOM     14  C   UNL     1      47.067   6.590  12.121  0.00  0.00    +0.000 C 
BRANCH  14  19
ATOM     15  C   UNL     1      43.185   3.692  11.453  0.00  0.00    +0.000 A 
ATOM     16  C   UNL     1      44.516   3.475  11.709  0.00  0.00    +0.000 A 
ATOM     17  N   UNL     1      45.368   4.453  12.065  0.00  0.00    +0.000 NA
ATOM     18  C   UNL     1      44.870   5.695  12.173  0.00  0.00    +0.000 A 
ATOM     19  N   UNL     1      45.697   6.748  12.551  0.00  0.00    +0.000 N 
ATOM     20  N   UNL     1      43.592   6.008  11.927  0.00  0.00    +0.000 NA
ATOM     21  C   UNL     1      42.774   4.993  11.579  0.00  0.00    +0.000 A 
ATOM     22  H   UNL     1      45.229   7.596  12.252  0.00  0.00    +0.000 HD
ENDBRANCH  14  19
ENDBRANCH   1  14
TORSDOF 2
ENDMDL
MODEL 8
REMARK VINA RESULT:    -5.858      1.916      6.437
REMARK INTER + INTRA:          -6.741
REMARK INTER:                  -6.412
REMARK INTRA:                  -0.329
REMARK UNBOUND:                -0.197
REMARK  Name = 
REMARK  2 active torsions:
REMARK  status: ('A' for Active; 'I' for Inactive)
REMARK    1  A    between atoms: N_5  and  C_6
REMARK    2  A    between atoms: C_6  and  C_7
REMARK                            x       y       z     vdW  Elec       q    Type
REMARK                         _______ _______ _______ _____ _____    ______ ____
ROOT
ATOM      1  C   UNL     1      47.072   5.946  13.567  0.00  0.00    +0.000 A 
ATOM      2  C   UNL     1      47.195   4.797  14.323  0.00  0.00    +0.000 A 
ATOM      3  N   UNL     1      46.574   3.651  13.992  0.00  0.00    +0.000 NA
ATOM      4  N   UNL     1      45.789   3.604  12.859  0.00  0.00    +0.000 NA
ATOM      5  C   UNL     1      45.664   4.676  12.046  0.00  0.00    +0.000 A 
ATOM      6  N   UNL     1      44.836   4.650  10.928  0.00  0.00    +0.000 N 
ATOM      7  C   UNL     1      43.782   3.624  10.865  0.00  0.00    +0.000 C 
ATOM      8  C   UNL     1      44.066   2.529   9.816  0.00  0.00    +0.000 C 
ATOM      9  N   UNL     1      44.429   3.069   8.488  0.00  0.00    +0.000 NA
ATOM     10  C   UNL     1      45.616   3.927   8.659  0.00  0.00    +0.000 C 
ATOM     11  C   UNL     1      45.396   5.097   9.645  0.00  0.00    +0.000 C 
ATOM     12  C   UNL     1      46.312   5.861  12.397  0.00  0.00    +0.000 A 
ATOM     13  H   UNL     1      43.658   3.652   8.163  0.00  0.00    +0.000 HD
ENDROOT
BRANCH   1  14
ATOM     14  C   UNL     1      47.702   7.235  14.008  0.00  0.00    +0.000 C 
BRANCH  14  19
ATOM     15  C   UNL     1      49.888  10.622  11.238  0.00  0.00    +0.000 A 
ATOM     16  C   UNL     1      50.076   9.278  11.444  0.00  0.00    +0.000 A 
ATOM     17  N   UNL     1      49.201   8.503  12.110  0.00  0.00    +0.000 NA
ATOM     18  C   UNL     1      48.093   9.093  12.584  0.00  0.00    +0.000 A 
ATOM     19  N   UNL     1      47.142   8.344  13.271  0.00  0.00    +0.000 N 
ATOM     20  N   UNL     1      47.830  10.399  12.450  0.00  0.00    +0.000 NA
ATOM     21  C   UNL     1      48.733  11.134  11.769  0.00  0.00    +0.000 A 
ATOM     22  H   UNL     1      46.593   9.006  13.806  0.00  0.00    +0.000 HD
ENDBRANCH  14  19
ENDBRANCH   1  14
TORSDOF 2
ENDMDL
MODEL 9
REMARK VINA RESULT:    -5.803      3.482      6.362
REMARK INTER + INTRA:          -6.679
REMARK INTER:                  -6.478
REMARK INTRA:                  -0.201
REMARK UNBOUND:                -0.197
REMARK  Name = 
REMARK  2 active torsions:
REMARK  status: ('A' for Active; 'I' for Inactive)
REMARK    1  A    between atoms: N_5  and  C_6
REMARK    2  A    between atoms: C_6  and  C_7
REMARK                            x       y       z     vdW  Elec       q    Type
REMARK                         _______ _______ _______ _____ _____    ______ ____
ROOT
ATOM      1  C   UNL     1      46.516   6.420  12.898  0.00  0.00    +0.000 A 
ATOM      2  C   UNL     1      45.677   5.761  12.022  0.00  0.00    +0.000 A 
ATOM      3  N   UNL     1      44.799   6.414  11.240  0.00  0.00    +0.000 NA
ATOM      4  N   UNL     1      44.728   7.790  11.298  0.00  0.00    +0.000 NA
ATOM      5  C   UNL     1      45.553   8.503  12.095  0.00  0.00    +0.000 A 
ATOM      6  N   UNL     1      45.454   9.888  12.194  0.00  0.00    +0.000 N 
ATOM      7  C   UNL     1      44.197  10.528  11.772  0.00  0.00    +0.000 C 
ATOM      8  C   UNL     1      44.338  11.330  10.462  0.00  0.00    +0.000 C 
ATOM      9  N   UNL     1      45.489  12.258  10.462  0.00  0.00    +0.000 NA
ATOM     10  C   UNL     1      46.709  11.463  10.705  0.00  0.00    +0.000 C 
ATOM     11  C   UNL     1      46.682  10.680  12.036  0.00  0.00    +0.000 C 
ATOM     12  C   UNL     1      46.460   7.817  12.903  0.00  0.00    +0.000 A 
ATOM     13  H   UNL     1      45.371  12.906  11.241  0.00  0.00    +0.000 HD
ENDROOT
BRANCH   1  14
ATOM     14  C   UNL     1      47.421   5.662  13.825  0.00  0.00    +0.000 C 
BRANCH  14  19
ATOM     15  C   UNL     1      48.844   3.506  17.978  0.00  0.00    +0.000 A 
ATOM     16  C   UNL     1      49.229   4.635  17.297  0.00  0.00    +0.000 A 
ATOM     17  N   UNL     1      48.537   5.145  16.263  0.00  0.00    +0.000 NA
ATOM     18  C   UNL     1      47.415   4.506  15.897  0.00  0.00    +0.000 A 
ATOM     19  N   UNL     1      46.647   4.991  14.843  0.00  0.00    +0.000 N 
ATOM     20  N   UNL     1      46.969   3.390  16.486  0.00  0.00    +0.000 NA
ATOM     21  C   UNL     1      47.693   2.919  17.523  0.00  0.00    +0.000 A 
ATOM     22  H   UNL     1      46.073   4.217  14.531  0.00  0.00    +0.000 HD
ENDBRANCH  14  19
ENDBRANCH   1  14
TORSDOF 2
ENDMDL
