MODEL 1
REMARK VINA RESULT:    -7.494      0.000      0.000
REMARK INTER + INTRA:         -10.359
REMARK INTER:                  -9.684
REMARK INTRA:                  -0.674
REMARK UNBOUND:                -0.674
REMARK  Name = 
REMARK  5 active torsions:
REMARK  status: ('A' for Active; 'I' for Inactive)
REMARK    1  A    between atoms: C_2  and  C_4
REMARK    2  A    between atoms: C_8  and  C_9
REMARK    3  A    between atoms: C_9  and  C_10
REMARK    4  A    between atoms: C_10  and  C_11
REMARK    5  A    between atoms: C_16  and  N_17
REMARK                            x       y       z     vdW  Elec       q    Type
REMARK                         _______ _______ _______ _____ _____    ______ ____
ROOT
ATOM      1  C   UNL     1      44.673   3.077  11.800  0.00  0.00    +0.000 C 
ENDROOT
BRANCH   1   2
ATOM      2  C   UNL     1      45.542   4.141  12.440  0.00  0.00    +0.000 A 
ATOM      3  C   UNL     1      45.567   5.461  11.979  0.00  0.00    +0.000 A 
ATOM      4  C   UNL     1      46.336   6.408  12.636  0.00  0.00    +0.000 A 
ATOM      5  F   UNL     1      46.364   7.664  12.172  0.00  0.00    +0.000 F 
ATOM      6  C   UNL     1      47.071   6.079  13.766  0.00  0.00    +0.000 A 
ATOM      7  C   UNL     1      47.066   4.776  14.281  0.00  0.00    +0.000 A 
ATOM      8  C   UNL     1      46.298   3.821  13.589  0.00  0.00    +0.000 A 
BRANCH   7   9
ATOM      9  N   UNL     1      47.795   4.470  15.412  0.00  0.00    +0.000 N 
ATOM     10  C   UNL     1      47.858   3.127  16.005  0.00  0.00    +0.000 C 
ATOM     11  C   UNL     1      47.252   3.139  17.415  0.00  0.00    +0.000 C 
ATOM     12  O   UNL     1      47.887   4.124  18.250  0.00  0.00    +0.000 OA
ATOM     13  C   UNL     1      47.723   5.435  17.683  0.00  0.00    +0.000 C 
ATOM     14  C   UNL     1      48.336   5.536  16.275  0.00  0.00    +0.000 C 
ENDBRANCH   7   9
ENDBRANCH   1   2
BRANCH   1  15
ATOM     15  C   UNL     1      44.047   3.474  10.455  0.00  0.00    +0.000 C 
BRANCH  15  20
ATOM     16  C   UNL     1      46.379   2.086   7.778  0.00  0.00    +0.000 A 
ATOM     17  C   UNL     1      46.865   3.263   7.199  0.00  0.00    +0.000 A 
ATOM     18  C   UNL     1      46.439   4.503   7.677  0.00  0.00    +0.000 A 
ATOM     19  C   UNL     1      45.527   4.570   8.729  0.00  0.00    +0.000 A 
ATOM     20  C   UNL     1      45.028   3.398   9.314  0.00  0.00    +0.000 A 
ATOM     21  C   UNL     1      45.451   2.156   8.824  0.00  0.00    +0.000 A 
BRANCH  16  23
ATOM     22  N   UNL     1      47.329   0.657   6.049  0.00  0.00    +0.000 N 
ATOM     23  C   UNL     1      46.804   0.742   7.309  0.00  0.00    +0.000 C 
ATOM     24  O   UNL     1      46.731  -0.246   8.028  0.00  0.00    +0.000 OA
ATOM     25  H   UNL     1      47.724  -0.238   5.793  0.00  0.00    +0.000 HD
ATOM     26  H   UNL     1      47.646   1.471   5.543  0.00  0.00    +0.000 HD
ENDBRANCH  16  23
ENDBRANCH  15  20
ENDBRANCH   1  15
TORSDOF 5
ENDMDL
MODEL 2
REMARK VINA RESULT:    -7.464      2.872      3.975
REMARK INTER + INTRA:         -10.320
REMARK INTER:                  -9.371
REMARK INTRA:                  -0.949
REMARK UNBOUND:                -0.674
REMARK  Name = 
REMARK  5 active torsions:
REMARK  status: ('A' for Active; 'I' for Inactive)
REMARK    1  A    between atoms: C_2  and  C_4
REMARK    2  A    between atoms: C_8  and  C_9
REMARK    3  A    between atoms: C_9  and  C_10
REMARK    4  A    between atoms: C_10  and  C_11
REMARK    5  A    between atoms: C_16  and  N_17
REMARK                            x       y       z     vdW  Elec       q    Type
REMARK                         _______ _______ _______ _____ _____    ______ ____
ROOT
ATOM      1  C   UNL     1      44.024   4.593  10.367  0.00  0.00    +0.000 C 
ENDROOT
BRANCH   1   2
ATOM      2  C   UNL     1      44.954   4.842  11.538  0.00  0.00    +0.000 A 
ATOM      3  C   UNL     1      45.552   3.798  12.251  0.00  0.00    +0.000 A 
ATOM      4  C   UNL     1      46.439   4.081  13.276  0.00  0.00    +0.000 A 
ATOM      5  F   UNL     1      46.991   3.071  13.962  0.00  0.00    +0.000 F 
ATOM      6  C   UNL     1      46.769   5.389  13.602  0.00  0.00    +0.000 A 
ATOM      7  C   UNL     1      46.213   6.472  12.907  0.00  0.00    +0.000 A 
ATOM      8  C   UNL     1      45.297   6.167  11.883  0.00  0.00    +0.000 A 
BRANCH   7   9
ATOM      9  N   UNL     1      46.561   7.765  13.237  0.00  0.00    +0.000 N 
ATOM     10  C   UNL     1      45.730   8.938  12.934  0.00  0.00    +0.000 C 
ATOM     11  C   UNL     1      46.465   9.876  11.967  0.00  0.00    +0.000 C 
ATOM     12  O   UNL     1      47.755  10.252  12.480  0.00  0.00    +0.000 OA
ATOM     13  C   UNL     1      48.571   9.084  12.676  0.00  0.00    +0.000 C 
ATOM     14  C   UNL     1      47.933   8.094  13.666  0.00  0.00    +0.000 C 
ENDBRANCH   7   9
ENDBRANCH   1   2
BRANCH   1  15
ATOM     15  C   UNL     1      44.694   4.644   8.987  0.00  0.00    +0.000 C 
BRANCH  15  20
ATOM     16  C   UNL     1      46.842   2.015   7.252  0.00  0.00    +0.000 A 
ATOM     17  C   UNL     1      46.316   0.833   7.787  0.00  0.00    +0.000 A 
ATOM     18  C   UNL     1      45.266   0.890   8.704  0.00  0.00    +0.000 A 
ATOM     19  C   UNL     1      44.744   2.123   9.093  0.00  0.00    +0.000 A 
ATOM     20  C   UNL     1      45.266   3.314   8.570  0.00  0.00    +0.000 A 
ATOM     21  C   UNL     1      46.326   3.252   7.657  0.00  0.00    +0.000 A 
BRANCH  16  23
ATOM     22  N   UNL     1      48.950   2.931   6.445  0.00  0.00    +0.000 N 
ATOM     23  C   UNL     1      47.956   2.008   6.270  0.00  0.00    +0.000 C 
ATOM     24  O   UNL     1      48.011   1.188   5.363  0.00  0.00    +0.000 OA
ATOM     25  H   UNL     1      49.756   2.834   5.843  0.00  0.00    +0.000 HD
ATOM     26  H   UNL     1      49.071   3.431   7.313  0.00  0.00    +0.000 HD
ENDBRANCH  16  23
ENDBRANCH  15  20
ENDBRANCH   1  15
TORSDOF 5
ENDMDL
MODEL 3
REMARK VINA RESULT:    -7.296      2.588      3.775
REMARK INTER + INTRA:         -10.103
REMARK INTER:                  -9.495
REMARK INTRA:                  -0.608
REMARK UNBOUND:                -0.674
REMARK  Name = 
REMARK  5 active torsions:
REMARK  status: ('A' for Active; 'I' for Inactive)
REMARK    1  A    between atoms: C_2  and  C_4
REMARK    2  A    between atoms: C_8  and  C_9
REMARK    3  A    between atoms: C_9  and  C_10
REMARK    4  A    between atoms: C_10  and  C_11
REMARK    5  A    between atoms: C_16  and  N_17
REMARK                            x       y       z     vdW  Elec       q    Type
REMARK                         _______ _______ _______ _____ _____    ______ ____
ROOT
ATOM      1  C   UNL     1      44.678   2.795  11.820  0.00  0.00    +0.000 C 
ENDROOT
BRANCH   1   2
ATOM      2  C   UNL     1      45.479   3.874  12.521  0.00  0.00    +0.000 A 
ATOM      3  C   UNL     1      46.224   3.618  13.676  0.00  0.00    +0.000 A 
ATOM      4  C   UNL     1      46.985   4.626  14.244  0.00  0.00    +0.000 A 
ATOM      5  F   UNL     1      47.680   4.372  15.361  0.00  0.00    +0.000 F 
ATOM      6  C   UNL     1      47.043   5.891  13.676  0.00  0.00    +0.000 A 
ATOM      7  C   UNL     1      46.332   6.195  12.508  0.00  0.00    +0.000 A 
ATOM      8  C   UNL     1      45.546   5.166  11.956  0.00  0.00    +0.000 A 
BRANCH   7   9
ATOM      9  N   UNL     1      46.410   7.454  11.951  0.00  0.00    +0.000 N 
ATOM     10  C   UNL     1      47.638   8.261  11.924  0.00  0.00    +0.000 C 
ATOM     11  C   UNL     1      47.448   9.547  12.740  0.00  0.00    +0.000 C 
ATOM     12  O   UNL     1      46.306  10.293  12.283  0.00  0.00    +0.000 OA
ATOM     13  C   UNL     1      45.113   9.503  12.411  0.00  0.00    +0.000 C 
ATOM     14  C   UNL     1      45.191   8.202  11.594  0.00  0.00    +0.000 C 
ENDBRANCH   7   9
ENDBRANCH   1   2
BRANCH   1  15
ATOM     15  C   UNL     1      44.012   3.232  10.508  0.00  0.00    +0.000 C 
BRANCH  15  20
ATOM     16  C   UNL     1      46.405   2.062   7.780  0.00  0.00    +0.000 A 
ATOM     17  C   UNL     1      46.772   3.279   7.195  0.00  0.00    +0.000 A 
ATOM     18  C   UNL     1      46.247   4.475   7.685  0.00  0.00    +0.000 A 
ATOM     19  C   UNL     1      45.353   4.458   8.755  0.00  0.00    +0.000 A 
ATOM     20  C   UNL     1      44.973   3.246   9.347  0.00  0.00    +0.000 A 
ATOM     21  C   UNL     1      45.496   2.048   8.845  0.00  0.00    +0.000 A 
BRANCH  16  23
ATOM     22  N   UNL     1      47.686   0.780   6.152  0.00  0.00    +0.000 N 
ATOM     23  C   UNL     1      46.939   0.762   7.298  0.00  0.00    +0.000 C 
ATOM     24  O   UNL     1      46.760  -0.278   7.917  0.00  0.00    +0.000 OA
ATOM     25  H   UNL     1      48.141  -0.089   5.907  0.00  0.00    +0.000 HD
ATOM     26  H   UNL     1      48.070   1.633   5.775  0.00  0.00    +0.000 HD
ENDBRANCH  16  23
ENDBRANCH  15  20
ENDBRANCH   1  15
TORSDOF 5
ENDMDL
MODEL 4
REMARK VINA RESULT:    -7.216      2.242      2.639
REMARK INTER + INTRA:         -10.000
REMARK INTER:                  -9.266
REMARK INTRA:                  -0.734
REMARK UNBOUND:                -0.674
REMARK  Name = 
REMARK  5 active torsions:
REMARK  status: ('A' for Active; 'I' for Inactive)
REMARK    1  A    between atoms: C_2  and  C_4
REMARK    2  A    between atoms: C_8  and  C_9
REMARK    3  A    between atoms: C_9  and  C_10
REMARK    4  A    between atoms: C_10  and  C_11
REMARK    5  A    between atoms: C_16  and  N_17
REMARK                            x       y       z     vdW  Elec       q    Type
REMARK                         _______ _______ _______ _____ _____    ______ ____
ROOT
ATOM      1  C   UNL     1      45.022   3.761  11.741  0.00  0.00    +0.000 C 
ENDROOT
BRANCH   1   2
ATOM      2  C   UNL     1      45.214   5.262  11.821  0.00  0.00    +0.000 A 
ATOM      3  C   UNL     1      44.232   6.164  11.401  0.00  0.00    +0.000 A 
ATOM      4  C   UNL     1      44.434   7.526  11.550  0.00  0.00    +0.000 A 
ATOM      5  F   UNL     1      43.492   8.378  11.125  0.00  0.00    +0.000 F 
ATOM      6  C   UNL     1      45.592   8.021  12.133  0.00  0.00    +0.000 A 
ATOM      7  C   UNL     1      46.600   7.161  12.590  0.00  0.00    +0.000 A 
ATOM      8  C   UNL     1      46.387   5.781  12.411  0.00  0.00    +0.000 A 
BRANCH   7   9
ATOM      9  N   UNL     1      47.739   7.671  13.177  0.00  0.00    +0.000 N 
ATOM     10  C   UNL     1      48.896   6.852  13.562  0.00  0.00    +0.000 C 
ATOM     11  C   UNL     1      49.100   6.899  15.082  0.00  0.00    +0.000 C 
ATOM     12  O   UNL     1      49.221   8.254  15.553  0.00  0.00    +0.000 OA
ATOM     13  C   UNL     1      48.031   8.996  15.239  0.00  0.00    +0.000 C 
ATOM     14  C   UNL     1      47.761   9.039  13.725  0.00  0.00    +0.000 C 
ENDBRANCH   7   9
ENDBRANCH   1   2
BRANCH   1  15
ATOM     15  C   UNL     1      44.302   3.267  10.478  0.00  0.00    +0.000 C 
BRANCH  15  20
ATOM     16  C   UNL     1      46.512   1.980   7.650  0.00  0.00    +0.000 A 
ATOM     17  C   UNL     1      46.897   3.177   7.036  0.00  0.00    +0.000 A 
ATOM     18  C   UNL     1      46.443   4.396   7.538  0.00  0.00    +0.000 A 
ATOM     19  C   UNL     1      45.603   4.424   8.650  0.00  0.00    +0.000 A 
ATOM     20  C   UNL     1      45.205   3.233   9.272  0.00  0.00    +0.000 A 
ATOM     21  C   UNL     1      45.655   2.010   8.758  0.00  0.00    +0.000 A 
BRANCH  16  23
ATOM     22  N   UNL     1      47.578   0.622   5.932  0.00  0.00    +0.000 N 
ATOM     23  C   UNL     1      46.971   0.656   7.157  0.00  0.00    +0.000 C 
ATOM     24  O   UNL     1      46.853  -0.360   7.829  0.00  0.00    +0.000 OA
ATOM     25  H   UNL     1      47.992  -0.261   5.666  0.00  0.00    +0.000 HD
ATOM     26  H   UNL     1      47.925   1.456   5.481  0.00  0.00    +0.000 HD
ENDBRANCH  16  23
ENDBRANCH  15  20
ENDBRANCH   1  15
TORSDOF 5
ENDMDL
MODEL 5
REMARK VINA RESULT:    -7.005      2.925      7.622
REMARK INTER + INTRA:          -9.727
REMARK INTER:                  -8.764
REMARK INTRA:                  -0.963
REMARK UNBOUND:                -0.674
REMARK  Name = 
REMARK  5 active torsions:
REMARK  status: ('A' for Active; 'I' for Inactive)
REMARK    1  A    between atoms: C_2  and  C_4
REMARK    2  A    between atoms: C_8  and  C_9
REMARK    3  A    between atoms: C_9  and  C_10
REMARK    4  A    between atoms: C_10  and  C_11
REMARK    5  A    between atoms: C_16  and  N_17
REMARK                            x       y       z     vdW  Elec       q    Type
REMARK                         _______ _______ _______ _____ _____    ______ ____
ROOT
ATOM      1  C   UNL     1      49.252   7.267  14.042  0.00  0.00    +0.000 C 
ENDROOT
BRANCH   1   2
ATOM      2  C   UNL     1      47.835   7.262  13.504  0.00  0.00    +0.000 A 
ATOM      3  C   UNL     1      47.033   8.407  13.503  0.00  0.00    +0.000 A 
ATOM      4  C   UNL     1      45.765   8.363  12.947  0.00  0.00    +0.000 A 
ATOM      5  F   UNL     1      45.001   9.463  12.970  0.00  0.00    +0.000 F 
ATOM      6  C   UNL     1      45.276   7.202  12.365  0.00  0.00    +0.000 A 
ATOM      7  C   UNL     1      46.045   6.032  12.321  0.00  0.00    +0.000 A 
ATOM      8  C   UNL     1      47.323   6.088  12.910  0.00  0.00    +0.000 A 
BRANCH   7   9
ATOM      9  N   UNL     1      45.547   4.891  11.727  0.00  0.00    +0.000 N 
ATOM     10  C   UNL     1      45.096   4.826  10.331  0.00  0.00    +0.000 C 
ATOM     11  C   UNL     1      43.596   4.505  10.271  0.00  0.00    +0.000 C 
ATOM     12  O   UNL     1      43.290   3.296  10.989  0.00  0.00    +0.000 OA
ATOM     13  C   UNL     1      43.662   3.433  12.371  0.00  0.00    +0.000 C 
ATOM     14  C   UNL     1      45.164   3.721  12.539  0.00  0.00    +0.000 C 
ENDBRANCH   7   9
ENDBRANCH   1   2
BRANCH   1  15
ATOM     15  C   UNL     1      49.410   7.870  15.445  0.00  0.00    +0.000 C 
BRANCH  15  20
ATOM     16  C   UNL     1      48.056   4.820  17.289  0.00  0.00    +0.000 A 
ATOM     17  C   UNL     1      47.705   5.379  18.524  0.00  0.00    +0.000 A 
ATOM     18  C   UNL     1      47.907   6.740  18.756  0.00  0.00    +0.000 A 
ATOM     19  C   UNL     1      48.460   7.544  17.760  0.00  0.00    +0.000 A 
ATOM     20  C   UNL     1      48.819   6.997  16.522  0.00  0.00    +0.000 A 
ATOM     21  C   UNL     1      48.625   5.628  16.297  0.00  0.00    +0.000 A 
BRANCH  16  23
ATOM     22  N   UNL     1      46.907   2.715  17.717  0.00  0.00    +0.000 N 
ATOM     23  C   UNL     1      47.858   3.379  16.991  0.00  0.00    +0.000 C 
ATOM     24  O   UNL     1      48.485   2.811  16.106  0.00  0.00    +0.000 OA
ATOM     25  H   UNL     1      46.701   1.771  17.419  0.00  0.00    +0.000 HD
ATOM     26  H   UNL     1      46.203   3.202  18.251  0.00  0.00    +0.000 HD
ENDBRANCH  16  23
ENDBRANCH  15  20
ENDBRANCH   1  15
TORSDOF 5
ENDMDL
MODEL 6
REMARK VINA RESULT:    -6.960      1.592      2.091
REMARK INTER + INTRA:          -9.669
REMARK INTER:                  -8.671
REMARK INTRA:                  -0.998
REMARK UNBOUND:                -0.674
REMARK  Name = 
REMARK  5 active torsions:
REMARK  status: ('A' for Active; 'I' for Inactive)
REMARK    1  A    between atoms: C_2  and  C_4
REMARK    2  A    between atoms: C_8  and  C_9
REMARK    3  A    between atoms: C_9  and  C_10
REMARK    4  A    between atoms: C_10  and  C_11
REMARK    5  A    between atoms: C_16  and  N_17
REMARK                            x       y       z     vdW  Elec       q    Type
REMARK                         _______ _______ _______ _____ _____    ______ ____
ROOT
ATOM      1  C   UNL     1      44.439   5.479  11.993  0.00  0.00    +0.000 C 
ENDROOT
BRANCH   1   2
ATOM      2  C   UNL     1      45.836   5.868  12.436  0.00  0.00    +0.000 A 
ATOM      3  C   UNL     1      46.618   6.779  11.722  0.00  0.00    +0.000 A 
ATOM      4  C   UNL     1      47.866   7.144  12.202  0.00  0.00    +0.000 A 
ATOM      5  F   UNL     1      48.612   8.004  11.498  0.00  0.00    +0.000 F 
ATOM      6  C   UNL     1      48.351   6.638  13.399  0.00  0.00    +0.000 A 
ATOM      7  C   UNL     1      47.600   5.736  14.165  0.00  0.00    +0.000 A 
ATOM      8  C   UNL     1      46.344   5.359  13.651  0.00  0.00    +0.000 A 
BRANCH   7   9
ATOM      9  N   UNL     1      48.094   5.252  15.358  0.00  0.00    +0.000 N 
ATOM     10  C   UNL     1      47.646   3.999  15.980  0.00  0.00    +0.000 C 
ATOM     11  C   UNL     1      46.982   4.285  17.334  0.00  0.00    +0.000 C 
ATOM     12  O   UNL     1      47.858   5.030  18.199  0.00  0.00    +0.000 OA
ATOM     13  C   UNL     1      48.199   6.289  17.595  0.00  0.00    +0.000 C 
ATOM     14  C   UNL     1      48.908   6.106  16.242  0.00  0.00    +0.000 C 
ENDBRANCH   7   9
ENDBRANCH   1   2
BRANCH   1  15
ATOM     15  C   UNL     1      44.193   5.564  10.480  0.00  0.00    +0.000 C 
BRANCH  15  20
ATOM     16  C   UNL     1      45.907   3.257   7.974  0.00  0.00    +0.000 A 
ATOM     17  C   UNL     1      45.434   2.005   8.385  0.00  0.00    +0.000 A 
ATOM     18  C   UNL     1      44.562   1.911   9.470  0.00  0.00    +0.000 A 
ATOM     19  C   UNL     1      44.163   3.062  10.147  0.00  0.00    +0.000 A 
ATOM     20  C   UNL     1      44.632   4.321   9.750  0.00  0.00    +0.000 A 
ATOM     21  C   UNL     1      45.515   4.410   8.667  0.00  0.00    +0.000 A 
BRANCH  16  23
ATOM     22  N   UNL     1      48.035   2.764   6.898  0.00  0.00    +0.000 N 
ATOM     23  C   UNL     1      46.833   3.412   6.824  0.00  0.00    +0.000 C 
ATOM     24  O   UNL     1      46.525   4.054   5.829  0.00  0.00    +0.000 OA
ATOM     25  H   UNL     1      48.600   2.780   6.059  0.00  0.00    +0.000 HD
ATOM     26  H   UNL     1      48.208   2.026   7.565  0.00  0.00    +0.000 HD
ENDBRANCH  16  23
ENDBRANCH  15  20
ENDBRANCH   1  15
TORSDOF 5
ENDMDL
MODEL 7
REMARK VINA RESULT:    -6.894      2.270      3.692
REMARK INTER + INTRA:          -9.583
REMARK INTER:                  -8.670
REMARK INTRA:                  -0.914
REMARK UNBOUND:                -0.674
REMARK  Name = 
REMARK  5 active torsions:
REMARK  status: ('A' for Active; 'I' for Inactive)
REMARK    1  A    between atoms: C_2  and  C_4
REMARK    2  A    between atoms: C_8  and  C_9
REMARK    3  A    between atoms: C_9  and  C_10
REMARK    4  A    between atoms: C_10  and  C_11
REMARK    5  A    between atoms: C_16  and  N_17
REMARK                            x       y       z     vdW  Elec       q    Type
REMARK                         _______ _______ _______ _____ _____    ______ ____
ROOT
ATOM      1  C   UNL     1      47.189   6.787  11.673  0.00  0.00    +0.000 C 
ENDROOT
BRANCH   1   2
ATOM      2  C   UNL     1      48.079   6.824  12.899  0.00  0.00    +0.000 A 
ATOM      3  C   UNL     1      49.210   7.642  12.976  0.00  0.00    +0.000 A 
ATOM      4  C   UNL     1      49.957   7.681  14.142  0.00  0.00    +0.000 A 
ATOM      5  F   UNL     1      51.049   8.455  14.194  0.00  0.00    +0.000 F 
ATOM      6  C   UNL     1      49.593   6.936  15.254  0.00  0.00    +0.000 A 
ATOM      7  C   UNL     1      48.457   6.115  15.238  0.00  0.00    +0.000 A 
ATOM      8  C   UNL     1      47.722   6.070  14.038  0.00  0.00    +0.000 A 
BRANCH   7   9
ATOM      9  N   UNL     1      48.104   5.391  16.358  0.00  0.00    +0.000 N 
ATOM     10  C   UNL     1      48.671   5.622  17.693  0.00  0.00    +0.000 C 
ATOM     11  C   UNL     1      49.445   4.383  18.164  0.00  0.00    +0.000 C 
ATOM     12  O   UNL     1      48.620   3.205  18.128  0.00  0.00    +0.000 OA
ATOM     13  C   UNL     1      48.160   2.961  16.788  0.00  0.00    +0.000 C 
ATOM     14  C   UNL     1      47.336   4.138  16.238  0.00  0.00    +0.000 C 
ENDBRANCH   7   9
ENDBRANCH   1   2
BRANCH   1  15
ATOM     15  C   UNL     1      45.684   6.886  11.962  0.00  0.00    +0.000 C 
BRANCH  15  20
ATOM     16  C   UNL     1      44.383   3.620  10.487  0.00  0.00    +0.000 A 
ATOM     17  C   UNL     1      43.650   3.105  11.562  0.00  0.00    +0.000 A 
ATOM     18  C   UNL     1      43.577   3.816  12.761  0.00  0.00    +0.000 A 
ATOM     19  C   UNL     1      44.237   5.038  12.889  0.00  0.00    +0.000 A 
ATOM     20  C   UNL     1      44.979   5.562  11.822  0.00  0.00    +0.000 A 
ATOM     21  C   UNL     1      45.057   4.840  10.625  0.00  0.00    +0.000 A 
BRANCH  16  23
ATOM     22  N   UNL     1      44.362   3.652   8.052  0.00  0.00    +0.000 N 
ATOM     23  C   UNL     1      44.489   2.904   9.190  0.00  0.00    +0.000 C 
ATOM     24  O   UNL     1      44.722   1.704   9.132  0.00  0.00    +0.000 OA
ATOM     25  H   UNL     1      44.557   3.173   7.183  0.00  0.00    +0.000 HD
ATOM     26  H   UNL     1      44.437   4.658   8.059  0.00  0.00    +0.000 HD
ENDBRANCH  16  23
ENDBRANCH  15  20
ENDBRANCH   1  15
TORSDOF 5
ENDMDL
MODEL 8
REMARK VINA RESULT:    -6.890      4.474      7.340
REMARK INTER + INTRA:          -9.578
REMARK INTER:                  -8.554
REMARK INTRA:                  -1.024
REMARK UNBOUND:                -0.674
REMARK  Name = 
REMARK  5 active torsions:
REMARK  status: ('A' for Active; 'I' for Inactive)
REMARK    1  A    between atoms: C_2  and  C_4
REMARK    2  A    between atoms: C_8  and  C_9
REMARK    3  A    between atoms: C_9  and  C_10
REMARK    4  A    between atoms: C_10  and  C_11
REMARK    5  A    between atoms: C_16  and  N_17
REMARK                            x       y       z     vdW  Elec       q    Type
REMARK                         _______ _______ _______ _____ _____    ______ ____
ROOT
ATOM      1  C   UNL     1      48.422   8.273  11.910  0.00  0.00    +0.000 C 
ENDROOT
BRANCH   1   2
ATOM      2  C   UNL     1      47.717   7.079  12.523  0.00  0.00    +0.000 A 
ATOM      3  C   UNL     1      48.084   6.554  13.765  0.00  0.00    +0.000 A 
ATOM      4  C   UNL     1      47.369   5.497  14.307  0.00  0.00    +0.000 A 
ATOM      5  F   UNL     1      47.743   4.992  15.489  0.00  0.00    +0.000 F 
ATOM      6  C   UNL     1      46.273   4.958  13.648  0.00  0.00    +0.000 A 
ATOM      7  C   UNL     1      45.851   5.460  12.410  0.00  0.00    +0.000 A 
ATOM      8  C   UNL     1      46.602   6.519  11.864  0.00  0.00    +0.000 A 
BRANCH   7   9
ATOM      9  N   UNL     1      44.753   4.919  11.775  0.00  0.00    +0.000 N 
ATOM     10  C   UNL     1      43.598   4.350  12.483  0.00  0.00    +0.000 C 
ATOM     11  C   UNL     1      43.468   2.853  12.172  0.00  0.00    +0.000 C 
ATOM     12  O   UNL     1      43.398   2.617  10.755  0.00  0.00    +0.000 OA
ATOM     13  C   UNL     1      44.586   3.105  10.110  0.00  0.00    +0.000 C 
ATOM     14  C   UNL     1      44.785   4.614  10.333  0.00  0.00    +0.000 C 
ENDBRANCH   7   9
ENDBRANCH   1   2
BRANCH   1  15
ATOM     15  C   UNL     1      48.077   9.626  12.548  0.00  0.00    +0.000 C 
BRANCH  15  20
ATOM     16  C   UNL     1      44.745  10.825  11.138  0.00  0.00    +0.000 A 
ATOM     17  C   UNL     1      45.163  11.833  10.260  0.00  0.00    +0.000 A 
ATOM     18  C   UNL     1      46.522  12.120  10.127  0.00  0.00    +0.000 A 
ATOM     19  C   UNL     1      47.463  11.407  10.868  0.00  0.00    +0.000 A 
ATOM     20  C   UNL     1      47.057  10.400  11.754  0.00  0.00    +0.000 A 
ATOM     21  C   UNL     1      45.692  10.122  11.892  0.00  0.00    +0.000 A 
BRANCH  16  23
ATOM     22  N   UNL     1      42.875   9.316  10.740  0.00  0.00    +0.000 N 
ATOM     23  C   UNL     1      43.311  10.478  11.313  0.00  0.00    +0.000 C 
ATOM     24  O   UNL     1      42.555  11.175  11.977  0.00  0.00    +0.000 OA
ATOM     25  H   UNL     1      41.932   9.035  10.971  0.00  0.00    +0.000 HD
ATOM     26  H   UNL     1      43.513   8.601  10.424  0.00  0.00    +0.000 HD
ENDBRANCH  16  23
ENDBRANCH  15  20
ENDBRANCH   1  15
TORSDOF 5
ENDMDL
MODEL 9
REMARK VINA RESULT:    -6.872      2.180      7.579
REMARK INTER + INTRA:          -9.555
REMARK INTER:                  -8.674
REMARK INTRA:                  -0.882
REMARK UNBOUND:                -0.674
REMARK  Name = 
REMARK  5 active torsions:
REMARK  status: ('A' for Active; 'I' for Inactive)
REMARK    1  A    between atoms: C_2  and  C_4
REMARK    2  A    between atoms: C_8  and  C_9
REMARK    3  A    between atoms: C_9  and  C_10
REMARK    4  A    between atoms: C_10  and  C_11
REMARK    5  A    between atoms: C_16  and  N_17
REMARK                            x       y       z     vdW  Elec       q    Type
REMARK                         _______ _______ _______ _____ _____    ______ ____
ROOT
ATOM      1  C   UNL     1      46.250   7.505  12.041  0.00  0.00    +0.000 C 
ENDROOT
BRANCH   1   2
ATOM      2  C   UNL     1      45.401   6.263  11.859  0.00  0.00    +0.000 A 
ATOM      3  C   UNL     1      44.464   5.853  12.811  0.00  0.00    +0.000 A 
ATOM      4  C   UNL     1      43.673   4.742  12.569  0.00  0.00    +0.000 A 
ATOM      5  F   UNL     1      42.792   4.350  13.499  0.00  0.00    +0.000 F 
ATOM      6  C   UNL     1      43.774   4.032  11.381  0.00  0.00    +0.000 A 
ATOM      7  C   UNL     1      44.683   4.412  10.384  0.00  0.00    +0.000 A 
ATOM      8  C   UNL     1      45.494   5.529  10.656  0.00  0.00    +0.000 A 
BRANCH   7   9
ATOM      9  N   UNL     1      44.761   3.701   9.204  0.00  0.00    +0.000 N 
ATOM     10  C   UNL     1      44.556   2.250   9.109  0.00  0.00    +0.000 C 
ATOM     11  C   UNL     1      45.842   1.560   8.636  0.00  0.00    +0.000 C 
ATOM     12  O   UNL     1      46.309   2.118   7.394  0.00  0.00    +0.000 OA
ATOM     13  C   UNL     1      46.586   3.520   7.553  0.00  0.00    +0.000 C 
ATOM     14  C   UNL     1      45.341   4.308   7.992  0.00  0.00    +0.000 C 
ENDBRANCH   7   9
ENDBRANCH   1   2
BRANCH   1  15
ATOM     15  C   UNL     1      47.764   7.276  11.933  0.00  0.00    +0.000 C 
BRANCH  15  20
ATOM     16  C   UNL     1      48.543   5.994  15.438  0.00  0.00    +0.000 A 
ATOM     17  C   UNL     1      49.642   6.790  15.785  0.00  0.00    +0.000 A 
ATOM     18  C   UNL     1      50.126   7.740  14.884  0.00  0.00    +0.000 A 
ATOM     19  C   UNL     1      49.519   7.895  13.639  0.00  0.00    +0.000 A 
ATOM     20  C   UNL     1      48.422   7.101  13.277  0.00  0.00    +0.000 A 
ATOM     21  C   UNL     1      47.946   6.142  14.180  0.00  0.00    +0.000 A 
BRANCH  16  23
ATOM     22  N   UNL     1      47.370   5.424  17.495  0.00  0.00    +0.000 N 
ATOM     23  C   UNL     1      47.987   4.972  16.361  0.00  0.00    +0.000 C 
ATOM     24  O   UNL     1      48.038   3.776  16.106  0.00  0.00    +0.000 OA
ATOM     25  H   UNL     1      46.892   4.725  18.048  0.00  0.00    +0.000 HD
ATOM     26  H   UNL     1      47.079   6.385  17.601  0.00  0.00    +0.000 HD
ENDBRANCH  16  23
ENDBRANCH  15  20
ENDBRANCH   1  15
TORSDOF 5
ENDMDL
