MODEL 1
REMARK VINA RESULT:    -7.576      0.000      0.000
REMARK INTER + INTRA:         -11.154
REMARK INTER:                 -10.455
REMARK INTRA:                  -0.700
REMARK UNBOUND:                -0.700
REMARK  Name = 
REMARK  7 active torsions:
REMARK  status: ('A' for Active; 'I' for Inactive)
REMARK    1  A    between atoms: N_1  and  C_2
REMARK    2  A    between atoms: C_2  and  C_3
REMARK    3  A    between atoms: C_7  and  O_8
REMARK    4  A    between atoms: O_8  and  C_9
REMARK    5  A    between atoms: C_9  and  O_10
REMARK    6  A    between atoms: O_10  and  C_11
REMARK    7  A    between atoms: C_15  and  C_16
REMARK                            x       y       z     vdW  Elec       q    Type
REMARK                         _______ _______ _______ _____ _____    ______ ____
ROOT
ATOM      1  C   UNL     1      43.300   3.414  11.653  0.00  0.00    +0.000 C 
ENDROOT
BRANCH   1   2
ATOM      2  O   UNL     1      44.216   3.312  12.747  0.00  0.00    +0.000 OA
BRANCH   2   7
ATOM      3  C   UNL     1      45.482   6.713  12.405  0.00  0.00    +0.000 A 
ATOM      4  C   UNL     1      46.733   6.620  13.032  0.00  0.00    +0.000 A 
ATOM      5  C   UNL     1      47.166   5.412  13.573  0.00  0.00    +0.000 A 
ATOM      6  C   UNL     1      46.353   4.280  13.501  0.00  0.00    +0.000 A 
ATOM      7  C   UNL     1      45.103   4.349  12.881  0.00  0.00    +0.000 A 
ATOM      8  C   UNL     1      44.677   5.565  12.333  0.00  0.00    +0.000 A 
BRANCH   3   9
ATOM      9  C   UNL     1      45.000   8.031  11.857  0.00  0.00    +0.000 C 
BRANCH   9  10
ATOM     10  N   UNL     1      43.737   7.890  11.141  0.00  0.00    +0.000 NA
ATOM     11  H   UNL     1      43.884   8.121  10.160  0.00  0.00    +0.000 HD
ATOM     12  H   UNL     1      43.079   8.579  11.502  0.00  0.00    +0.000 HD
ENDBRANCH   9  10
ENDBRANCH   3   9
ENDBRANCH   2   7
ENDBRANCH   1   2
BRANCH   1  13
ATOM     13  O   UNL     1      43.593   2.423  10.664  0.00  0.00    +0.000 OA
BRANCH  13  14
ATOM     14  C   UNL     1      44.437   2.809   9.655  0.00  0.00    +0.000 A 
ATOM     15  C   UNL     1      44.589   4.107   9.164  0.00  0.00    +0.000 A 
ATOM     16  C   UNL     1      45.495   4.364   8.133  0.00  0.00    +0.000 A 
ATOM     17  C   UNL     1      46.257   3.327   7.598  0.00  0.00    +0.000 A 
ATOM     18  C   UNL     1      46.120   2.019   8.084  0.00  0.00    +0.000 A 
ATOM     19  C   UNL     1      45.196   1.767   9.106  0.00  0.00    +0.000 A 
BRANCH  18  20
ATOM     20  C   UNL     1      46.993   0.967   7.495  0.00  0.00    +0.000 C 
ATOM     21  N   UNL     1      48.014   1.344   6.668  0.00  0.00    +0.000 N 
ATOM     22  O   UNL     1      46.805  -0.223   7.726  0.00  0.00    +0.000 OA
ATOM     23  H   UNL     1      48.230   2.290   6.400  0.00  0.00    +0.000 HD
ATOM     24  H   UNL     1      48.563   0.600   6.257  0.00  0.00    +0.000 HD
ENDBRANCH  18  20
ENDBRANCH  13  14
ENDBRANCH   1  13
TORSDOF 7
ENDMDL
MODEL 2
REMARK VINA RESULT:    -7.148      2.164      6.283
REMARK INTER + INTRA:         -10.564
REMARK INTER:                 -10.050
REMARK INTRA:                  -0.514
REMARK UNBOUND:                -0.700
REMARK  Name = 
REMARK  7 active torsions:
REMARK  status: ('A' for Active; 'I' for Inactive)
REMARK    1  A    between atoms: N_1  and  C_2
REMARK    2  A    between atoms: C_2  and  C_3
REMARK    3  A    between atoms: C_7  and  O_8
REMARK    4  A    between atoms: O_8  and  C_9
REMARK    5  A    between atoms: C_9  and  O_10
REMARK    6  A    between atoms: O_10  and  C_11
REMARK    7  A    between atoms: C_15  and  C_16
REMARK                            x       y       z     vdW  Elec       q    Type
REMARK                         _______ _______ _______ _____ _____    ______ ____
ROOT
ATOM      1  C   UNL     1      44.171   3.104  11.232  0.00  0.00    +0.000 C 
ENDROOT
BRANCH   1   2
ATOM      2  O   UNL     1      43.876   2.757   9.876  0.00  0.00    +0.000 OA
BRANCH   2   7
ATOM      3  C   UNL     1      46.630   1.837   7.673  0.00  0.00    +0.000 A 
ATOM      4  C   UNL     1      47.003   3.080   7.142  0.00  0.00    +0.000 A 
ATOM      5  C   UNL     1      46.336   4.241   7.522  0.00  0.00    +0.000 A 
ATOM      6  C   UNL     1      45.281   4.177   8.434  0.00  0.00    +0.000 A 
ATOM      7  C   UNL     1      44.893   2.950   8.977  0.00  0.00    +0.000 A 
ATOM      8  C   UNL     1      45.572   1.787   8.595  0.00  0.00    +0.000 A 
BRANCH   3   9
ATOM      9  C   UNL     1      47.329   0.577   7.229  0.00  0.00    +0.000 C 
BRANCH   9  10
ATOM     10  N   UNL     1      46.691  -0.616   7.774  0.00  0.00    +0.000 NA
ATOM     11  H   UNL     1      45.699  -0.431   7.906  0.00  0.00    +0.000 HD
ATOM     12  H   UNL     1      47.075  -0.796   8.701  0.00  0.00    +0.000 HD
ENDBRANCH   9  10
ENDBRANCH   3   9
ENDBRANCH   2   7
ENDBRANCH   1   2
BRANCH   1  13
ATOM     13  O   UNL     1      44.115   4.523  11.407  0.00  0.00    +0.000 OA
BRANCH  13  14
ATOM     14  C   UNL     1      45.202   5.101  12.009  0.00  0.00    +0.000 A 
ATOM     15  C   UNL     1      45.819   6.292  11.621  0.00  0.00    +0.000 A 
ATOM     16  C   UNL     1      46.920   6.774  12.330  0.00  0.00    +0.000 A 
ATOM     17  C   UNL     1      47.401   6.073  13.434  0.00  0.00    +0.000 A 
ATOM     18  C   UNL     1      46.790   4.878  13.840  0.00  0.00    +0.000 A 
ATOM     19  C   UNL     1      45.697   4.393  13.112  0.00  0.00    +0.000 A 
BRANCH  18  20
ATOM     20  C   UNL     1      47.331   4.201  15.051  0.00  0.00    +0.000 C 
ATOM     21  N   UNL     1      47.485   4.927  16.198  0.00  0.00    +0.000 N 
ATOM     22  O   UNL     1      47.649   3.017  15.032  0.00  0.00    +0.000 OA
ATOM     23  H   UNL     1      47.277   5.906  16.303  0.00  0.00    +0.000 HD
ATOM     24  H   UNL     1      47.890   4.443  16.991  0.00  0.00    +0.000 HD
ENDBRANCH  18  20
ENDBRANCH  13  14
ENDBRANCH   1  13
TORSDOF 7
ENDMDL
MODEL 3
REMARK VINA RESULT:    -7.055      1.438      2.064
REMARK INTER + INTRA:         -10.436
REMARK INTER:                  -9.786
REMARK INTRA:                  -0.650
REMARK UNBOUND:                -0.700
REMARK  Name = 
REMARK  7 active torsions:
REMARK  status: ('A' for Active; 'I' for Inactive)
REMARK    1  A    between atoms: N_1  and  C_2
REMARK    2  A    between atoms: C_2  and  C_3
REMARK    3  A    between atoms: C_7  and  O_8
REMARK    4  A    between atoms: O_8  and  C_9
REMARK    5  A    between atoms: C_9  and  O_10
REMARK    6  A    between atoms: O_10  and  C_11
REMARK    7  A    between atoms: C_15  and  C_16
REMARK                            x       y       z     vdW  Elec       q    Type
REMARK                         _______ _______ _______ _____ _____    ______ ____
ROOT
ATOM      1  C   UNL     1      43.950   3.087  11.844  0.00  0.00    +0.000 C 
ENDROOT
BRANCH   1   2
ATOM      2  O   UNL     1      43.402   4.344  12.251  0.00  0.00    +0.000 OA
BRANCH   2   7
ATOM      3  C   UNL     1      46.439   6.115  13.210  0.00  0.00    +0.000 A 
ATOM      4  C   UNL     1      46.255   7.359  12.592  0.00  0.00    +0.000 A 
ATOM      5  C   UNL     1      45.106   7.619  11.849  0.00  0.00    +0.000 A 
ATOM      6  C   UNL     1      44.126   6.635  11.708  0.00  0.00    +0.000 A 
ATOM      7  C   UNL     1      44.288   5.388  12.316  0.00  0.00    +0.000 A 
ATOM      8  C   UNL     1      45.443   5.136  13.066  0.00  0.00    +0.000 A 
BRANCH   3   9
ATOM      9  C   UNL     1      47.702   5.825  13.980  0.00  0.00    +0.000 C 
BRANCH   9  10
ATOM     10  N   UNL     1      48.858   6.497  13.396  0.00  0.00    +0.000 NA
ATOM     11  H   UNL     1      48.926   7.436  13.784  0.00  0.00    +0.000 HD
ATOM     12  H   UNL     1      48.698   6.610  12.396  0.00  0.00    +0.000 HD
ENDBRANCH   9  10
ENDBRANCH   3   9
ENDBRANCH   2   7
ENDBRANCH   1   2
BRANCH   1  13
ATOM     13  O   UNL     1      43.567   2.787  10.499  0.00  0.00    +0.000 OA
BRANCH  13  14
ATOM     14  C   UNL     1      44.497   3.064   9.531  0.00  0.00    +0.000 A 
ATOM     15  C   UNL     1      44.814   4.331   9.036  0.00  0.00    +0.000 A 
ATOM     16  C   UNL     1      45.792   4.473   8.050  0.00  0.00    +0.000 A 
ATOM     17  C   UNL     1      46.462   3.352   7.564  0.00  0.00    +0.000 A 
ATOM     18  C   UNL     1      46.160   2.074   8.055  0.00  0.00    +0.000 A 
ATOM     19  C   UNL     1      45.164   1.938   9.031  0.00  0.00    +0.000 A 
BRANCH  18  20
ATOM     20  C   UNL     1      46.941   0.924   7.520  0.00  0.00    +0.000 C 
ATOM     21  N   UNL     1      47.918   1.165   6.595  0.00  0.00    +0.000 N 
ATOM     22  O   UNL     1      46.715  -0.226   7.882  0.00  0.00    +0.000 OA
ATOM     23  H   UNL     1      48.158   2.067   6.219  0.00  0.00    +0.000 HD
ATOM     24  H   UNL     1      48.403   0.355   6.227  0.00  0.00    +0.000 HD
ENDBRANCH  18  20
ENDBRANCH  13  14
ENDBRANCH   1  13
TORSDOF 7
ENDMDL
MODEL 4
REMARK VINA RESULT:    -6.682      1.564      6.322
REMARK INTER + INTRA:          -9.921
REMARK INTER:                  -9.184
REMARK INTRA:                  -0.737
REMARK UNBOUND:                -0.700
REMARK  Name = 
REMARK  7 active torsions:
REMARK  status: ('A' for Active; 'I' for Inactive)
REMARK    1  A    between atoms: N_1  and  C_2
REMARK    2  A    between atoms: C_2  and  C_3
REMARK    3  A    between atoms: C_7  and  O_8
REMARK    4  A    between atoms: O_8  and  C_9
REMARK    5  A    between atoms: C_9  and  O_10
REMARK    6  A    between atoms: O_10  and  C_11
REMARK    7  A    between atoms: C_15  and  C_16
REMARK                            x       y       z     vdW  Elec       q    Type
REMARK                         _______ _______ _______ _____ _____    ______ ____
ROOT
ATOM      1  C   UNL     1      44.060   2.542  11.826  0.00  0.00    +0.000 C 
ENDROOT
BRANCH   1   2
ATOM      2  O   UNL     1      43.588   2.690  10.484  0.00  0.00    +0.000 OA
BRANCH   2   7
ATOM      3  C   UNL     1      46.220   2.246   8.002  0.00  0.00    +0.000 A 
ATOM      4  C   UNL     1      46.496   3.570   7.634  0.00  0.00    +0.000 A 
ATOM      5  C   UNL     1      45.804   4.627   8.219  0.00  0.00    +0.000 A 
ATOM      6  C   UNL     1      44.820   4.376   9.177  0.00  0.00    +0.000 A 
ATOM      7  C   UNL     1      44.528   3.065   9.559  0.00  0.00    +0.000 A 
ATOM      8  C   UNL     1      45.233   2.007   8.971  0.00  0.00    +0.000 A 
BRANCH   3   9
ATOM      9  C   UNL     1      46.943   1.103   7.337  0.00  0.00    +0.000 C 
BRANCH   9  10
ATOM     10  N   UNL     1      46.597  -0.180   7.940  0.00  0.00    +0.000 NA
ATOM     11  H   UNL     1      46.620  -0.900   7.221  0.00  0.00    +0.000 HD
ATOM     12  H   UNL     1      45.635  -0.135   8.272  0.00  0.00    +0.000 HD
ENDBRANCH   9  10
ENDBRANCH   3   9
ENDBRANCH   2   7
ENDBRANCH   1   2
BRANCH   1  13
ATOM     13  O   UNL     1      43.724   3.695  12.603  0.00  0.00    +0.000 OA
BRANCH  13  14
ATOM     14  C   UNL     1      44.713   4.633  12.747  0.00  0.00    +0.000 A 
ATOM     15  C   UNL     1      46.017   4.391  13.185  0.00  0.00    +0.000 A 
ATOM     16  C   UNL     1      46.931   5.442  13.280  0.00  0.00    +0.000 A 
ATOM     17  C   UNL     1      46.547   6.735  12.928  0.00  0.00    +0.000 A 
ATOM     18  C   UNL     1      45.244   6.994  12.481  0.00  0.00    +0.000 A 
ATOM     19  C   UNL     1      44.328   5.937  12.407  0.00  0.00    +0.000 A 
BRANCH  18  20
ATOM     20  C   UNL     1      44.913   8.391  12.084  0.00  0.00    +0.000 C 
ATOM     21  N   UNL     1      45.213   9.408  12.945  0.00  0.00    +0.000 N 
ATOM     22  O   UNL     1      44.368   8.639  11.014  0.00  0.00    +0.000 OA
ATOM     23  H   UNL     1      45.635   9.301  13.853  0.00  0.00    +0.000 HD
ATOM     24  H   UNL     1      44.940  10.341  12.658  0.00  0.00    +0.000 HD
ENDBRANCH  18  20
ENDBRANCH  13  14
ENDBRANCH   1  13
TORSDOF 7
ENDMDL
MODEL 5
REMARK VINA RESULT:    -6.401      2.463      6.827
REMARK INTER + INTRA:          -9.533
REMARK INTER:                  -9.148
REMARK INTRA:                  -0.385
REMARK UNBOUND:                -0.700
REMARK  Name = 
REMARK  7 active torsions:
REMARK  status: ('A' for Active; 'I' for Inactive)
REMARK    1  A    between atoms: N_1  and  C_2
REMARK    2  A    between atoms: C_2  and  C_3
REMARK    3  A    between atoms: C_7  and  O_8
REMARK    4  A    between atoms: O_8  and  C_9
REMARK    5  A    between atoms: C_9  and  O_10
REMARK    6  A    between atoms: O_10  and  C_11
REMARK    7  A    between atoms: C_15  and  C_16
REMARK                            x       y       z     vdW  Elec       q    Type
REMARK                         _______ _______ _______ _____ _____    ______ ____
ROOT
ATOM      1  C   UNL     1      45.744   5.083   9.061  0.00  0.00    +0.000 C 
ENDROOT
BRANCH   1   2
ATOM      2  O   UNL     1      45.099   4.300   8.052  0.00  0.00    +0.000 OA
BRANCH   2   7
ATOM      3  C   UNL     1      47.053   2.022   5.984  0.00  0.00    +0.000 A 
ATOM      4  C   UNL     1      47.097   0.872   6.784  0.00  0.00    +0.000 A 
ATOM      5  C   UNL     1      46.467   0.848   8.026  0.00  0.00    +0.000 A 
ATOM      6  C   UNL     1      45.789   1.976   8.489  0.00  0.00    +0.000 A 
ATOM      7  C   UNL     1      45.731   3.133   7.709  0.00  0.00    +0.000 A 
ATOM      8  C   UNL     1      46.361   3.147   6.459  0.00  0.00    +0.000 A 
BRANCH   3   9
ATOM      9  C   UNL     1      47.770   2.057   4.659  0.00  0.00    +0.000 C 
BRANCH   9  10
ATOM     10  N   UNL     1      47.436   0.902   3.832  0.00  0.00    +0.000 NA
ATOM     11  H   UNL     1      46.716   1.169   3.165  0.00  0.00    +0.000 HD
ATOM     12  H   UNL     1      47.026   0.183   4.427  0.00  0.00    +0.000 HD
ENDBRANCH   9  10
ENDBRANCH   3   9
ENDBRANCH   2   7
ENDBRANCH   1   2
BRANCH   1  13
ATOM     13  O   UNL     1      44.948   5.118  10.249  0.00  0.00    +0.000 OA
BRANCH  13  14
ATOM     14  C   UNL     1      45.531   5.692  11.348  0.00  0.00    +0.000 A 
ATOM     15  C   UNL     1      45.674   7.062  11.579  0.00  0.00    +0.000 A 
ATOM     16  C   UNL     1      46.284   7.515  12.750  0.00  0.00    +0.000 A 
ATOM     17  C   UNL     1      46.742   6.601  13.698  0.00  0.00    +0.000 A 
ATOM     18  C   UNL     1      46.600   5.223  13.484  0.00  0.00    +0.000 A 
ATOM     19  C   UNL     1      46.004   4.777  12.298  0.00  0.00    +0.000 A 
BRANCH  18  20
ATOM     20  C   UNL     1      47.076   4.303  14.555  0.00  0.00    +0.000 C 
ATOM     21  N   UNL     1      47.250   4.797  15.817  0.00  0.00    +0.000 N 
ATOM     22  O   UNL     1      47.324   3.125  14.322  0.00  0.00    +0.000 OA
ATOM     23  H   UNL     1      47.098   5.751  16.098  0.00  0.00    +0.000 HD
ATOM     24  H   UNL     1      47.610   4.152  16.510  0.00  0.00    +0.000 HD
ENDBRANCH  18  20
ENDBRANCH  13  14
ENDBRANCH   1  13
TORSDOF 7
ENDMDL
MODEL 6
REMARK VINA RESULT:    -6.220      5.318      7.735
REMARK INTER + INTRA:          -9.283
REMARK INTER:                  -8.944
REMARK INTRA:                  -0.339
REMARK UNBOUND:                -0.700
REMARK  Name = 
REMARK  7 active torsions:
REMARK  status: ('A' for Active; 'I' for Inactive)
REMARK    1  A    between atoms: N_1  and  C_2
REMARK    2  A    between atoms: C_2  and  C_3
REMARK    3  A    between atoms: C_7  and  O_8
REMARK    4  A    between atoms: O_8  and  C_9
REMARK    5  A    between atoms: C_9  and  O_10
REMARK    6  A    between atoms: O_10  and  C_11
REMARK    7  A    between atoms: C_15  and  C_16
REMARK                            x       y       z     vdW  Elec       q    Type
REMARK                         _______ _______ _______ _____ _____    ______ ____
ROOT
ATOM      1  C   UNL     1      47.172   4.180  15.596  0.00  0.00    +0.000 C 
ENDROOT
BRANCH   1   2
ATOM      2  O   UNL     1      47.115   3.507  14.336  0.00  0.00    +0.000 OA
BRANCH   2   7
ATOM      3  C   UNL     1      44.788   4.162  11.608  0.00  0.00    +0.000 A 
ATOM      4  C   UNL     1      45.185   5.440  11.191  0.00  0.00    +0.000 A 
ATOM      5  C   UNL     1      46.241   6.094  11.818  0.00  0.00    +0.000 A 
ATOM      6  C   UNL     1      46.914   5.483  12.878  0.00  0.00    +0.000 A 
ATOM      7  C   UNL     1      46.536   4.210  13.310  0.00  0.00    +0.000 A 
ATOM      8  C   UNL     1      45.477   3.555  12.670  0.00  0.00    +0.000 A 
BRANCH   3   9
ATOM      9  C   UNL     1      43.618   3.474  10.952  0.00  0.00    +0.000 C 
BRANCH   9  10
ATOM     10  N   UNL     1      43.142   2.344  11.742  0.00  0.00    +0.000 NA
ATOM     11  H   UNL     1      43.853   2.096  12.427  0.00  0.00    +0.000 HD
ATOM     12  H   UNL     1      43.041   1.537  11.128  0.00  0.00    +0.000 HD
ENDBRANCH   9  10
ENDBRANCH   3   9
ENDBRANCH   2   7
ENDBRANCH   1   2
BRANCH   1  13
ATOM     13  O   UNL     1      47.669   3.300  16.609  0.00  0.00    +0.000 OA
BRANCH  13  14
ATOM     14  C   UNL     1      48.970   3.496  16.992  0.00  0.00    +0.000 A 
ATOM     15  C   UNL     1      49.553   4.721  17.324  0.00  0.00    +0.000 A 
ATOM     16  C   UNL     1      50.894   4.779  17.707  0.00  0.00    +0.000 A 
ATOM     17  C   UNL     1      51.653   3.612  17.768  0.00  0.00    +0.000 A 
ATOM     18  C   UNL     1      51.082   2.373  17.444  0.00  0.00    +0.000 A 
ATOM     19  C   UNL     1      49.741   2.327  17.044  0.00  0.00    +0.000 A 
BRANCH  18  20
ATOM     20  C   UNL     1      51.939   1.161  17.569  0.00  0.00    +0.000 C 
ATOM     21  N   UNL     1      51.442   0.067  18.219  0.00  0.00    +0.000 N 
ATOM     22  O   UNL     1      53.077   1.134  17.114  0.00  0.00    +0.000 OA
ATOM     23  H   UNL     1      50.532   0.004  18.647  0.00  0.00    +0.000 HD
ATOM     24  H   UNL     1      52.065  -0.725  18.317  0.00  0.00    +0.000 HD
ENDBRANCH  18  20
ENDBRANCH  13  14
ENDBRANCH   1  13
TORSDOF 7
ENDMDL
MODEL 7
REMARK VINA RESULT:    -6.184      4.652      6.532
REMARK INTER + INTRA:          -9.233
REMARK INTER:                  -8.888
REMARK INTRA:                  -0.345
REMARK UNBOUND:                -0.700
REMARK  Name = 
REMARK  7 active torsions:
REMARK  status: ('A' for Active; 'I' for Inactive)
REMARK    1  A    between atoms: N_1  and  C_2
REMARK    2  A    between atoms: C_2  and  C_3
REMARK    3  A    between atoms: C_7  and  O_8
REMARK    4  A    between atoms: O_8  and  C_9
REMARK    5  A    between atoms: C_9  and  O_10
REMARK    6  A    between atoms: O_10  and  C_11
REMARK    7  A    between atoms: C_15  and  C_16
REMARK                            x       y       z     vdW  Elec       q    Type
REMARK                         _______ _______ _______ _____ _____    ______ ____
ROOT
ATOM      1  C   UNL     1      46.840   4.339  15.696  0.00  0.00    +0.000 C 
ENDROOT
BRANCH   1   2
ATOM      2  O   UNL     1      47.211   3.422  16.729  0.00  0.00    +0.000 OA
BRANCH   2   7
ATOM      3  C   UNL     1      50.662   2.470  17.412  0.00  0.00    +0.000 A 
ATOM      4  C   UNL     1      51.140   3.592  18.103  0.00  0.00    +0.000 A 
ATOM      5  C   UNL     1      50.307   4.679  18.351  0.00  0.00    +0.000 A 
ATOM      6  C   UNL     1      48.984   4.664  17.906  0.00  0.00    +0.000 A 
ATOM      7  C   UNL     1      48.486   3.557  17.216  0.00  0.00    +0.000 A 
ATOM      8  C   UNL     1      49.328   2.464  16.976  0.00  0.00    +0.000 A 
BRANCH   3   9
ATOM      9  C   UNL     1      51.579   1.312  17.111  0.00  0.00    +0.000 C 
BRANCH   9  10
ATOM     10  N   UNL     1      51.563   0.317  18.177  0.00  0.00    +0.000 NA
ATOM     11  H   UNL     1      51.805  -0.591  17.786  0.00  0.00    +0.000 HD
ATOM     12  H   UNL     1      50.610   0.233  18.530  0.00  0.00    +0.000 HD
ENDBRANCH   9  10
ENDBRANCH   3   9
ENDBRANCH   2   7
ENDBRANCH   1   2
BRANCH   1  13
ATOM     13  O   UNL     1      46.929   3.709  14.414  0.00  0.00    +0.000 OA
BRANCH  13  14
ATOM     14  C   UNL     1      46.568   4.478  13.339  0.00  0.00    +0.000 A 
ATOM     15  C   UNL     1      47.176   5.671  12.941  0.00  0.00    +0.000 A 
ATOM     16  C   UNL     1      46.711   6.353  11.816  0.00  0.00    +0.000 A 
ATOM     17  C   UNL     1      45.646   5.840  11.078  0.00  0.00    +0.000 A 
ATOM     18  C   UNL     1      45.028   4.640  11.460  0.00  0.00    +0.000 A 
ATOM     19  C   UNL     1      45.489   3.972  12.602  0.00  0.00    +0.000 A 
BRANCH  18  20
ATOM     20  C   UNL     1      43.921   4.129  10.606  0.00  0.00    +0.000 C 
ATOM     21  N   UNL     1      43.791   4.615   9.335  0.00  0.00    +0.000 N 
ATOM     22  O   UNL     1      43.123   3.296  11.024  0.00  0.00    +0.000 OA
ATOM     23  H   UNL     1      44.379   5.315   8.914  0.00  0.00    +0.000 HD
ATOM     24  H   UNL     1      43.006   4.272   8.796  0.00  0.00    +0.000 HD
ENDBRANCH  18  20
ENDBRANCH  13  14
ENDBRANCH   1  13
TORSDOF 7
ENDMDL
MODEL 8
REMARK VINA RESULT:    -6.152      2.554      3.795
REMARK INTER + INTRA:          -9.190
REMARK INTER:                  -8.288
REMARK INTRA:                  -0.902
REMARK UNBOUND:                -0.700
REMARK  Name = 
REMARK  7 active torsions:
REMARK  status: ('A' for Active; 'I' for Inactive)
REMARK    1  A    between atoms: N_1  and  C_2
REMARK    2  A    between atoms: C_2  and  C_3
REMARK    3  A    between atoms: C_7  and  O_8
REMARK    4  A    between atoms: O_8  and  C_9
REMARK    5  A    between atoms: C_9  and  O_10
REMARK    6  A    between atoms: O_10  and  C_11
REMARK    7  A    between atoms: C_15  and  C_16
REMARK                            x       y       z     vdW  Elec       q    Type
REMARK                         _______ _______ _______ _____ _____    ______ ____
ROOT
ATOM      1  C   UNL     1      46.992   4.290  13.667  0.00  0.00    +0.000 C 
ENDROOT
BRANCH   1   2
ATOM      2  O   UNL     1      47.364   5.518  14.298  0.00  0.00    +0.000 OA
BRANCH   2   7
ATOM      3  C   UNL     1      46.748   8.508  12.307  0.00  0.00    +0.000 A 
ATOM      4  C   UNL     1      48.014   8.755  11.757  0.00  0.00    +0.000 A 
ATOM      5  C   UNL     1      49.087   7.917  12.045  0.00  0.00    +0.000 A 
ATOM      6  C   UNL     1      48.913   6.822  12.894  0.00  0.00    +0.000 A 
ATOM      7  C   UNL     1      47.661   6.556  13.453  0.00  0.00    +0.000 A 
ATOM      8  C   UNL     1      46.585   7.400  13.153  0.00  0.00    +0.000 A 
BRANCH   3   9
ATOM      9  C   UNL     1      45.598   9.441  12.024  0.00  0.00    +0.000 C 
BRANCH   9  10
ATOM     10  N   UNL     1      44.380   8.712  11.688  0.00  0.00    +0.000 NA
ATOM     11  H   UNL     1      44.589   8.037  10.955  0.00  0.00    +0.000 HD
ATOM     12  H   UNL     1      43.707   9.367  11.292  0.00  0.00    +0.000 HD
ENDBRANCH   9  10
ENDBRANCH   3   9
ENDBRANCH   2   7
ENDBRANCH   1   2
BRANCH   1  13
ATOM     13  O   UNL     1      45.606   4.015  13.889  0.00  0.00    +0.000 OA
BRANCH  13  14
ATOM     14  C   UNL     1      44.746   4.409  12.897  0.00  0.00    +0.000 A 
ATOM     15  C   UNL     1      43.480   4.968  13.083  0.00  0.00    +0.000 A 
ATOM     16  C   UNL     1      42.707   5.334  11.980  0.00  0.00    +0.000 A 
ATOM     17  C   UNL     1      43.201   5.152  10.690  0.00  0.00    +0.000 A 
ATOM     18  C   UNL     1      44.473   4.598  10.486  0.00  0.00    +0.000 A 
ATOM     19  C   UNL     1      45.234   4.216  11.598  0.00  0.00    +0.000 A 
BRANCH  18  20
ATOM     20  C   UNL     1      44.955   4.467   9.083  0.00  0.00    +0.000 C 
ATOM     21  N   UNL     1      44.324   3.588   8.249  0.00  0.00    +0.000 N 
ATOM     22  O   UNL     1      45.908   5.120   8.671  0.00  0.00    +0.000 OA
ATOM     23  H   UNL     1      43.552   2.992   8.502  0.00  0.00    +0.000 HD
ATOM     24  H   UNL     1      44.702   3.498   7.314  0.00  0.00    +0.000 HD
ENDBRANCH  18  20
ENDBRANCH  13  14
ENDBRANCH   1  13
TORSDOF 7
ENDMDL
MODEL 9
REMARK VINA RESULT:    -6.053      2.628      6.038
REMARK INTER + INTRA:          -9.052
REMARK INTER:                  -8.313
REMARK INTRA:                  -0.739
REMARK UNBOUND:                -0.700
REMARK  Name = 
REMARK  7 active torsions:
REMARK  status: ('A' for Active; 'I' for Inactive)
REMARK    1  A    between atoms: N_1  and  C_2
REMARK    2  A    between atoms: C_2  and  C_3
REMARK    3  A    between atoms: C_7  and  O_8
REMARK    4  A    between atoms: O_8  and  C_9
REMARK    5  A    between atoms: C_9  and  O_10
REMARK    6  A    between atoms: O_10  and  C_11
REMARK    7  A    between atoms: C_15  and  C_16
REMARK                            x       y       z     vdW  Elec       q    Type
REMARK                         _______ _______ _______ _____ _____    ______ ____
ROOT
ATOM      1  C   UNL     1      46.634   4.657  14.304  0.00  0.00    +0.000 C 
ENDROOT
BRANCH   1   2
ATOM      2  O   UNL     1      46.086   3.613  13.494  0.00  0.00    +0.000 OA
BRANCH   2   7
ATOM      3  C   UNL     1      44.400   4.239  10.323  0.00  0.00    +0.000 A 
ATOM      4  C   UNL     1      43.137   4.674  10.748  0.00  0.00    +0.000 A 
ATOM      5  C   UNL     1      42.839   4.766  12.105  0.00  0.00    +0.000 A 
ATOM      6  C   UNL     1      43.798   4.419  13.058  0.00  0.00    +0.000 A 
ATOM      7  C   UNL     1      45.063   3.983  12.658  0.00  0.00    +0.000 A 
ATOM      8  C   UNL     1      45.358   3.899  11.292  0.00  0.00    +0.000 A 
BRANCH   3   9
ATOM      9  C   UNL     1      44.705   4.102   8.853  0.00  0.00    +0.000 C 
BRANCH   9  10
ATOM     10  N   UNL     1      45.737   5.041   8.425  0.00  0.00    +0.000 NA
ATOM     11  H   UNL     1      45.449   5.985   8.671  0.00  0.00    +0.000 HD
ATOM     12  H   UNL     1      45.799   5.015   7.408  0.00  0.00    +0.000 HD
ENDBRANCH   9  10
ENDBRANCH   3   9
ENDBRANCH   2   7
ENDBRANCH   1   2
BRANCH   1  13
ATOM     13  O   UNL     1      47.894   5.086  13.778  0.00  0.00    +0.000 OA
BRANCH  13  14
ATOM     14  C   UNL     1      47.898   6.295  13.133  0.00  0.00    +0.000 A 
ATOM     15  C   UNL     1      49.022   6.954  12.630  0.00  0.00    +0.000 A 
ATOM     16  C   UNL     1      48.883   8.183  11.985  0.00  0.00    +0.000 A 
ATOM     17  C   UNL     1      47.620   8.753  11.832  0.00  0.00    +0.000 A 
ATOM     18  C   UNL     1      46.481   8.102  12.326  0.00  0.00    +0.000 A 
ATOM     19  C   UNL     1      46.632   6.878  12.988  0.00  0.00    +0.000 A 
BRANCH  18  20
ATOM     20  C   UNL     1      45.159   8.748  12.094  0.00  0.00    +0.000 C 
ATOM     21  N   UNL     1      44.224   8.086  11.350  0.00  0.00    +0.000 N 
ATOM     22  O   UNL     1      44.903   9.860  12.544  0.00  0.00    +0.000 OA
ATOM     23  H   UNL     1      44.351   7.184  10.919  0.00  0.00    +0.000 HD
ATOM     24  H   UNL     1      43.351   8.571  11.182  0.00  0.00    +0.000 HD
ENDBRANCH  18  20
ENDBRANCH  13  14
ENDBRANCH   1  13
TORSDOF 7
ENDMDL
