MODEL 1
REMARK VINA RESULT:    -7.485      0.000      0.000
REMARK INTER + INTRA:         -10.927
REMARK INTER:                  -9.672
REMARK INTRA:                  -1.255
REMARK UNBOUND:                -1.255
REMARK  Name = 
REMARK  6 active torsions:
REMARK  status: ('A' for Active; 'I' for Inactive)
REMARK    1  A    between atoms: C_1  and  C_2
REMARK    2  A    between atoms: C_7  and  C_8
REMARK    3  A    between atoms: C_8  and  C_9
REMARK    4  A    between atoms: C_12  and  C_13
REMARK    5  A    between atoms: C_13  and  N_14
REMARK    6  A    between atoms: C_15  and  C_17
REMARK                            x       y       z     vdW  Elec       q    Type
REMARK                         _______ _______ _______ _____ _____    ______ ____
ROOT
ATOM      1  C   UNL     1      47.667   8.465  13.805  0.00  0.00    +0.000 C 
ENDROOT
BRANCH   1   5
ATOM      2  C   UNL     1      44.890   6.206  11.362  0.00  0.00    +0.000 A 
ATOM      3  C   UNL     1      46.007   5.588  11.939  0.00  0.00    +0.000 A 
ATOM      4  C   UNL     1      46.907   6.314  12.723  0.00  0.00    +0.000 A 
ATOM      5  C   UNL     1      46.720   7.685  12.934  0.00  0.00    +0.000 A 
ATOM      6  C   UNL     1      45.646   8.322  12.299  0.00  0.00    +0.000 A 
ATOM      7  C   UNL     1      44.734   7.589  11.532  0.00  0.00    +0.000 A 
BRANCH   2   8
ATOM      8  C   UNL     1      43.877   5.401  10.579  0.00  0.00    +0.000 C 
BRANCH   8  15
ATOM      9  C   UNL     1      43.462   2.452  11.266  0.00  0.00    +0.000 C 
ATOM     10  C   UNL     1      44.287   2.900  10.092  0.00  0.00    +0.000 A 
ATOM     11  C   UNL     1      44.921   1.912   9.317  0.00  0.00    +0.000 A 
ATOM     12  C   UNL     1      45.694   2.253   8.209  0.00  0.00    +0.000 A 
ATOM     13  C   UNL     1      45.830   3.588   7.849  0.00  0.00    +0.000 A 
ATOM     14  C   UNL     1      45.212   4.582   8.609  0.00  0.00    +0.000 A 
ATOM     15  C   UNL     1      44.451   4.262   9.752  0.00  0.00    +0.000 A 
ENDBRANCH   8  15
ENDBRANCH   2   8
ENDBRANCH   1   5
BRANCH   1  16
ATOM     16  N   UNL     1      47.978   7.757  15.020  0.00  0.00    +0.000 N 
ATOM     17  C   UNL     1      49.172   7.102  15.166  0.00  0.00    +0.000 C 
ATOM     18  O   UNL     1      50.040   7.129  14.300  0.00  0.00    +0.000 OA
ATOM     19  H   UNL     1      47.202   7.539  15.639  0.00  0.00    +0.000 HD
BRANCH  17  20
ATOM     20  C   UNL     1      49.392   6.409  16.444  0.00  0.00    +0.000 A 
ATOM     21  C   UNL     1      50.372   6.870  17.313  0.00  0.00    +0.000 A 
ATOM     22  S   UNL     1      50.480   5.978  18.761  0.00  0.00    +0.000 S 
ATOM     23  C   UNL     1      49.249   4.914  18.260  0.00  0.00    +0.000 A 
ATOM     24  N   UNL     1      48.862   3.874  19.047  0.00  0.00    +0.000 NA
ATOM     25  C   UNL     1      47.940   3.132  18.533  0.00  0.00    +0.000 A 
ATOM     26  N   UNL     1      47.363   3.340  17.307  0.00  0.00    +0.000 N 
ATOM     27  C   UNL     1      47.701   4.394  16.491  0.00  0.00    +0.000 A 
ATOM     28  O   UNL     1      47.134   4.575  15.417  0.00  0.00    +0.000 OA
ATOM     29  C   UNL     1      48.748   5.250  17.015  0.00  0.00    +0.000 A 
ATOM     30  H   UNL     1      46.636   2.728  16.967  0.00  0.00    +0.000 HD
ENDBRANCH  17  20
ENDBRANCH   1  16
TORSDOF 5
ENDMDL
MODEL 2
REMARK VINA RESULT:    -7.339      1.770      2.201
REMARK INTER + INTRA:         -10.739
REMARK INTER:                  -9.706
REMARK INTRA:                  -1.034
REMARK UNBOUND:                -1.255
REMARK  Name = 
REMARK  6 active torsions:
REMARK  status: ('A' for Active; 'I' for Inactive)
REMARK    1  A    between atoms: C_1  and  C_2
REMARK    2  A    between atoms: C_7  and  C_8
REMARK    3  A    between atoms: C_8  and  C_9
REMARK    4  A    between atoms: C_12  and  C_13
REMARK    5  A    between atoms: C_13  and  N_14
REMARK    6  A    between atoms: C_15  and  C_17
REMARK                            x       y       z     vdW  Elec       q    Type
REMARK                         _______ _______ _______ _____ _____    ______ ____
ROOT
ATOM      1  C   UNL     1      48.943   6.913  14.278  0.00  0.00    +0.000 C 
ENDROOT
BRANCH   1   5
ATOM      2  C   UNL     1      45.468   5.856  11.916  0.00  0.00    +0.000 A 
ATOM      3  C   UNL     1      46.213   7.005  11.623  0.00  0.00    +0.000 A 
ATOM      4  C   UNL     1      47.332   7.351  12.385  0.00  0.00    +0.000 A 
ATOM      5  C   UNL     1      47.720   6.564  13.475  0.00  0.00    +0.000 A 
ATOM      6  C   UNL     1      46.934   5.456  13.817  0.00  0.00    +0.000 A 
ATOM      7  C   UNL     1      45.828   5.098  13.039  0.00  0.00    +0.000 A 
BRANCH   2   8
ATOM      8  C   UNL     1      44.305   5.442  11.041  0.00  0.00    +0.000 C 
BRANCH   8  15
ATOM      9  C   UNL     1      43.428   2.545  11.457  0.00  0.00    +0.000 C 
ATOM     10  C   UNL     1      44.226   2.984  10.261  0.00  0.00    +0.000 A 
ATOM     11  C   UNL     1      44.612   2.003   9.330  0.00  0.00    +0.000 A 
ATOM     12  C   UNL     1      45.344   2.338   8.193  0.00  0.00    +0.000 A 
ATOM     13  C   UNL     1      45.686   3.664   7.960  0.00  0.00    +0.000 A 
ATOM     14  C   UNL     1      45.316   4.650   8.876  0.00  0.00    +0.000 A 
ATOM     15  C   UNL     1      44.602   4.329  10.048  0.00  0.00    +0.000 A 
ENDBRANCH   8  15
ENDBRANCH   2   8
ENDBRANCH   1   5
BRANCH   1  16
ATOM     16  N   UNL     1      48.624   7.124  15.667  0.00  0.00    +0.000 N 
ATOM     17  C   UNL     1      49.379   6.550  16.656  0.00  0.00    +0.000 C 
ATOM     18  O   UNL     1      50.376   5.880  16.410  0.00  0.00    +0.000 OA
ATOM     19  H   UNL     1      47.696   7.478  15.880  0.00  0.00    +0.000 HD
BRANCH  17  20
ATOM     20  C   UNL     1      48.970   6.827  18.042  0.00  0.00    +0.000 A 
ATOM     21  C   UNL     1      48.740   8.138  18.439  0.00  0.00    +0.000 A 
ATOM     22  S   UNL     1      48.244   8.286  20.063  0.00  0.00    +0.000 S 
ATOM     23  C   UNL     1      48.361   6.605  20.307  0.00  0.00    +0.000 A 
ATOM     24  N   UNL     1      48.091   6.056  21.522  0.00  0.00    +0.000 NA
ATOM     25  C   UNL     1      48.246   4.776  21.574  0.00  0.00    +0.000 A 
ATOM     26  N   UNL     1      48.638   3.993  20.519  0.00  0.00    +0.000 N 
ATOM     27  C   UNL     1      48.893   4.500  19.267  0.00  0.00    +0.000 A 
ATOM     28  O   UNL     1      49.202   3.765  18.333  0.00  0.00    +0.000 OA
ATOM     29  C   UNL     1      48.751   5.939  19.159  0.00  0.00    +0.000 A 
ATOM     30  H   UNL     1      48.729   2.993  20.623  0.00  0.00    +0.000 HD
ENDBRANCH  17  20
ENDBRANCH   1  16
TORSDOF 5
ENDMDL
MODEL 3
REMARK VINA RESULT:    -7.327      3.975      9.373
REMARK INTER + INTRA:         -10.723
REMARK INTER:                  -9.535
REMARK INTRA:                  -1.188
REMARK UNBOUND:                -1.255
REMARK  Name = 
REMARK  6 active torsions:
REMARK  status: ('A' for Active; 'I' for Inactive)
REMARK    1  A    between atoms: C_1  and  C_2
REMARK    2  A    between atoms: C_7  and  C_8
REMARK    3  A    between atoms: C_8  and  C_9
REMARK    4  A    between atoms: C_12  and  C_13
REMARK    5  A    between atoms: C_13  and  N_14
REMARK    6  A    between atoms: C_15  and  C_17
REMARK                            x       y       z     vdW  Elec       q    Type
REMARK                         _______ _______ _______ _____ _____    ______ ____
ROOT
ATOM      1  C   UNL     1      47.196   3.501  16.753  0.00  0.00    +0.000 C 
ENDROOT
BRANCH   1   5
ATOM      2  C   UNL     1      51.395   4.254  17.513  0.00  0.00    +0.000 A 
ATOM      3  C   UNL     1      50.895   2.946  17.473  0.00  0.00    +0.000 A 
ATOM      4  C   UNL     1      49.542   2.700  17.233  0.00  0.00    +0.000 A 
ATOM      5  C   UNL     1      48.649   3.761  17.046  0.00  0.00    +0.000 A 
ATOM      6  C   UNL     1      49.130   5.072  17.158  0.00  0.00    +0.000 A 
ATOM      7  C   UNL     1      50.491   5.316  17.377  0.00  0.00    +0.000 A 
BRANCH   2   8
ATOM      8  C   UNL     1      52.874   4.513  17.695  0.00  0.00    +0.000 C 
BRANCH   8  15
ATOM      9  C   UNL     1      54.857   2.190  17.604  0.00  0.00    +0.000 C 
ATOM     10  C   UNL     1      54.384   2.798  18.895  0.00  0.00    +0.000 A 
ATOM     11  C   UNL     1      54.847   2.235  20.098  0.00  0.00    +0.000 A 
ATOM     12  C   UNL     1      54.457   2.753  21.332  0.00  0.00    +0.000 A 
ATOM     13  C   UNL     1      53.612   3.853  21.380  0.00  0.00    +0.000 A 
ATOM     14  C   UNL     1      53.138   4.422  20.197  0.00  0.00    +0.000 A 
ATOM     15  C   UNL     1      53.494   3.896  18.939  0.00  0.00    +0.000 A 
ENDBRANCH   8  15
ENDBRANCH   2   8
ENDBRANCH   1   5
BRANCH   1  16
ATOM     16  N   UNL     1      46.670   4.440  15.796  0.00  0.00    +0.000 N 
ATOM     17  C   UNL     1      46.750   4.192  14.451  0.00  0.00    +0.000 C 
ATOM     18  O   UNL     1      47.223   3.152  14.007  0.00  0.00    +0.000 OA
ATOM     19  H   UNL     1      46.486   5.383  16.127  0.00  0.00    +0.000 HD
BRANCH  17  20
ATOM     20  C   UNL     1      46.184   5.215  13.557  0.00  0.00    +0.000 A 
ATOM     21  C   UNL     1      46.920   6.357  13.273  0.00  0.00    +0.000 A 
ATOM     22  S   UNL     1      46.138   7.427  12.200  0.00  0.00    +0.000 S 
ATOM     23  C   UNL     1      44.767   6.421  12.112  0.00  0.00    +0.000 A 
ATOM     24  N   UNL     1      43.689   6.775  11.362  0.00  0.00    +0.000 NA
ATOM     25  C   UNL     1      42.710   5.935  11.408  0.00  0.00    +0.000 A 
ATOM     26  N   UNL     1      42.715   4.768  12.127  0.00  0.00    +0.000 N 
ATOM     27  C   UNL     1      43.793   4.356  12.875  0.00  0.00    +0.000 A 
ATOM     28  O   UNL     1      43.780   3.284  13.473  0.00  0.00    +0.000 OA
ATOM     29  C   UNL     1      44.915   5.275  12.872  0.00  0.00    +0.000 A 
ATOM     30  H   UNL     1      41.919   4.147  12.110  0.00  0.00    +0.000 HD
ENDBRANCH  17  20
ENDBRANCH   1  16
TORSDOF 5
ENDMDL
MODEL 4
REMARK VINA RESULT:    -7.323      2.168      2.743
REMARK INTER + INTRA:         -10.718
REMARK INTER:                  -9.414
REMARK INTRA:                  -1.305
REMARK UNBOUND:                -1.255
REMARK  Name = 
REMARK  6 active torsions:
REMARK  status: ('A' for Active; 'I' for Inactive)
REMARK    1  A    between atoms: C_1  and  C_2
REMARK    2  A    between atoms: C_7  and  C_8
REMARK    3  A    between atoms: C_8  and  C_9
REMARK    4  A    between atoms: C_12  and  C_13
REMARK    5  A    between atoms: C_13  and  N_14
REMARK    6  A    between atoms: C_15  and  C_17
REMARK                            x       y       z     vdW  Elec       q    Type
REMARK                         _______ _______ _______ _____ _____    ______ ____
ROOT
ATOM      1  C   UNL     1      48.796   6.927  14.469  0.00  0.00    +0.000 C 
ENDROOT
BRANCH   1   5
ATOM      2  C   UNL     1      45.483   5.903  11.870  0.00  0.00    +0.000 A 
ATOM      3  C   UNL     1      46.097   7.159  11.790  0.00  0.00    +0.000 A 
ATOM      4  C   UNL     1      47.163   7.495  12.629  0.00  0.00    +0.000 A 
ATOM      5  C   UNL     1      47.627   6.584  13.585  0.00  0.00    +0.000 A 
ATOM      6  C   UNL     1      46.967   5.356  13.719  0.00  0.00    +0.000 A 
ATOM      7  C   UNL     1      45.915   5.014  12.863  0.00  0.00    +0.000 A 
BRANCH   2   8
ATOM      8  C   UNL     1      44.382   5.517  10.907  0.00  0.00    +0.000 C 
BRANCH   8  15
ATOM      9  C   UNL     1      43.472   2.631  11.335  0.00  0.00    +0.000 C 
ATOM     10  C   UNL     1      44.329   3.044  10.171  0.00  0.00    +0.000 A 
ATOM     11  C   UNL     1      44.756   2.043   9.279  0.00  0.00    +0.000 A 
ATOM     12  C   UNL     1      45.545   2.354   8.174  0.00  0.00    +0.000 A 
ATOM     13  C   UNL     1      45.905   3.674   7.933  0.00  0.00    +0.000 A 
ATOM     14  C   UNL     1      45.494   4.679   8.811  0.00  0.00    +0.000 A 
ATOM     15  C   UNL     1      44.722   4.384   9.952  0.00  0.00    +0.000 A 
ENDBRANCH   8  15
ENDBRANCH   2   8
ENDBRANCH   1   5
BRANCH   1  16
ATOM     16  N   UNL     1      48.494   6.706  15.860  0.00  0.00    +0.000 N 
ATOM     17  C   UNL     1      49.408   6.116  16.692  0.00  0.00    +0.000 C 
ATOM     18  O   UNL     1      50.528   5.797  16.309  0.00  0.00    +0.000 OA
ATOM     19  H   UNL     1      47.516   6.754  16.134  0.00  0.00    +0.000 HD
BRANCH  17  20
ATOM     20  C   UNL     1      49.002   5.934  18.094  0.00  0.00    +0.000 A 
ATOM     21  C   UNL     1      49.154   4.691  18.695  0.00  0.00    +0.000 A 
ATOM     22  S   UNL     1      48.666   4.654  20.328  0.00  0.00    +0.000 S 
ATOM     23  C   UNL     1      48.191   6.288  20.278  0.00  0.00    +0.000 A 
ATOM     24  N   UNL     1      47.649   6.891  21.370  0.00  0.00    +0.000 NA
ATOM     25  C   UNL     1      47.309   8.122  21.185  0.00  0.00    +0.000 A 
ATOM     26  N   UNL     1      47.470   8.809  20.010  0.00  0.00    +0.000 N 
ATOM     27  C   UNL     1      48.040   8.250  18.890  0.00  0.00    +0.000 A 
ATOM     28  O   UNL     1      48.208   8.906  17.866  0.00  0.00    +0.000 OA
ATOM     29  C   UNL     1      48.424   6.859  19.040  0.00  0.00    +0.000 A 
ATOM     30  H   UNL     1      47.193   9.776  19.934  0.00  0.00    +0.000 HD
ENDBRANCH  17  20
ENDBRANCH   1  16
TORSDOF 5
ENDMDL
MODEL 5
REMARK VINA RESULT:    -6.931      4.715      9.057
REMARK INTER + INTRA:         -10.211
REMARK INTER:                  -8.898
REMARK INTRA:                  -1.313
REMARK UNBOUND:                -1.255
REMARK  Name = 
REMARK  6 active torsions:
REMARK  status: ('A' for Active; 'I' for Inactive)
REMARK    1  A    between atoms: C_1  and  C_2
REMARK    2  A    between atoms: C_7  and  C_8
REMARK    3  A    between atoms: C_8  and  C_9
REMARK    4  A    between atoms: C_12  and  C_13
REMARK    5  A    between atoms: C_13  and  N_14
REMARK    6  A    between atoms: C_15  and  C_17
REMARK                            x       y       z     vdW  Elec       q    Type
REMARK                         _______ _______ _______ _____ _____    ______ ____
ROOT
ATOM      1  C   UNL     1      48.822   5.941  16.423  0.00  0.00    +0.000 C 
ENDROOT
BRANCH   1   5
ATOM      2  C   UNL     1      48.186   9.133  19.283  0.00  0.00    +0.000 A 
ATOM      3  C   UNL     1      47.890   7.804  19.612  0.00  0.00    +0.000 A 
ATOM      4  C   UNL     1      48.089   6.773  18.691  0.00  0.00    +0.000 A 
ATOM      5  C   UNL     1      48.573   7.051  17.407  0.00  0.00    +0.000 A 
ATOM      6  C   UNL     1      48.800   8.386  17.050  0.00  0.00    +0.000 A 
ATOM      7  C   UNL     1      48.621   9.415  17.981  0.00  0.00    +0.000 A 
BRANCH   2   8
ATOM      8  C   UNL     1      48.043  10.235  20.309  0.00  0.00    +0.000 C 
BRANCH   8  15
ATOM      9  C   UNL     1      47.664  12.842  18.761  0.00  0.00    +0.000 C 
ATOM     10  C   UNL     1      46.566  12.221  19.578  0.00  0.00    +0.000 A 
ATOM     11  C   UNL     1      45.338  12.902  19.657  0.00  0.00    +0.000 A 
ATOM     12  C   UNL     1      44.272  12.381  20.389  0.00  0.00    +0.000 A 
ATOM     13  C   UNL     1      44.414  11.161  21.038  0.00  0.00    +0.000 A 
ATOM     14  C   UNL     1      45.627  10.474  20.974  0.00  0.00    +0.000 A 
ATOM     15  C   UNL     1      46.728  10.997  20.266  0.00  0.00    +0.000 A 
ENDBRANCH   8  15
ENDBRANCH   2   8
ENDBRANCH   1   5
BRANCH   1  16
ATOM     16  N   UNL     1      47.770   5.854  15.442  0.00  0.00    +0.000 N 
ATOM     17  C   UNL     1      47.978   6.261  14.151  0.00  0.00    +0.000 C 
ATOM     18  O   UNL     1      49.068   6.666  13.763  0.00  0.00    +0.000 OA
ATOM     19  H   UNL     1      46.822   5.738  15.790  0.00  0.00    +0.000 HD
BRANCH  17  20
ATOM     20  C   UNL     1      46.840   6.132  13.227  0.00  0.00    +0.000 A 
ATOM     21  C   UNL     1      46.301   7.271  12.644  0.00  0.00    +0.000 A 
ATOM     22  S   UNL     1      45.010   6.949  11.578  0.00  0.00    +0.000 S 
ATOM     23  C   UNL     1      45.096   5.279  11.892  0.00  0.00    +0.000 A 
ATOM     24  N   UNL     1      44.229   4.412  11.303  0.00  0.00    +0.000 NA
ATOM     25  C   UNL     1      44.390   3.179  11.651  0.00  0.00    +0.000 A 
ATOM     26  N   UNL     1      45.345   2.733  12.528  0.00  0.00    +0.000 N 
ATOM     27  C   UNL     1      46.260   3.568  13.124  0.00  0.00    +0.000 A 
ATOM     28  O   UNL     1      47.129   3.129  13.872  0.00  0.00    +0.000 OA
ATOM     29  C   UNL     1      46.111   4.969  12.780  0.00  0.00    +0.000 A 
ATOM     30  H   UNL     1      45.425   1.752  12.749  0.00  0.00    +0.000 HD
ENDBRANCH  17  20
ENDBRANCH   1  16
TORSDOF 5
ENDMDL
MODEL 6
REMARK VINA RESULT:    -6.851      3.711      8.252
REMARK INTER + INTRA:         -10.108
REMARK INTER:                  -8.817
REMARK INTRA:                  -1.291
REMARK UNBOUND:                -1.255
REMARK  Name = 
REMARK  6 active torsions:
REMARK  status: ('A' for Active; 'I' for Inactive)
REMARK    1  A    between atoms: C_1  and  C_2
REMARK    2  A    between atoms: C_7  and  C_8
REMARK    3  A    between atoms: C_8  and  C_9
REMARK    4  A    between atoms: C_12  and  C_13
REMARK    5  A    between atoms: C_13  and  N_14
REMARK    6  A    between atoms: C_15  and  C_17
REMARK                            x       y       z     vdW  Elec       q    Type
REMARK                         _______ _______ _______ _____ _____    ______ ____
ROOT
ATOM      1  C   UNL     1      48.125   7.124  13.354  0.00  0.00    +0.000 C 
ENDROOT
BRANCH   1   5
ATOM      2  C   UNL     1      49.316   5.354  17.126  0.00  0.00    +0.000 A 
ATOM      3  C   UNL     1      48.125   4.971  16.497  0.00  0.00    +0.000 A 
ATOM      4  C   UNL     1      47.735   5.543  15.283  0.00  0.00    +0.000 A 
ATOM      5  C   UNL     1      48.522   6.529  14.678  0.00  0.00    +0.000 A 
ATOM      6  C   UNL     1      49.676   6.968  15.340  0.00  0.00    +0.000 A 
ATOM      7  C   UNL     1      50.076   6.379  16.544  0.00  0.00    +0.000 A 
BRANCH   2   8
ATOM      8  C   UNL     1      49.773   4.676  18.399  0.00  0.00    +0.000 C 
BRANCH   8  15
ATOM      9  C   UNL     1      50.237   1.969  17.060  0.00  0.00    +0.000 C 
ATOM     10  C   UNL     1      51.338   2.735  17.737  0.00  0.00    +0.000 A 
ATOM     11  C   UNL     1      52.616   2.148  17.785  0.00  0.00    +0.000 A 
ATOM     12  C   UNL     1      53.687   2.804  18.389  0.00  0.00    +0.000 A 
ATOM     13  C   UNL     1      53.500   4.066  18.938  0.00  0.00    +0.000 A 
ATOM     14  C   UNL     1      52.238   4.662  18.904  0.00  0.00    +0.000 A 
ATOM     15  C   UNL     1      51.134   4.003  18.326  0.00  0.00    +0.000 A 
ENDBRANCH   8  15
ENDBRANCH   2   8
ENDBRANCH   1   5
BRANCH   1  16
ATOM     16  N   UNL     1      47.418   6.174  12.534  0.00  0.00    +0.000 N 
ATOM     17  C   UNL     1      46.352   6.564  11.768  0.00  0.00    +0.000 C 
ATOM     18  O   UNL     1      45.985   7.732  11.707  0.00  0.00    +0.000 OA
ATOM     19  H   UNL     1      47.560   5.189  12.741  0.00  0.00    +0.000 HD
BRANCH  17  20
ATOM     20  C   UNL     1      45.697   5.517  10.968  0.00  0.00    +0.000 A 
ATOM     21  C   UNL     1      45.763   5.575   9.582  0.00  0.00    +0.000 A 
ATOM     22  S   UNL     1      44.983   4.274   8.804  0.00  0.00    +0.000 S 
ATOM     23  C   UNL     1      44.491   3.609  10.292  0.00  0.00    +0.000 A 
ATOM     24  N   UNL     1      43.744   2.474  10.336  0.00  0.00    +0.000 NA
ATOM     25  C   UNL     1      43.418   2.097  11.527  0.00  0.00    +0.000 A 
ATOM     26  N   UNL     1      43.779   2.747  12.678  0.00  0.00    +0.000 N 
ATOM     27  C   UNL     1      44.557   3.881  12.683  0.00  0.00    +0.000 A 
ATOM     28  O   UNL     1      44.897   4.415  13.735  0.00  0.00    +0.000 OA
ATOM     29  C   UNL     1      44.936   4.357  11.367  0.00  0.00    +0.000 A 
ATOM     30  H   UNL     1      43.500   2.393  13.581  0.00  0.00    +0.000 HD
ENDBRANCH  17  20
ENDBRANCH   1  16
TORSDOF 5
ENDMDL
MODEL 7
REMARK VINA RESULT:    -6.739      3.967      9.098
REMARK INTER + INTRA:          -9.963
REMARK INTER:                  -8.633
REMARK INTRA:                  -1.330
REMARK UNBOUND:                -1.255
REMARK  Name = 
REMARK  6 active torsions:
REMARK  status: ('A' for Active; 'I' for Inactive)
REMARK    1  A    between atoms: C_1  and  C_2
REMARK    2  A    between atoms: C_7  and  C_8
REMARK    3  A    between atoms: C_8  and  C_9
REMARK    4  A    between atoms: C_12  and  C_13
REMARK    5  A    between atoms: C_13  and  N_14
REMARK    6  A    between atoms: C_15  and  C_17
REMARK                            x       y       z     vdW  Elec       q    Type
REMARK                         _______ _______ _______ _____ _____    ______ ____
ROOT
ATOM      1  C   UNL     1      47.511   3.924  16.351  0.00  0.00    +0.000 C 
ENDROOT
BRANCH   1   5
ATOM      2  C   UNL     1      48.682   7.068  19.094  0.00  0.00    +0.000 A 
ATOM      3  C   UNL     1      49.441   6.793  17.950  0.00  0.00    +0.000 A 
ATOM      4  C   UNL     1      49.070   5.777  17.066  0.00  0.00    +0.000 A 
ATOM      5  C   UNL     1      47.936   4.997  17.317  0.00  0.00    +0.000 A 
ATOM      6  C   UNL     1      47.215   5.219  18.498  0.00  0.00    +0.000 A 
ATOM      7  C   UNL     1      47.576   6.251  19.371  0.00  0.00    +0.000 A 
BRANCH   2   8
ATOM      8  C   UNL     1      49.044   8.218  20.007  0.00  0.00    +0.000 C 
BRANCH   8  15
ATOM      9  C   UNL     1      47.023   8.476  22.285  0.00  0.00    +0.000 C 
ATOM     10  C   UNL     1      47.058   9.430  21.123  0.00  0.00    +0.000 A 
ATOM     11  C   UNL     1      46.088  10.448  21.077  0.00  0.00    +0.000 A 
ATOM     12  C   UNL     1      46.065  11.373  20.035  0.00  0.00    +0.000 A 
ATOM     13  C   UNL     1      47.024  11.305  19.033  0.00  0.00    +0.000 A 
ATOM     14  C   UNL     1      47.991  10.299  19.060  0.00  0.00    +0.000 A 
ATOM     15  C   UNL     1      48.014   9.334  20.087  0.00  0.00    +0.000 A 
ENDBRANCH   8  15
ENDBRANCH   2   8
ENDBRANCH   1   5
BRANCH   1  16
ATOM     16  N   UNL     1      46.585   4.428  15.369  0.00  0.00    +0.000 N 
ATOM     17  C   UNL     1      46.676   4.048  14.057  0.00  0.00    +0.000 C 
ATOM     18  O   UNL     1      47.508   3.235  13.670  0.00  0.00    +0.000 OA
ATOM     19  H   UNL     1      46.049   5.254  15.622  0.00  0.00    +0.000 HD
BRANCH  17  20
ATOM     20  C   UNL     1      45.683   4.620  13.134  0.00  0.00    +0.000 A 
ATOM     21  C   UNL     1      44.725   3.793  12.562  0.00  0.00    +0.000 A 
ATOM     22  S   UNL     1      43.631   4.613  11.544  0.00  0.00    +0.000 S 
ATOM     23  C   UNL     1      44.427   6.097  11.795  0.00  0.00    +0.000 A 
ATOM     24  N   UNL     1      44.003   7.230  11.175  0.00  0.00    +0.000 NA
ATOM     25  C   UNL     1      44.713   8.277  11.433  0.00  0.00    +0.000 A 
ATOM     26  N   UNL     1      45.804   8.294  12.263  0.00  0.00    +0.000 N 
ATOM     27  C   UNL     1      46.251   7.180  12.933  0.00  0.00    +0.000 A 
ATOM     28  O   UNL     1      47.207   7.241  13.701  0.00  0.00    +0.000 OA
ATOM     29  C   UNL     1      45.497   5.971  12.663  0.00  0.00    +0.000 A 
ATOM     30  H   UNL     1      46.311   9.151  12.432  0.00  0.00    +0.000 HD
ENDBRANCH  17  20
ENDBRANCH   1  16
TORSDOF 5
ENDMDL
MODEL 8
REMARK VINA RESULT:    -6.658      3.649      8.326
REMARK INTER + INTRA:          -9.859
REMARK INTER:                  -8.481
REMARK INTRA:                  -1.377
REMARK UNBOUND:                -1.255
REMARK  Name = 
REMARK  6 active torsions:
REMARK  status: ('A' for Active; 'I' for Inactive)
REMARK    1  A    between atoms: C_1  and  C_2
REMARK    2  A    between atoms: C_7  and  C_8
REMARK    3  A    between atoms: C_8  and  C_9
REMARK    4  A    between atoms: C_12  and  C_13
REMARK    5  A    between atoms: C_13  and  N_14
REMARK    6  A    between atoms: C_15  and  C_17
REMARK                            x       y       z     vdW  Elec       q    Type
REMARK                         _______ _______ _______ _____ _____    ______ ____
ROOT
ATOM      1  C   UNL     1      47.788   7.950  11.984  0.00  0.00    +0.000 C 
ENDROOT
BRANCH   1   5
ATOM      2  C   UNL     1      49.365   8.144  16.016  0.00  0.00    +0.000 A 
ATOM      3  C   UNL     1      48.325   8.990  15.609  0.00  0.00    +0.000 A 
ATOM      4  C   UNL     1      47.817   8.933  14.309  0.00  0.00    +0.000 A 
ATOM      5  C   UNL     1      48.353   8.039  13.375  0.00  0.00    +0.000 A 
ATOM      6  C   UNL     1      49.442   7.244  13.755  0.00  0.00    +0.000 A 
ATOM      7  C   UNL     1      49.935   7.287  15.064  0.00  0.00    +0.000 A 
BRANCH   2   8
ATOM      8  C   UNL     1      49.858   8.155  17.445  0.00  0.00    +0.000 C 
BRANCH   8  15
ATOM      9  C   UNL     1      47.336   8.623  19.105  0.00  0.00    +0.000 C 
ATOM     10  C   UNL     1      48.101   7.330  19.145  0.00  0.00    +0.000 A 
ATOM     11  C   UNL     1      47.649   6.324  20.019  0.00  0.00    +0.000 A 
ATOM     12  C   UNL     1      48.304   5.097  20.103  0.00  0.00    +0.000 A 
ATOM     13  C   UNL     1      49.410   4.850  19.299  0.00  0.00    +0.000 A 
ATOM     14  C   UNL     1      49.874   5.839  18.430  0.00  0.00    +0.000 A 
ATOM     15  C   UNL     1      49.247   7.098  18.352  0.00  0.00    +0.000 A 
ENDBRANCH   8  15
ENDBRANCH   2   8
ENDBRANCH   1   5
BRANCH   1  16
ATOM     16  N   UNL     1      47.064   6.721  11.781  0.00  0.00    +0.000 N 
ATOM     17  C   UNL     1      45.714   6.657  12.003  0.00  0.00    +0.000 C 
ATOM     18  O   UNL     1      45.060   7.640  12.333  0.00  0.00    +0.000 OA
ATOM     19  H   UNL     1      47.610   5.866  11.730  0.00  0.00    +0.000 HD
BRANCH  17  20
ATOM     20  C   UNL     1      45.069   5.356  11.768  0.00  0.00    +0.000 A 
ATOM     21  C   UNL     1      44.390   4.732  12.807  0.00  0.00    +0.000 A 
ATOM     22  S   UNL     1      43.674   3.249  12.365  0.00  0.00    +0.000 S 
ATOM     23  C   UNL     1      44.284   3.366  10.780  0.00  0.00    +0.000 A 
ATOM     24  N   UNL     1      44.051   2.384   9.868  0.00  0.00    +0.000 NA
ATOM     25  C   UNL     1      44.595   2.588   8.715  0.00  0.00    +0.000 A 
ATOM     26  N   UNL     1      45.342   3.690   8.388  0.00  0.00    +0.000 N 
ATOM     27  C   UNL     1      45.578   4.720   9.267  0.00  0.00    +0.000 A 
ATOM     28  O   UNL     1      46.216   5.713   8.927  0.00  0.00    +0.000 OA
ATOM     29  C   UNL     1      45.003   4.532  10.585  0.00  0.00    +0.000 A 
ATOM     30  H   UNL     1      45.730   3.795   7.462  0.00  0.00    +0.000 HD
ENDBRANCH  17  20
ENDBRANCH   1  16
TORSDOF 5
ENDMDL
MODEL 9
REMARK VINA RESULT:    -6.657      5.444      7.878
REMARK INTER + INTRA:          -9.857
REMARK INTER:                  -8.701
REMARK INTRA:                  -1.156
REMARK UNBOUND:                -1.255
REMARK  Name = 
REMARK  6 active torsions:
REMARK  status: ('A' for Active; 'I' for Inactive)
REMARK    1  A    between atoms: C_1  and  C_2
REMARK    2  A    between atoms: C_7  and  C_8
REMARK    3  A    between atoms: C_8  and  C_9
REMARK    4  A    between atoms: C_12  and  C_13
REMARK    5  A    between atoms: C_13  and  N_14
REMARK    6  A    between atoms: C_15  and  C_17
REMARK                            x       y       z     vdW  Elec       q    Type
REMARK                         _______ _______ _______ _____ _____    ______ ____
ROOT
ATOM      1  C   UNL     1      46.876   8.408  12.718  0.00  0.00    +0.000 C 
ENDROOT
BRANCH   1   5
ATOM      2  C   UNL     1      50.950   8.656  11.261  0.00  0.00    +0.000 A 
ATOM      3  C   UNL     1      50.180   9.812  11.443  0.00  0.00    +0.000 A 
ATOM      4  C   UNL     1      48.865   9.736  11.908  0.00  0.00    +0.000 A 
ATOM      5  C   UNL     1      48.280   8.494  12.185  0.00  0.00    +0.000 A 
ATOM      6  C   UNL     1      49.021   7.332  11.934  0.00  0.00    +0.000 A 
ATOM      7  C   UNL     1      50.345   7.412  11.489  0.00  0.00    +0.000 A 
BRANCH   2   8
ATOM      8  C   UNL     1      52.397   8.749  10.833  0.00  0.00    +0.000 C 
BRANCH   8  15
ATOM      9  C   UNL     1      52.660  10.783   8.567  0.00  0.00    +0.000 C 
ATOM     10  C   UNL     1      52.760   9.301   8.338  0.00  0.00    +0.000 A 
ATOM     11  C   UNL     1      52.937   8.848   7.018  0.00  0.00    +0.000 A 
ATOM     12  C   UNL     1      53.047   7.489   6.732  0.00  0.00    +0.000 A 
ATOM     13  C   UNL     1      52.999   6.562   7.765  0.00  0.00    +0.000 A 
ATOM     14  C   UNL     1      52.819   6.992   9.080  0.00  0.00    +0.000 A 
ATOM     15  C   UNL     1      52.674   8.360   9.389  0.00  0.00    +0.000 A 
ENDBRANCH   8  15
ENDBRANCH   2   8
ENDBRANCH   1   5
BRANCH   1  16
ATOM     16  N   UNL     1      46.314   7.095  12.525  0.00  0.00    +0.000 N 
ATOM     17  C   UNL     1      45.211   6.913  11.732  0.00  0.00    +0.000 C 
ATOM     18  O   UNL     1      44.688   7.838  11.121  0.00  0.00    +0.000 OA
ATOM     19  H   UNL     1      46.588   6.374  13.185  0.00  0.00    +0.000 HD
BRANCH  17  20
ATOM     20  C   UNL     1      44.715   5.535  11.601  0.00  0.00    +0.000 A 
ATOM     21  C   UNL     1      44.009   4.960  12.650  0.00  0.00    +0.000 A 
ATOM     22  S   UNL     1      43.477   3.372  12.329  0.00  0.00    +0.000 S 
ATOM     23  C   UNL     1      44.211   3.379  10.793  0.00  0.00    +0.000 A 
ATOM     24  N   UNL     1      44.154   2.286   9.987  0.00  0.00    +0.000 NA
ATOM     25  C   UNL     1      44.775   2.419   8.864  0.00  0.00    +0.000 A 
ATOM     26  N   UNL     1      45.441   3.550   8.469  0.00  0.00    +0.000 N 
ATOM     27  C   UNL     1      45.501   4.689   9.238  0.00  0.00    +0.000 A 
ATOM     28  O   UNL     1      46.071   5.699   8.836  0.00  0.00    +0.000 OA
ATOM     29  C   UNL     1      44.832   4.585  10.520  0.00  0.00    +0.000 A 
ATOM     30  H   UNL     1      45.899   3.594   7.570  0.00  0.00    +0.000 HD
ENDBRANCH  17  20
ENDBRANCH   1  16
TORSDOF 5
ENDMDL
