MODEL 1
REMARK VINA RESULT:    -7.686      0.000      0.000
REMARK INTER + INTRA:         -10.591
REMARK INTER:                  -9.933
REMARK INTRA:                  -0.658
REMARK UNBOUND:                -0.658
REMARK  Name = 
REMARK  7 active torsions:
REMARK  status: ('A' for Active; 'I' for Inactive)
REMARK    1  A    between atoms: C_1  and  O_2
REMARK    2  A    between atoms: O_2  and  C_3
REMARK    3  A    between atoms: C_6  and  N_7
REMARK    4  A    between atoms: N_7  and  C_8
REMARK    5  A    between atoms: C_8  and  C_9
REMARK    6  A    between atoms: C_12  and  C_13
REMARK    7  A    between atoms: C_14  and  N_15
REMARK                            x       y       z     vdW  Elec       q    Type
REMARK                         _______ _______ _______ _____ _____    ______ ____
ROOT
ATOM      1  C   UNL     1      44.163   4.813  10.916  0.00  0.00    +0.000 C 
ATOM      2  C   UNL     1      43.175   3.752  11.366  0.00  0.00    +0.000 C 
ATOM      3  C   UNL     1      42.751   5.182  11.360  0.00  0.00    +0.000 C 
ENDROOT
BRANCH   1   4
ATOM      4  C   UNL     1      45.288   5.241  11.850  0.00  0.00    +0.000 A 
ATOM      5  C   UNL     1      45.587   4.526  13.011  0.00  0.00    +0.000 A 
ATOM      6  C   UNL     1      46.628   4.925  13.844  0.00  0.00    +0.000 A 
ATOM      7  C   UNL     1      47.401   6.072  13.560  0.00  0.00    +0.000 A 
ATOM      8  C   UNL     1      48.442   6.434  14.588  0.00  0.00    +0.000 C 
ATOM      9  C   UNL     1      47.143   6.825  12.392  0.00  0.00    +0.000 A 
ATOM     10  C   UNL     1      46.077   6.375  11.578  0.00  0.00    +0.000 A 
BRANCH   9  11
ATOM     11  N   UNL     1      47.851   7.959  12.008  0.00  0.00    +0.000 N 
ATOM     12  C   UNL     1      49.146   7.852  11.321  0.00  0.00    +0.000 C 
ATOM     13  C   UNL     1      50.237   8.536  12.145  0.00  0.00    +0.000 C 
ATOM     14  C   UNL     1      49.862   9.987  12.434  0.00  0.00    +0.000 C 
ATOM     15  C   UNL     1      48.502  10.057  13.118  0.00  0.00    +0.000 C 
ATOM     16  C   UNL     1      47.418   9.315  12.336  0.00  0.00    +0.000 C 
ENDBRANCH   9  11
ENDBRANCH   1   4
BRANCH   1  17
ATOM     17  N   UNL     1      44.500   4.946   9.480  0.00  0.00    +0.000 N 
ATOM     18  H   UNL     1      43.730   5.227   8.884  0.00  0.00    +0.000 HD
BRANCH  17  22
ATOM     19  C   UNL     1      46.619   1.875   7.711  0.00  0.00    +0.000 A 
ATOM     20  C   UNL     1      46.799   3.188   7.296  0.00  0.00    +0.000 A 
ATOM     21  N   UNL     1      46.128   4.236   7.843  0.00  0.00    +0.000 NA
ATOM     22  C   UNL     1      45.263   3.941   8.838  0.00  0.00    +0.000 A 
ATOM     23  C   UNL     1      45.086   2.607   9.230  0.00  0.00    +0.000 A 
ATOM     24  N   UNL     1      45.754   1.553   8.694  0.00  0.00    +0.000 NA
BRANCH  19  26
ATOM     25  C   UNL     1      47.424   1.092   5.665  0.00  0.00    +0.000 C 
ATOM     26  O   UNL     1      47.351   0.896   7.075  0.00  0.00    +0.000 OA
ENDBRANCH  19  26
ENDBRANCH  17  22
ENDBRANCH   1  17
TORSDOF 5
ENDMDL
MODEL 2
REMARK VINA RESULT:    -7.437      1.088      2.040
REMARK INTER + INTRA:         -10.269
REMARK INTER:                  -9.455
REMARK INTRA:                  -0.814
REMARK UNBOUND:                -0.658
REMARK  Name = 
REMARK  7 active torsions:
REMARK  status: ('A' for Active; 'I' for Inactive)
REMARK    1  A    between atoms: C_1  and  O_2
REMARK    2  A    between atoms: O_2  and  C_3
REMARK    3  A    between atoms: C_6  and  N_7
REMARK    4  A    between atoms: N_7  and  C_8
REMARK    5  A    between atoms: C_8  and  C_9
REMARK    6  A    between atoms: C_12  and  C_13
REMARK    7  A    between atoms: C_14  and  N_15
REMARK                            x       y       z     vdW  Elec       q    Type
REMARK                         _______ _______ _______ _____ _____    ______ ____
ROOT
ATOM      1  C   UNL     1      44.338   4.356  11.079  0.00  0.00    +0.000 C 
ATOM      2  C   UNL     1      44.604   3.163  11.978  0.00  0.00    +0.000 C 
ATOM      3  C   UNL     1      43.278   3.842  12.048  0.00  0.00    +0.000 C 
ENDROOT
BRANCH   1   4
ATOM      4  C   UNL     1      44.950   5.709  11.419  0.00  0.00    +0.000 A 
ATOM      5  C   UNL     1      44.223   6.893  11.296  0.00  0.00    +0.000 A 
ATOM      6  C   UNL     1      44.796   8.118  11.624  0.00  0.00    +0.000 A 
ATOM      7  C   UNL     1      46.133   8.211  12.069  0.00  0.00    +0.000 A 
ATOM      8  C   UNL     1      46.649   9.606  12.312  0.00  0.00    +0.000 C 
ATOM      9  C   UNL     1      46.909   7.039  12.219  0.00  0.00    +0.000 A 
ATOM     10  C   UNL     1      46.279   5.820  11.874  0.00  0.00    +0.000 A 
BRANCH   9  11
ATOM     11  N   UNL     1      48.226   7.013  12.663  0.00  0.00    +0.000 N 
ATOM     12  C   UNL     1      48.547   6.824  14.085  0.00  0.00    +0.000 C 
ATOM     13  C   UNL     1      49.327   8.028  14.613  0.00  0.00    +0.000 C 
ATOM     14  C   UNL     1      50.578   8.268  13.773  0.00  0.00    +0.000 C 
ATOM     15  C   UNL     1      50.208   8.429  12.304  0.00  0.00    +0.000 C 
ATOM     16  C   UNL     1      49.367   7.263  11.785  0.00  0.00    +0.000 C 
ENDBRANCH   9  11
ENDBRANCH   1   4
BRANCH   1  17
ATOM     17  N   UNL     1      44.115   4.152   9.629  0.00  0.00    +0.000 N 
ATOM     18  H   UNL     1      43.210   3.766   9.385  0.00  0.00    +0.000 HD
BRANCH  17  22
ATOM     19  C   UNL     1      46.990   2.217   7.384  0.00  0.00    +0.000 A 
ATOM     20  C   UNL     1      46.816   3.591   7.278  0.00  0.00    +0.000 A 
ATOM     21  N   UNL     1      45.886   4.278   7.992  0.00  0.00    +0.000 NA
ATOM     22  C   UNL     1      45.123   3.551   8.838  0.00  0.00    +0.000 A 
ATOM     23  C   UNL     1      45.304   2.163   8.917  0.00  0.00    +0.000 A 
ATOM     24  N   UNL     1      46.233   1.468   8.211  0.00  0.00    +0.000 NA
BRANCH  19  26
ATOM     25  C   UNL     1      47.673   1.718   5.209  0.00  0.00    +0.000 C 
ATOM     26  O   UNL     1      47.962   1.631   6.602  0.00  0.00    +0.000 OA
ENDBRANCH  19  26
ENDBRANCH  17  22
ENDBRANCH   1  17
TORSDOF 5
ENDMDL
MODEL 3
REMARK VINA RESULT:    -7.217      1.783      3.356
REMARK INTER + INTRA:          -9.984
REMARK INTER:                  -9.960
REMARK INTRA:                  -0.024
REMARK UNBOUND:                -0.658
REMARK  Name = 
REMARK  7 active torsions:
REMARK  status: ('A' for Active; 'I' for Inactive)
REMARK    1  A    between atoms: C_1  and  O_2
REMARK    2  A    between atoms: O_2  and  C_3
REMARK    3  A    between atoms: C_6  and  N_7
REMARK    4  A    between atoms: N_7  and  C_8
REMARK    5  A    between atoms: C_8  and  C_9
REMARK    6  A    between atoms: C_12  and  C_13
REMARK    7  A    between atoms: C_14  and  N_15
REMARK                            x       y       z     vdW  Elec       q    Type
REMARK                         _______ _______ _______ _____ _____    ______ ____
ROOT
ATOM      1  C   UNL     1      44.153   4.873  11.867  0.00  0.00    +0.000 C 
ATOM      2  C   UNL     1      43.524   3.767  12.693  0.00  0.00    +0.000 C 
ATOM      3  C   UNL     1      42.964   5.146  12.783  0.00  0.00    +0.000 C 
ENDROOT
BRANCH   1   4
ATOM      4  C   UNL     1      45.482   5.479  12.301  0.00  0.00    +0.000 A 
ATOM      5  C   UNL     1      46.116   6.467  11.549  0.00  0.00    +0.000 A 
ATOM      6  C   UNL     1      47.323   7.018  11.970  0.00  0.00    +0.000 A 
ATOM      7  C   UNL     1      47.958   6.584  13.154  0.00  0.00    +0.000 A 
ATOM      8  C   UNL     1      49.299   7.207  13.447  0.00  0.00    +0.000 C 
ATOM      9  C   UNL     1      47.351   5.590  13.956  0.00  0.00    +0.000 A 
ATOM     10  C   UNL     1      46.125   5.066  13.484  0.00  0.00    +0.000 A 
BRANCH   9  11
ATOM     11  N   UNL     1      47.880   5.101  15.145  0.00  0.00    +0.000 N 
ATOM     12  C   UNL     1      47.585   3.736  15.605  0.00  0.00    +0.000 C 
ATOM     13  C   UNL     1      46.891   3.778  16.966  0.00  0.00    +0.000 C 
ATOM     14  C   UNL     1      47.734   4.552  17.976  0.00  0.00    +0.000 C 
ATOM     15  C   UNL     1      48.043   5.948  17.451  0.00  0.00    +0.000 C 
ATOM     16  C   UNL     1      48.673   5.920  16.059  0.00  0.00    +0.000 C 
ENDBRANCH   9  11
ENDBRANCH   1   4
BRANCH   1  17
ATOM     17  N   UNL     1      43.930   4.919  10.403  0.00  0.00    +0.000 N 
ATOM     18  H   UNL     1      42.958   4.889  10.117  0.00  0.00    +0.000 HD
BRANCH  17  22
ATOM     19  C   UNL     1      46.114   2.382   7.985  0.00  0.00    +0.000 A 
ATOM     20  C   UNL     1      46.163   3.757   7.794  0.00  0.00    +0.000 A 
ATOM     21  N   UNL     1      45.466   4.636   8.560  0.00  0.00    +0.000 NA
ATOM     22  C   UNL     1      44.708   4.105   9.545  0.00  0.00    +0.000 A 
ATOM     23  C   UNL     1      44.661   2.714   9.709  0.00  0.00    +0.000 A 
ATOM     24  N   UNL     1      45.357   1.827   8.953  0.00  0.00    +0.000 NA
BRANCH  19  26
ATOM     25  C   UNL     1      47.988   2.274   6.599  0.00  0.00    +0.000 C 
ATOM     26  O   UNL     1      46.861   1.590   7.140  0.00  0.00    +0.000 OA
ENDBRANCH  19  26
ENDBRANCH  17  22
ENDBRANCH   1  17
TORSDOF 5
ENDMDL
MODEL 4
REMARK VINA RESULT:    -7.167      2.935      3.960
REMARK INTER + INTRA:          -9.919
REMARK INTER:                  -9.198
REMARK INTRA:                  -0.721
REMARK UNBOUND:                -0.658
REMARK  Name = 
REMARK  7 active torsions:
REMARK  status: ('A' for Active; 'I' for Inactive)
REMARK    1  A    between atoms: C_1  and  O_2
REMARK    2  A    between atoms: O_2  and  C_3
REMARK    3  A    between atoms: C_6  and  N_7
REMARK    4  A    between atoms: N_7  and  C_8
REMARK    5  A    between atoms: C_8  and  C_9
REMARK    6  A    between atoms: C_12  and  C_13
REMARK    7  A    between atoms: C_14  and  N_15
REMARK                            x       y       z     vdW  Elec       q    Type
REMARK                         _______ _______ _______ _____ _____    ______ ____
ROOT
ATOM      1  C   UNL     1      43.938   5.327  11.434  0.00  0.00    +0.000 C 
ATOM      2  C   UNL     1      44.147   4.236  12.468  0.00  0.00    +0.000 C 
ATOM      3  C   UNL     1      42.872   5.010  12.477  0.00  0.00    +0.000 C 
ENDROOT
BRANCH   1   4
ATOM      4  C   UNL     1      44.649   6.665  11.593  0.00  0.00    +0.000 A 
ATOM      5  C   UNL     1      45.920   6.755  12.160  0.00  0.00    +0.000 A 
ATOM      6  C   UNL     1      46.560   7.985  12.284  0.00  0.00    +0.000 A 
ATOM      7  C   UNL     1      45.941   9.183  11.863  0.00  0.00    +0.000 A 
ATOM      8  C   UNL     1      46.712  10.450  12.130  0.00  0.00    +0.000 C 
ATOM      9  C   UNL     1      44.656   9.144  11.274  0.00  0.00    +0.000 A 
ATOM     10  C   UNL     1      44.053   7.869  11.169  0.00  0.00    +0.000 A 
BRANCH   9  11
ATOM     11  N   UNL     1      43.964  10.257  10.812  0.00  0.00    +0.000 N 
ATOM     12  C   UNL     1      42.811  10.796  11.548  0.00  0.00    +0.000 C 
ATOM     13  C   UNL     1      41.561  10.760  10.668  0.00  0.00    +0.000 C 
ATOM     14  C   UNL     1      41.803  11.506   9.360  0.00  0.00    +0.000 C 
ATOM     15  C   UNL     1      43.021  10.939   8.642  0.00  0.00    +0.000 C 
ATOM     16  C   UNL     1      44.260  10.906   9.537  0.00  0.00    +0.000 C 
ENDBRANCH   9  11
ENDBRANCH   1   4
BRANCH   1  17
ATOM     17  N   UNL     1      43.663   4.965  10.024  0.00  0.00    +0.000 N 
ATOM     18  H   UNL     1      42.710   4.676   9.833  0.00  0.00    +0.000 HD
BRANCH  17  22
ATOM     19  C   UNL     1      46.200   2.373   8.048  0.00  0.00    +0.000 A 
ATOM     20  C   UNL     1      46.277   3.742   7.829  0.00  0.00    +0.000 A 
ATOM     21  N   UNL     1      45.468   4.639   8.451  0.00  0.00    +0.000 NA
ATOM     22  C   UNL     1      44.567   4.132   9.321  0.00  0.00    +0.000 A 
ATOM     23  C   UNL     1      44.495   2.745   9.514  0.00  0.00    +0.000 A 
ATOM     24  N   UNL     1      45.302   1.841   8.901  0.00  0.00    +0.000 NA
BRANCH  19  26
ATOM     25  C   UNL     1      47.809   2.271   6.360  0.00  0.00    +0.000 C 
ATOM     26  O   UNL     1      47.070   1.562   7.352  0.00  0.00    +0.000 OA
ENDBRANCH  19  26
ENDBRANCH  17  22
ENDBRANCH   1  17
TORSDOF 5
ENDMDL
MODEL 5
REMARK VINA RESULT:    -7.163      1.407      2.057
REMARK INTER + INTRA:          -9.914
REMARK INTER:                  -9.891
REMARK INTRA:                  -0.024
REMARK UNBOUND:                -0.658
REMARK  Name = 
REMARK  7 active torsions:
REMARK  status: ('A' for Active; 'I' for Inactive)
REMARK    1  A    between atoms: C_1  and  O_2
REMARK    2  A    between atoms: O_2  and  C_3
REMARK    3  A    between atoms: C_6  and  N_7
REMARK    4  A    between atoms: N_7  and  C_8
REMARK    5  A    between atoms: C_8  and  C_9
REMARK    6  A    between atoms: C_12  and  C_13
REMARK    7  A    between atoms: C_14  and  N_15
REMARK                            x       y       z     vdW  Elec       q    Type
REMARK                         _______ _______ _______ _____ _____    ______ ____
ROOT
ATOM      1  C   UNL     1      43.880   4.956  11.072  0.00  0.00    +0.000 C 
ATOM      2  C   UNL     1      43.198   3.802  11.783  0.00  0.00    +0.000 C 
ATOM      3  C   UNL     1      42.499   5.117  11.699  0.00  0.00    +0.000 C 
ENDROOT
BRANCH   1   4
ATOM      4  C   UNL     1      45.016   5.702  11.762  0.00  0.00    +0.000 A 
ATOM      5  C   UNL     1      46.040   5.024  12.424  0.00  0.00    +0.000 A 
ATOM      6  C   UNL     1      47.076   5.723  13.037  0.00  0.00    +0.000 A 
ATOM      7  C   UNL     1      47.119   7.135  13.029  0.00  0.00    +0.000 A 
ATOM      8  C   UNL     1      48.253   7.762  13.798  0.00  0.00    +0.000 C 
ATOM      9  C   UNL     1      46.109   7.867  12.363  0.00  0.00    +0.000 A 
ATOM     10  C   UNL     1      45.081   7.109  11.756  0.00  0.00    +0.000 A 
BRANCH   9  11
ATOM     11  N   UNL     1      46.061   9.254  12.281  0.00  0.00    +0.000 N 
ATOM     12  C   UNL     1      44.785   9.963  12.106  0.00  0.00    +0.000 C 
ATOM     13  C   UNL     1      44.808  10.775  10.810  0.00  0.00    +0.000 C 
ATOM     14  C   UNL     1      45.998  11.729  10.795  0.00  0.00    +0.000 C 
ATOM     15  C   UNL     1      47.297  10.962  11.009  0.00  0.00    +0.000 C 
ATOM     16  C   UNL     1      47.258  10.092  12.265  0.00  0.00    +0.000 C 
ENDBRANCH   9  11
ENDBRANCH   1   4
BRANCH   1  17
ATOM     17  N   UNL     1      43.980   4.958   9.594  0.00  0.00    +0.000 N 
ATOM     18  H   UNL     1      43.092   4.960   9.105  0.00  0.00    +0.000 HD
BRANCH  17  22
ATOM     19  C   UNL     1      46.516   2.241   7.793  0.00  0.00    +0.000 A 
ATOM     20  C   UNL     1      46.583   3.590   7.473  0.00  0.00    +0.000 A 
ATOM     21  N   UNL     1      45.773   4.526   8.035  0.00  0.00    +0.000 NA
ATOM     22  C   UNL     1      44.883   4.080   8.947  0.00  0.00    +0.000 A 
ATOM     23  C   UNL     1      44.821   2.711   9.244  0.00  0.00    +0.000 A 
ATOM     24  N   UNL     1      45.628   1.768   8.692  0.00  0.00    +0.000 NA
BRANCH  19  26
ATOM     25  C   UNL     1      47.455   1.624   5.749  0.00  0.00    +0.000 C 
ATOM     26  O   UNL     1      47.385   1.385   7.152  0.00  0.00    +0.000 OA
ENDBRANCH  19  26
ENDBRANCH  17  22
ENDBRANCH   1  17
TORSDOF 5
ENDMDL
MODEL 6
REMARK VINA RESULT:    -6.544      3.974      7.652
REMARK INTER + INTRA:          -9.115
REMARK INTER:                  -8.455
REMARK INTRA:                  -0.660
REMARK UNBOUND:                -0.658
REMARK  Name = 
REMARK  7 active torsions:
REMARK  status: ('A' for Active; 'I' for Inactive)
REMARK    1  A    between atoms: C_1  and  O_2
REMARK    2  A    between atoms: O_2  and  C_3
REMARK    3  A    between atoms: C_6  and  N_7
REMARK    4  A    between atoms: N_7  and  C_8
REMARK    5  A    between atoms: C_8  and  C_9
REMARK    6  A    between atoms: C_12  and  C_13
REMARK    7  A    between atoms: C_14  and  N_15
REMARK                            x       y       z     vdW  Elec       q    Type
REMARK                         _______ _______ _______ _____ _____    ______ ____
ROOT
ATOM      1  C   UNL     1      48.844   6.971  15.504  0.00  0.00    +0.000 C 
ATOM      2  C   UNL     1      50.275   7.476  15.541  0.00  0.00    +0.000 C 
ATOM      3  C   UNL     1      49.167   8.410  15.893  0.00  0.00    +0.000 C 
ENDROOT
BRANCH   1   4
ATOM      4  C   UNL     1      48.143   6.784  14.164  0.00  0.00    +0.000 A 
ATOM      5  C   UNL     1      48.569   7.452  13.017  0.00  0.00    +0.000 A 
ATOM      6  C   UNL     1      47.924   7.257  11.798  0.00  0.00    +0.000 A 
ATOM      7  C   UNL     1      46.809   6.399  11.684  0.00  0.00    +0.000 A 
ATOM      8  C   UNL     1      46.159   6.343  10.325  0.00  0.00    +0.000 C 
ATOM      9  C   UNL     1      46.344   5.692  12.817  0.00  0.00    +0.000 A 
ATOM     10  C   UNL     1      47.036   5.923  14.028  0.00  0.00    +0.000 A 
BRANCH   9  11
ATOM     11  N   UNL     1      45.268   4.812  12.813  0.00  0.00    +0.000 N 
ATOM     12  C   UNL     1      45.456   3.379  12.536  0.00  0.00    +0.000 C 
ATOM     13  C   UNL     1      44.649   2.972  11.304  0.00  0.00    +0.000 C 
ATOM     14  C   UNL     1      43.176   3.330  11.483  0.00  0.00    +0.000 C 
ATOM     15  C   UNL     1      43.026   4.813  11.798  0.00  0.00    +0.000 C 
ATOM     16  C   UNL     1      43.884   5.246  12.986  0.00  0.00    +0.000 C 
ENDBRANCH   9  11
ENDBRANCH   1   4
BRANCH   1  17
ATOM     17  N   UNL     1      48.357   6.055  16.562  0.00  0.00    +0.000 N 
ATOM     18  H   UNL     1      48.155   6.497  17.452  0.00  0.00    +0.000 HD
BRANCH  17  22
ATOM     19  C   UNL     1      50.097   2.350  17.105  0.00  0.00    +0.000 A 
ATOM     20  C   UNL     1      50.805   3.511  17.386  0.00  0.00    +0.000 A 
ATOM     21  N   UNL     1      50.281   4.755  17.226  0.00  0.00    +0.000 NA
ATOM     22  C   UNL     1      49.008   4.817  16.777  0.00  0.00    +0.000 A 
ATOM     23  C   UNL     1      48.318   3.632  16.483  0.00  0.00    +0.000 A 
ATOM     24  N   UNL     1      48.830   2.385  16.644  0.00  0.00    +0.000 NA
BRANCH  19  26
ATOM     25  C   UNL     1      52.111   1.302  17.645  0.00  0.00    +0.000 C 
ATOM     26  O   UNL     1      50.737   1.145  17.300  0.00  0.00    +0.000 OA
ENDBRANCH  19  26
ENDBRANCH  17  22
ENDBRANCH   1  17
TORSDOF 5
ENDMDL
MODEL 7
REMARK VINA RESULT:    -6.089      5.280      9.259
REMARK INTER + INTRA:          -8.526
REMARK INTER:                  -7.732
REMARK INTRA:                  -0.794
REMARK UNBOUND:                -0.658
REMARK  Name = 
REMARK  7 active torsions:
REMARK  status: ('A' for Active; 'I' for Inactive)
REMARK    1  A    between atoms: C_1  and  O_2
REMARK    2  A    between atoms: O_2  and  C_3
REMARK    3  A    between atoms: C_6  and  N_7
REMARK    4  A    between atoms: N_7  and  C_8
REMARK    5  A    between atoms: C_8  and  C_9
REMARK    6  A    between atoms: C_12  and  C_13
REMARK    7  A    between atoms: C_14  and  N_15
REMARK                            x       y       z     vdW  Elec       q    Type
REMARK                         _______ _______ _______ _____ _____    ______ ____
ROOT
ATOM      1  C   UNL     1      48.176   4.282  16.803  0.00  0.00    +0.000 C 
ATOM      2  C   UNL     1      47.240   3.270  17.438  0.00  0.00    +0.000 C 
ATOM      3  C   UNL     1      48.429   2.783  16.681  0.00  0.00    +0.000 C 
ENDROOT
BRANCH   1   4
ATOM      4  C   UNL     1      47.762   4.995  15.522  0.00  0.00    +0.000 A 
ATOM      5  C   UNL     1      48.463   6.101  15.041  0.00  0.00    +0.000 A 
ATOM      6  C   UNL     1      48.077   6.731  13.861  0.00  0.00    +0.000 A 
ATOM      7  C   UNL     1      46.957   6.291  13.124  0.00  0.00    +0.000 A 
ATOM      8  C   UNL     1      46.604   7.113  11.911  0.00  0.00    +0.000 C 
ATOM      9  C   UNL     1      46.218   5.168  13.565  0.00  0.00    +0.000 A 
ATOM     10  C   UNL     1      46.654   4.564  14.767  0.00  0.00    +0.000 A 
BRANCH   9  11
ATOM     11  N   UNL     1      45.111   4.642  12.910  0.00  0.00    +0.000 N 
ATOM     12  C   UNL     1      45.226   3.452  12.054  0.00  0.00    +0.000 C 
ATOM     13  C   UNL     1      44.800   3.789  10.625  0.00  0.00    +0.000 C 
ATOM     14  C   UNL     1      43.389   4.369  10.607  0.00  0.00    +0.000 C 
ATOM     15  C   UNL     1      43.303   5.580  11.527  0.00  0.00    +0.000 C 
ATOM     16  C   UNL     1      43.793   5.273  12.942  0.00  0.00    +0.000 C 
ENDBRANCH   9  11
ENDBRANCH   1   4
BRANCH   1  17
ATOM     17  N   UNL     1      49.092   5.076  17.655  0.00  0.00    +0.000 N 
ATOM     18  H   UNL     1      49.980   4.632  17.859  0.00  0.00    +0.000 HD
BRANCH  17  22
ATOM     19  C   UNL     1      47.568   7.085  20.926  0.00  0.00    +0.000 A 
ATOM     20  C   UNL     1      48.166   5.840  21.076  0.00  0.00    +0.000 A 
ATOM     21  N   UNL     1      48.683   5.136  20.035  0.00  0.00    +0.000 NA
ATOM     22  C   UNL     1      48.597   5.715  18.817  0.00  0.00    +0.000 A 
ATOM     23  C   UNL     1      47.975   6.965  18.687  0.00  0.00    +0.000 A 
ATOM     24  N   UNL     1      47.460   7.679  19.720  0.00  0.00    +0.000 NA
BRANCH  19  26
ATOM     25  C   UNL     1      46.938   9.110  21.900  0.00  0.00    +0.000 C 
ATOM     26  O   UNL     1      47.074   7.699  22.056  0.00  0.00    +0.000 OA
ENDBRANCH  19  26
ENDBRANCH  17  22
ENDBRANCH   1  17
TORSDOF 5
ENDMDL
MODEL 8
REMARK VINA RESULT:    -6.006      3.829      6.514
REMARK INTER + INTRA:          -8.420
REMARK INTER:                  -7.479
REMARK INTRA:                  -0.940
REMARK UNBOUND:                -0.658
REMARK  Name = 
REMARK  7 active torsions:
REMARK  status: ('A' for Active; 'I' for Inactive)
REMARK    1  A    between atoms: C_1  and  O_2
REMARK    2  A    between atoms: O_2  and  C_3
REMARK    3  A    between atoms: C_6  and  N_7
REMARK    4  A    between atoms: N_7  and  C_8
REMARK    5  A    between atoms: C_8  and  C_9
REMARK    6  A    between atoms: C_12  and  C_13
REMARK    7  A    between atoms: C_14  and  N_15
REMARK                            x       y       z     vdW  Elec       q    Type
REMARK                         _______ _______ _______ _____ _____    ______ ____
ROOT
ATOM      1  C   UNL     1      49.028   7.784  13.125  0.00  0.00    +0.000 C 
ATOM      2  C   UNL     1      49.079   9.056  12.298  0.00  0.00    +0.000 C 
ATOM      3  C   UNL     1      50.347   8.327  12.588  0.00  0.00    +0.000 C 
ENDROOT
BRANCH   1   4
ATOM      4  C   UNL     1      48.835   7.871  14.634  0.00  0.00    +0.000 A 
ATOM      5  C   UNL     1      48.482   9.067  15.258  0.00  0.00    +0.000 A 
ATOM      6  C   UNL     1      48.297   9.123  16.637  0.00  0.00    +0.000 A 
ATOM      7  C   UNL     1      48.480   7.985  17.452  0.00  0.00    +0.000 A 
ATOM      8  C   UNL     1      48.326   8.207  18.935  0.00  0.00    +0.000 C 
ATOM      9  C   UNL     1      48.830   6.747  16.866  0.00  0.00    +0.000 A 
ATOM     10  C   UNL     1      49.003   6.744  15.462  0.00  0.00    +0.000 A 
BRANCH   9  11
ATOM     11  N   UNL     1      49.020   5.563  17.570  0.00  0.00    +0.000 N 
ATOM     12  C   UNL     1      50.355   5.160  18.036  0.00  0.00    +0.000 C 
ATOM     13  C   UNL     1      50.743   3.815  17.421  0.00  0.00    +0.000 C 
ATOM     14  C   UNL     1      49.687   2.758  17.730  0.00  0.00    +0.000 C 
ATOM     15  C   UNL     1      48.315   3.225  17.259  0.00  0.00    +0.000 C 
ATOM     16  C   UNL     1      47.948   4.601  17.813  0.00  0.00    +0.000 C 
ENDBRANCH   9  11
ENDBRANCH   1   4
BRANCH   1  17
ATOM     17  N   UNL     1      48.492   6.538  12.529  0.00  0.00    +0.000 N 
ATOM     18  H   UNL     1      48.823   6.334  11.593  0.00  0.00    +0.000 HD
BRANCH  17  22
ATOM     19  C   UNL     1      44.506   5.534  12.923  0.00  0.00    +0.000 A 
ATOM     20  C   UNL     1      44.879   6.706  12.278  0.00  0.00    +0.000 A 
ATOM     21  N   UNL     1      46.175   7.084  12.121  0.00  0.00    +0.000 NA
ATOM     22  C   UNL     1      47.110   6.248  12.623  0.00  0.00    +0.000 A 
ATOM     23  C   UNL     1      46.710   5.078  13.285  0.00  0.00    +0.000 A 
ATOM     24  N   UNL     1      45.419   4.689  13.444  0.00  0.00    +0.000 NA
BRANCH  19  26
ATOM     25  C   UNL     1      42.472   5.402  11.787  0.00  0.00    +0.000 C 
ATOM     26  O   UNL     1      43.159   5.260  13.028  0.00  0.00    +0.000 OA
ENDBRANCH  19  26
ENDBRANCH  17  22
ENDBRANCH   1  17
TORSDOF 5
ENDMDL
MODEL 9
REMARK VINA RESULT:    -5.979      3.532      5.571
REMARK INTER + INTRA:          -8.384
REMARK INTER:                  -7.742
REMARK INTRA:                  -0.642
REMARK UNBOUND:                -0.658
REMARK  Name = 
REMARK  7 active torsions:
REMARK  status: ('A' for Active; 'I' for Inactive)
REMARK    1  A    between atoms: C_1  and  O_2
REMARK    2  A    between atoms: O_2  and  C_3
REMARK    3  A    between atoms: C_6  and  N_7
REMARK    4  A    between atoms: N_7  and  C_8
REMARK    5  A    between atoms: C_8  and  C_9
REMARK    6  A    between atoms: C_12  and  C_13
REMARK    7  A    between atoms: C_14  and  N_15
REMARK                            x       y       z     vdW  Elec       q    Type
REMARK                         _______ _______ _______ _____ _____    ______ ____
ROOT
ATOM      1  C   UNL     1      46.646   7.295  12.966  0.00  0.00    +0.000 C 
ATOM      2  C   UNL     1      47.906   6.553  12.560  0.00  0.00    +0.000 C 
ATOM      3  C   UNL     1      47.830   7.164  13.918  0.00  0.00    +0.000 C 
ENDROOT
BRANCH   1   4
ATOM      4  C   UNL     1      46.383   8.693  12.418  0.00  0.00    +0.000 A 
ATOM      5  C   UNL     1      47.378   9.670  12.401  0.00  0.00    +0.000 A 
ATOM      6  C   UNL     1      47.122  10.937  11.884  0.00  0.00    +0.000 A 
ATOM      7  C   UNL     1      45.849  11.285  11.381  0.00  0.00    +0.000 A 
ATOM      8  C   UNL     1      45.689  12.713  10.927  0.00  0.00    +0.000 C 
ATOM      9  C   UNL     1      44.810  10.326  11.369  0.00  0.00    +0.000 A 
ATOM     10  C   UNL     1      45.123   9.054  11.903  0.00  0.00    +0.000 A 
BRANCH   9  11
ATOM     11  N   UNL     1      43.527  10.555  10.885  0.00  0.00    +0.000 N 
ATOM     12  C   UNL     1      43.200  10.350   9.465  0.00  0.00    +0.000 C 
ATOM     13  C   UNL     1      42.709  11.657   8.845  0.00  0.00    +0.000 C 
ATOM     14  C   UNL     1      41.523  12.212   9.629  0.00  0.00    +0.000 C 
ATOM     15  C   UNL     1      41.891  12.382  11.097  0.00  0.00    +0.000 C 
ATOM     16  C   UNL     1      42.450  11.098  11.709  0.00  0.00    +0.000 C 
ENDBRANCH   9  11
ENDBRANCH   1   4
BRANCH   1  17
ATOM     17  N   UNL     1      45.412   6.538  13.279  0.00  0.00    +0.000 N 
ATOM     18  H   UNL     1      45.291   6.301  14.257  0.00  0.00    +0.000 HD
BRANCH  17  22
ATOM     19  C   UNL     1      44.265   3.470  10.765  0.00  0.00    +0.000 A 
ATOM     20  C   UNL     1      44.822   3.195  12.007  0.00  0.00    +0.000 A 
ATOM     21  N   UNL     1      45.216   4.165  12.873  0.00  0.00    +0.000 NA
ATOM     22  C   UNL     1      45.032   5.442  12.469  0.00  0.00    +0.000 A 
ATOM     23  C   UNL     1      44.484   5.696  11.204  0.00  0.00    +0.000 A 
ATOM     24  N   UNL     1      44.082   4.734  10.333  0.00  0.00    +0.000 NA
BRANCH  19  26
ATOM     25  C   UNL     1      44.930   2.045   9.040  0.00  0.00    +0.000 C 
ATOM     26  O   UNL     1      43.910   2.401   9.970  0.00  0.00    +0.000 OA
ENDBRANCH  19  26
ENDBRANCH  17  22
ENDBRANCH   1  17
TORSDOF 5
ENDMDL
