MODEL 1
REMARK VINA RESULT:    -8.161      0.000      0.000
REMARK INTER + INTRA:         -12.459
REMARK INTER:                 -11.500
REMARK INTRA:                  -0.959
REMARK UNBOUND:                -0.959
REMARK  Name = 
REMARK  9 active torsions:
REMARK  status: ('A' for Active; 'I' for Inactive)
REMARK    1  A    between atoms: C_1  and  C_2
REMARK    2  A    between atoms: C_6  and  C_7
REMARK    3  A    between atoms: C_7  and  N_8
REMARK    4  A    between atoms: N_8  and  C_9
REMARK    5  A    between atoms: N_8  and  C_10
REMARK    6  A    between atoms: C_10  and  C_11
REMARK    7  A    between atoms: C_14  and  C_15
REMARK    8  A    between atoms: C_15  and  N_16
REMARK    9  A    between atoms: C_17  and  C_19
REMARK                            x       y       z     vdW  Elec       q    Type
REMARK                         _______ _______ _______ _____ _____    ______ ____
ROOT
ATOM      1  C   UNL     1      45.775   4.678  13.000  0.00  0.00    +0.000 A 
ATOM      2  C   UNL     1      46.159   5.790  12.252  0.00  0.00    +0.000 A 
ATOM      3  C   UNL     1      47.198   6.591  12.720  0.00  0.00    +0.000 A 
ATOM      4  C   UNL     1      47.822   6.281  13.929  0.00  0.00    +0.000 A 
ATOM      5  C   UNL     1      47.369   5.156  14.609  0.00  0.00    +0.000 A 
ATOM      6  N   UNL     1      46.368   4.355  14.177  0.00  0.00    +0.000 NA
ENDROOT
BRANCH   1   7
ATOM      7  C   UNL     1      44.708   3.733  12.471  0.00  0.00    +0.000 C 
BRANCH   7   8
ATOM      8  N   UNL     1      44.123   4.144  11.171  0.00  0.00    +0.000 NA
ATOM      9  C   UNL     1      42.810   4.754  11.410  0.00  0.00    +0.000 C 
BRANCH   8  10
ATOM     10  C   UNL     1      44.005   2.972  10.277  0.00  0.00    +0.000 C 
BRANCH  10  16
ATOM     11  C   UNL     1      47.109   0.338   7.287  0.00  0.00    +0.000 C 
ATOM     12  C   UNL     1      46.526   1.656   7.711  0.00  0.00    +0.000 A 
ATOM     13  C   UNL     1      46.924   2.846   7.092  0.00  0.00    +0.000 A 
ATOM     14  C   UNL     1      46.401   4.069   7.518  0.00  0.00    +0.000 A 
ATOM     15  C   UNL     1      45.474   4.111   8.560  0.00  0.00    +0.000 A 
ATOM     16  C   UNL     1      45.054   2.930   9.181  0.00  0.00    +0.000 A 
ATOM     17  C   UNL     1      45.587   1.704   8.747  0.00  0.00    +0.000 A 
ENDBRANCH  10  16
ENDBRANCH   8  10
ENDBRANCH   7   8
ENDBRANCH   1   7
BRANCH   4  18
ATOM     18  C   UNL     1      48.984   7.078  14.441  0.00  0.00    +0.000 C 
BRANCH  18  19
ATOM     19  N   UNL     1      48.898   7.252  15.869  0.00  0.00    +0.000 N 
ATOM     20  C   UNL     1      49.702   6.548  16.726  0.00  0.00    +0.000 C 
ATOM     21  O   UNL     1      50.566   5.775  16.316  0.00  0.00    +0.000 OA
ATOM     22  H   UNL     1      48.059   7.698  16.230  0.00  0.00    +0.000 HD
BRANCH  20  23
ATOM     23  C   UNL     1      49.524   6.808  18.161  0.00  0.00    +0.000 A 
ATOM     24  C   UNL     1      49.754   8.085  18.659  0.00  0.00    +0.000 A 
ATOM     25  S   UNL     1      49.449   8.232  20.330  0.00  0.00    +0.000 S 
ATOM     26  C   UNL     1      49.047   6.583  20.458  0.00  0.00    +0.000 A 
ATOM     27  N   UNL     1      48.703   6.039  21.656  0.00  0.00    +0.000 NA
ATOM     28  C   UNL     1      48.450   4.774  21.614  0.00  0.00    +0.000 A 
ATOM     29  N   UNL     1      48.506   4.003  20.482  0.00  0.00    +0.000 N 
ATOM     30  C   UNL     1      48.829   4.513  19.247  0.00  0.00    +0.000 A 
ATOM     31  O   UNL     1      48.844   3.803  18.246  0.00  0.00    +0.000 OA
ATOM     32  C   UNL     1      49.129   5.934  19.239  0.00  0.00    +0.000 A 
ATOM     33  H   UNL     1      48.287   3.019  20.515  0.00  0.00    +0.000 HD
ENDBRANCH  20  23
ENDBRANCH  18  19
ENDBRANCH   4  18
TORSDOF 7
ENDMDL
MODEL 2
REMARK VINA RESULT:    -7.689      3.457      9.037
REMARK INTER + INTRA:         -11.795
REMARK INTER:                 -10.289
REMARK INTRA:                  -1.506
REMARK UNBOUND:                -0.959
REMARK  Name = 
REMARK  9 active torsions:
REMARK  status: ('A' for Active; 'I' for Inactive)
REMARK    1  A    between atoms: C_1  and  C_2
REMARK    2  A    between atoms: C_6  and  C_7
REMARK    3  A    between atoms: C_7  and  N_8
REMARK    4  A    between atoms: N_8  and  C_9
REMARK    5  A    between atoms: N_8  and  C_10
REMARK    6  A    between atoms: C_10  and  C_11
REMARK    7  A    between atoms: C_14  and  C_15
REMARK    8  A    between atoms: C_15  and  N_16
REMARK    9  A    between atoms: C_17  and  C_19
REMARK                            x       y       z     vdW  Elec       q    Type
REMARK                         _______ _______ _______ _____ _____    ______ ____
ROOT
ATOM      1  C   UNL     1      49.150   7.934  15.856  0.00  0.00    +0.000 A 
ATOM      2  C   UNL     1      48.437   9.041  15.400  0.00  0.00    +0.000 A 
ATOM      3  C   UNL     1      47.945   9.036  14.097  0.00  0.00    +0.000 A 
ATOM      4  C   UNL     1      48.188   7.939  13.269  0.00  0.00    +0.000 A 
ATOM      5  C   UNL     1      48.913   6.882  13.808  0.00  0.00    +0.000 A 
ATOM      6  N   UNL     1      49.397   6.855  15.071  0.00  0.00    +0.000 NA
ENDROOT
BRANCH   1   7
ATOM      7  C   UNL     1      49.621   7.870  17.301  0.00  0.00    +0.000 C 
BRANCH   7   8
ATOM      8  N   UNL     1      48.550   7.538  18.273  0.00  0.00    +0.000 NA
ATOM      9  C   UNL     1      48.363   8.673  19.183  0.00  0.00    +0.000 C 
BRANCH   8  10
ATOM     10  C   UNL     1      48.909   6.315  19.022  0.00  0.00    +0.000 C 
BRANCH  10  16
ATOM     11  C   UNL     1      50.749   1.978  17.200  0.00  0.00    +0.000 C 
ATOM     12  C   UNL     1      49.595   2.921  17.382  0.00  0.00    +0.000 A 
ATOM     13  C   UNL     1      48.337   2.623  16.849  0.00  0.00    +0.000 A 
ATOM     14  C   UNL     1      47.280   3.524  16.995  0.00  0.00    +0.000 A 
ATOM     15  C   UNL     1      47.470   4.724  17.679  0.00  0.00    +0.000 A 
ATOM     16  C   UNL     1      48.718   5.033  18.232  0.00  0.00    +0.000 A 
ATOM     17  C   UNL     1      49.776   4.122  18.078  0.00  0.00    +0.000 A 
ENDBRANCH  10  16
ENDBRANCH   8  10
ENDBRANCH   7   8
ENDBRANCH   1   7
BRANCH   4  18
ATOM     18  C   UNL     1      47.626   7.863  11.881  0.00  0.00    +0.000 C 
BRANCH  18  19
ATOM     19  N   UNL     1      46.930   6.617  11.676  0.00  0.00    +0.000 N 
ATOM     20  C   UNL     1      45.571   6.523  11.824  0.00  0.00    +0.000 C 
ATOM     21  O   UNL     1      44.879   7.505  12.086  0.00  0.00    +0.000 OA
ATOM     22  H   UNL     1      47.490   5.769  11.686  0.00  0.00    +0.000 HD
BRANCH  20  23
ATOM     23  C   UNL     1      44.973   5.202  11.590  0.00  0.00    +0.000 A 
ATOM     24  C   UNL     1      44.298   4.564  12.623  0.00  0.00    +0.000 A 
ATOM     25  S   UNL     1      43.616   3.067  12.172  0.00  0.00    +0.000 S 
ATOM     26  C   UNL     1      44.243   3.194  10.595  0.00  0.00    +0.000 A 
ATOM     27  N   UNL     1      44.038   2.209   9.680  0.00  0.00    +0.000 NA
ATOM     28  C   UNL     1      44.592   2.422   8.534  0.00  0.00    +0.000 A 
ATOM     29  N   UNL     1      45.330   3.533   8.217  0.00  0.00    +0.000 N 
ATOM     30  C   UNL     1      45.546   4.562   9.101  0.00  0.00    +0.000 A 
ATOM     31  O   UNL     1      46.187   5.558   8.779  0.00  0.00    +0.000 OA
ATOM     32  C   UNL     1      44.948   4.370  10.410  0.00  0.00    +0.000 A 
ATOM     33  H   UNL     1      45.729   3.644   7.296  0.00  0.00    +0.000 HD
ENDBRANCH  20  23
ENDBRANCH  18  19
ENDBRANCH   4  18
TORSDOF 7
ENDMDL
MODEL 3
REMARK VINA RESULT:    -7.580      3.649      8.639
REMARK INTER + INTRA:         -11.642
REMARK INTER:                  -9.988
REMARK INTRA:                  -1.654
REMARK UNBOUND:                -0.959
REMARK  Name = 
REMARK  9 active torsions:
REMARK  status: ('A' for Active; 'I' for Inactive)
REMARK    1  A    between atoms: C_1  and  C_2
REMARK    2  A    between atoms: C_6  and  C_7
REMARK    3  A    between atoms: C_7  and  N_8
REMARK    4  A    between atoms: N_8  and  C_9
REMARK    5  A    between atoms: N_8  and  C_10
REMARK    6  A    between atoms: C_10  and  C_11
REMARK    7  A    between atoms: C_14  and  C_15
REMARK    8  A    between atoms: C_15  and  N_16
REMARK    9  A    between atoms: C_17  and  C_19
REMARK                            x       y       z     vdW  Elec       q    Type
REMARK                         _______ _______ _______ _____ _____    ______ ____
ROOT
ATOM      1  C   UNL     1      48.808   7.930  16.200  0.00  0.00    +0.000 A 
ATOM      2  C   UNL     1      49.083   6.807  15.422  0.00  0.00    +0.000 A 
ATOM      3  C   UNL     1      48.898   6.881  14.043  0.00  0.00    +0.000 A 
ATOM      4  C   UNL     1      48.427   8.063  13.469  0.00  0.00    +0.000 A 
ATOM      5  C   UNL     1      48.175   9.130  14.324  0.00  0.00    +0.000 A 
ATOM      6  N   UNL     1      48.352   9.091  15.665  0.00  0.00    +0.000 NA
ENDROOT
BRANCH   1   7
ATOM      7  C   UNL     1      49.087   7.910  17.695  0.00  0.00    +0.000 C 
BRANCH   7   8
ATOM      8  N   UNL     1      47.950   7.429  18.518  0.00  0.00    +0.000 NA
ATOM      9  C   UNL     1      47.549   8.493  19.445  0.00  0.00    +0.000 C 
BRANCH   8  10
ATOM     10  C   UNL     1      48.340   6.207  19.253  0.00  0.00    +0.000 C 
BRANCH  10  16
ATOM     11  C   UNL     1      50.918   2.313  17.329  0.00  0.00    +0.000 C 
ATOM     12  C   UNL     1      49.625   3.059  17.487  0.00  0.00    +0.000 A 
ATOM     13  C   UNL     1      48.457   2.608  16.863  0.00  0.00    +0.000 A 
ATOM     14  C   UNL     1      47.268   3.330  16.988  0.00  0.00    +0.000 A 
ATOM     15  C   UNL     1      47.235   4.502  17.744  0.00  0.00    +0.000 A 
ATOM     16  C   UNL     1      48.390   4.961  18.388  0.00  0.00    +0.000 A 
ATOM     17  C   UNL     1      49.582   4.230  18.253  0.00  0.00    +0.000 A 
ENDBRANCH  10  16
ENDBRANCH   8  10
ENDBRANCH   7   8
ENDBRANCH   1   7
BRANCH   4  18
ATOM     18  C   UNL     1      48.272   8.208  11.985  0.00  0.00    +0.000 C 
BRANCH  18  19
ATOM     19  N   UNL     1      47.586   7.070  11.427  0.00  0.00    +0.000 N 
ATOM     20  C   UNL     1      46.218   7.007  11.386  0.00  0.00    +0.000 C 
ATOM     21  O   UNL     1      45.515   7.937  11.775  0.00  0.00    +0.000 OA
ATOM     22  H   UNL     1      48.125   6.216  11.315  0.00  0.00    +0.000 HD
BRANCH  20  23
ATOM     23  C   UNL     1      45.632   5.797  10.795  0.00  0.00    +0.000 A 
ATOM     24  C   UNL     1      45.821   5.533   9.445  0.00  0.00    +0.000 A 
ATOM     25  S   UNL     1      45.125   4.064   8.930  0.00  0.00    +0.000 S 
ATOM     26  C   UNL     1      44.500   3.752  10.482  0.00  0.00    +0.000 A 
ATOM     27  N   UNL     1      43.763   2.636  10.728  0.00  0.00    +0.000 NA
ATOM     28  C   UNL     1      43.330   2.540  11.940  0.00  0.00    +0.000 A 
ATOM     29  N   UNL     1      43.570   3.456  12.931  0.00  0.00    +0.000 N 
ATOM     30  C   UNL     1      44.326   4.587  12.735  0.00  0.00    +0.000 A 
ATOM     31  O   UNL     1      44.547   5.375  13.649  0.00  0.00    +0.000 OA
ATOM     32  C   UNL     1      44.834   4.747  11.384  0.00  0.00    +0.000 A 
ATOM     33  H   UNL     1      43.209   3.316  13.864  0.00  0.00    +0.000 HD
ENDBRANCH  20  23
ENDBRANCH  18  19
ENDBRANCH   4  18
TORSDOF 7
ENDMDL
MODEL 4
REMARK VINA RESULT:    -7.168      3.485      8.349
REMARK INTER + INTRA:         -11.060
REMARK INTER:                 -10.070
REMARK INTRA:                  -0.990
REMARK UNBOUND:                -0.959
REMARK  Name = 
REMARK  9 active torsions:
REMARK  status: ('A' for Active; 'I' for Inactive)
REMARK    1  A    between atoms: C_1  and  C_2
REMARK    2  A    between atoms: C_6  and  C_7
REMARK    3  A    between atoms: C_7  and  N_8
REMARK    4  A    between atoms: N_8  and  C_9
REMARK    5  A    between atoms: N_8  and  C_10
REMARK    6  A    between atoms: C_10  and  C_11
REMARK    7  A    between atoms: C_14  and  C_15
REMARK    8  A    between atoms: C_15  and  N_16
REMARK    9  A    between atoms: C_17  and  C_19
REMARK                            x       y       z     vdW  Elec       q    Type
REMARK                         _______ _______ _______ _____ _____    ______ ____
ROOT
ATOM      1  C   UNL     1      49.396   8.072  17.551  0.00  0.00    +0.000 A 
ATOM      2  C   UNL     1      48.412   8.737  16.822  0.00  0.00    +0.000 A 
ATOM      3  C   UNL     1      48.413   8.629  15.433  0.00  0.00    +0.000 A 
ATOM      4  C   UNL     1      49.402   7.876  14.797  0.00  0.00    +0.000 A 
ATOM      5  C   UNL     1      50.345   7.252  15.605  0.00  0.00    +0.000 A 
ATOM      6  N   UNL     1      50.366   7.332  16.956  0.00  0.00    +0.000 NA
ENDROOT
BRANCH   1   7
ATOM      7  C   UNL     1      49.368   8.094  19.071  0.00  0.00    +0.000 C 
BRANCH   7   8
ATOM      8  N   UNL     1      48.290   7.269  19.671  0.00  0.00    +0.000 NA
ATOM      9  C   UNL     1      47.832   7.909  20.909  0.00  0.00    +0.000 C 
BRANCH   8  10
ATOM     10  C   UNL     1      48.790   5.903  19.937  0.00  0.00    +0.000 C 
BRANCH  10  16
ATOM     11  C   UNL     1      50.334   2.013  17.109  0.00  0.00    +0.000 C 
ATOM     12  C   UNL     1      49.282   3.028  17.453  0.00  0.00    +0.000 A 
ATOM     13  C   UNL     1      48.075   3.076  16.747  0.00  0.00    +0.000 A 
ATOM     14  C   UNL     1      47.120   4.047  17.052  0.00  0.00    +0.000 A 
ATOM     15  C   UNL     1      47.359   4.972  18.069  0.00  0.00    +0.000 A 
ATOM     16  C   UNL     1      48.553   4.930  18.796  0.00  0.00    +0.000 A 
ATOM     17  C   UNL     1      49.511   3.952  18.480  0.00  0.00    +0.000 A 
ENDBRANCH  10  16
ENDBRANCH   8  10
ENDBRANCH   7   8
ENDBRANCH   1   7
BRANCH   4  18
ATOM     18  C   UNL     1      49.406   7.681  13.311  0.00  0.00    +0.000 C 
BRANCH  18  19
ATOM     19  N   UNL     1      48.079   7.394  12.827  0.00  0.00    +0.000 N 
ATOM     20  C   UNL     1      47.531   6.143  12.940  0.00  0.00    +0.000 C 
ATOM     21  O   UNL     1      48.124   5.224  13.503  0.00  0.00    +0.000 OA
ATOM     22  H   UNL     1      47.673   8.055  12.171  0.00  0.00    +0.000 HD
BRANCH  20  23
ATOM     23  C   UNL     1      46.172   5.968  12.411  0.00  0.00    +0.000 A 
ATOM     24  C   UNL     1      45.495   7.063  11.888  0.00  0.00    +0.000 A 
ATOM     25  S   UNL     1      43.955   6.681  11.266  0.00  0.00    +0.000 S 
ATOM     26  C   UNL     1      44.115   5.048  11.720  0.00  0.00    +0.000 A 
ATOM     27  N   UNL     1      43.114   4.157  11.489  0.00  0.00    +0.000 NA
ATOM     28  C   UNL     1      43.358   2.961  11.909  0.00  0.00    +0.000 A 
ATOM     29  N   UNL     1      44.514   2.573  12.535  0.00  0.00    +0.000 N 
ATOM     30  C   UNL     1      45.560   3.433  12.770  0.00  0.00    +0.000 A 
ATOM     31  O   UNL     1      46.594   3.050  13.308  0.00  0.00    +0.000 OA
ATOM     32  C   UNL     1      45.335   4.795  12.322  0.00  0.00    +0.000 A 
ATOM     33  H   UNL     1      44.647   1.617  12.831  0.00  0.00    +0.000 HD
ENDBRANCH  20  23
ENDBRANCH  18  19
ENDBRANCH   4  18
TORSDOF 7
ENDMDL
MODEL 5
REMARK VINA RESULT:    -7.051      1.664      2.227
REMARK INTER + INTRA:         -10.896
REMARK INTER:                  -9.940
REMARK INTRA:                  -0.956
REMARK UNBOUND:                -0.959
REMARK  Name = 
REMARK  9 active torsions:
REMARK  status: ('A' for Active; 'I' for Inactive)
REMARK    1  A    between atoms: C_1  and  C_2
REMARK    2  A    between atoms: C_6  and  C_7
REMARK    3  A    between atoms: C_7  and  N_8
REMARK    4  A    between atoms: N_8  and  C_9
REMARK    5  A    between atoms: N_8  and  C_10
REMARK    6  A    between atoms: C_10  and  C_11
REMARK    7  A    between atoms: C_14  and  C_15
REMARK    8  A    between atoms: C_15  and  N_16
REMARK    9  A    between atoms: C_17  and  C_19
REMARK                            x       y       z     vdW  Elec       q    Type
REMARK                         _______ _______ _______ _____ _____    ______ ____
ROOT
ATOM      1  C   UNL     1      45.538   4.910  13.263  0.00  0.00    +0.000 A 
ATOM      2  C   UNL     1      45.901   6.119  12.674  0.00  0.00    +0.000 A 
ATOM      3  C   UNL     1      47.038   6.780  13.133  0.00  0.00    +0.000 A 
ATOM      4  C   UNL     1      47.781   6.233  14.181  0.00  0.00    +0.000 A 
ATOM      5  C   UNL     1      47.341   5.025  14.711  0.00  0.00    +0.000 A 
ATOM      6  N   UNL     1      46.245   4.357  14.281  0.00  0.00    +0.000 NA
ENDROOT
BRANCH   1   7
ATOM      7  C   UNL     1      44.356   4.120  12.723  0.00  0.00    +0.000 C 
BRANCH   7   8
ATOM      8  N   UNL     1      43.918   4.535  11.367  0.00  0.00    +0.000 NA
ATOM      9  C   UNL     1      42.643   5.251  11.477  0.00  0.00    +0.000 C 
BRANCH   8  10
ATOM     10  C   UNL     1      43.784   3.349  10.495  0.00  0.00    +0.000 C 
BRANCH  10  16
ATOM     11  C   UNL     1      46.827   0.572   7.572  0.00  0.00    +0.000 C 
ATOM     12  C   UNL     1      46.292   1.915   7.979  0.00  0.00    +0.000 A 
ATOM     13  C   UNL     1      46.748   3.084   7.361  0.00  0.00    +0.000 A 
ATOM     14  C   UNL     1      46.270   4.330   7.772  0.00  0.00    +0.000 A 
ATOM     15  C   UNL     1      45.327   4.416   8.798  0.00  0.00    +0.000 A 
ATOM     16  C   UNL     1      44.848   3.257   9.417  0.00  0.00    +0.000 A 
ATOM     17  C   UNL     1      45.338   2.008   8.999  0.00  0.00    +0.000 A 
ENDBRANCH  10  16
ENDBRANCH   8  10
ENDBRANCH   7   8
ENDBRANCH   1   7
BRANCH   4  18
ATOM     18  C   UNL     1      49.045   6.876  14.667  0.00  0.00    +0.000 C 
BRANCH  18  19
ATOM     19  N   UNL     1      49.345   6.464  16.016  0.00  0.00    +0.000 N 
ATOM     20  C   UNL     1      49.061   7.266  17.090  0.00  0.00    +0.000 C 
ATOM     21  O   UNL     1      48.492   8.348  16.957  0.00  0.00    +0.000 OA
ATOM     22  H   UNL     1      50.005   5.700  16.128  0.00  0.00    +0.000 HD
BRANCH  20  23
ATOM     23  C   UNL     1      49.412   6.741  18.415  0.00  0.00    +0.000 A 
ATOM     24  C   UNL     1      48.746   5.625  18.909  0.00  0.00    +0.000 A 
ATOM     25  S   UNL     1      49.310   5.111  20.433  0.00  0.00    +0.000 S 
ATOM     26  C   UNL     1      50.430   6.391  20.513  0.00  0.00    +0.000 A 
ATOM     27  N   UNL     1      51.236   6.547  21.596  0.00  0.00    +0.000 NA
ATOM     28  C   UNL     1      52.016   7.574  21.536  0.00  0.00    +0.000 A 
ATOM     29  N   UNL     1      52.067   8.457  20.488  0.00  0.00    +0.000 N 
ATOM     30  C   UNL     1      51.287   8.326  19.364  0.00  0.00    +0.000 A 
ATOM     31  O   UNL     1      51.375   9.117  18.430  0.00  0.00    +0.000 OA
ATOM     32  C   UNL     1      50.385   7.189  19.383  0.00  0.00    +0.000 A 
ATOM     33  H   UNL     1      52.709   9.236  20.499  0.00  0.00    +0.000 HD
ENDBRANCH  20  23
ENDBRANCH  18  19
ENDBRANCH   4  18
TORSDOF 7
ENDMDL
MODEL 6
REMARK VINA RESULT:    -6.962      4.453      6.268
REMARK INTER + INTRA:         -10.770
REMARK INTER:                  -9.872
REMARK INTRA:                  -0.899
REMARK UNBOUND:                -0.959
REMARK  Name = 
REMARK  9 active torsions:
REMARK  status: ('A' for Active; 'I' for Inactive)
REMARK    1  A    between atoms: C_1  and  C_2
REMARK    2  A    between atoms: C_6  and  C_7
REMARK    3  A    between atoms: C_7  and  N_8
REMARK    4  A    between atoms: N_8  and  C_9
REMARK    5  A    between atoms: N_8  and  C_10
REMARK    6  A    between atoms: C_10  and  C_11
REMARK    7  A    between atoms: C_14  and  C_15
REMARK    8  A    between atoms: C_15  and  N_16
REMARK    9  A    between atoms: C_17  and  C_19
REMARK                            x       y       z     vdW  Elec       q    Type
REMARK                         _______ _______ _______ _____ _____    ______ ____
ROOT
ATOM      1  C   UNL     1      45.648   5.763  12.789  0.00  0.00    +0.000 A 
ATOM      2  C   UNL     1      45.079   6.980  12.420  0.00  0.00    +0.000 A 
ATOM      3  C   UNL     1      45.750   8.161  12.733  0.00  0.00    +0.000 A 
ATOM      4  C   UNL     1      46.963   8.107  13.421  0.00  0.00    +0.000 A 
ATOM      5  C   UNL     1      47.452   6.848  13.752  0.00  0.00    +0.000 A 
ATOM      6  N   UNL     1      46.827   5.685  13.456  0.00  0.00    +0.000 NA
ENDROOT
BRANCH   1   7
ATOM      7  C   UNL     1      44.986   4.456  12.382  0.00  0.00    +0.000 C 
BRANCH   7   8
ATOM      8  N   UNL     1      44.190   4.542  11.132  0.00  0.00    +0.000 NA
ATOM      9  C   UNL     1      42.825   4.961  11.465  0.00  0.00    +0.000 C 
BRANCH   8  10
ATOM     10  C   UNL     1      44.188   3.234  10.444  0.00  0.00    +0.000 C 
BRANCH  10  16
ATOM     11  C   UNL     1      47.030   0.479   7.306  0.00  0.00    +0.000 C 
ATOM     12  C   UNL     1      46.508   1.817   7.745  0.00  0.00    +0.000 A 
ATOM     13  C   UNL     1      46.896   2.988   7.085  0.00  0.00    +0.000 A 
ATOM     14  C   UNL     1      46.433   4.229   7.524  0.00  0.00    +0.000 A 
ATOM     15  C   UNL     1      45.575   4.310   8.621  0.00  0.00    +0.000 A 
ATOM     16  C   UNL     1      45.164   3.149   9.285  0.00  0.00    +0.000 A 
ATOM     17  C   UNL     1      45.637   1.904   8.837  0.00  0.00    +0.000 A 
ENDBRANCH  10  16
ENDBRANCH   8  10
ENDBRANCH   7   8
ENDBRANCH   1   7
BRANCH   4  18
ATOM     18  C   UNL     1      47.750   9.346  13.724  0.00  0.00    +0.000 C 
BRANCH  18  19
ATOM     19  N   UNL     1      48.944   9.406  12.918  0.00  0.00    +0.000 N 
ATOM     20  C   UNL     1      49.030  10.227  11.825  0.00  0.00    +0.000 C 
ATOM     21  O   UNL     1      48.115  10.986  11.512  0.00  0.00    +0.000 OA
ATOM     22  H   UNL     1      49.606   8.642  13.017  0.00  0.00    +0.000 HD
BRANCH  20  23
ATOM     23  C   UNL     1      50.295  10.203  11.080  0.00  0.00    +0.000 A 
ATOM     24  C   UNL     1      50.807  11.385  10.560  0.00  0.00    +0.000 A 
ATOM     25  S   UNL     1      52.308  11.194   9.774  0.00  0.00    +0.000 S 
ATOM     26  C   UNL     1      52.303   9.515  10.054  0.00  0.00    +0.000 A 
ATOM     27  N   UNL     1      53.318   8.729   9.607  0.00  0.00    +0.000 NA
ATOM     28  C   UNL     1      53.174   7.472   9.865  0.00  0.00    +0.000 A 
ATOM     29  N   UNL     1      52.107   6.930  10.534  0.00  0.00    +0.000 N 
ATOM     30  C   UNL     1      51.069   7.687  11.023  0.00  0.00    +0.000 A 
ATOM     31  O   UNL     1      50.142   7.176  11.642  0.00  0.00    +0.000 OA
ATOM     32  C   UNL     1      51.180   9.110  10.754  0.00  0.00    +0.000 A 
ATOM     33  H   UNL     1      52.059   5.938  10.712  0.00  0.00    +0.000 HD
ENDBRANCH  20  23
ENDBRANCH  18  19
ENDBRANCH   4  18
TORSDOF 7
ENDMDL
MODEL 7
REMARK VINA RESULT:    -6.720      3.858      9.543
REMARK INTER + INTRA:         -10.429
REMARK INTER:                  -9.470
REMARK INTRA:                  -0.959
REMARK UNBOUND:                -0.959
REMARK  Name = 
REMARK  9 active torsions:
REMARK  status: ('A' for Active; 'I' for Inactive)
REMARK    1  A    between atoms: C_1  and  C_2
REMARK    2  A    between atoms: C_6  and  C_7
REMARK    3  A    between atoms: C_7  and  N_8
REMARK    4  A    between atoms: N_8  and  C_9
REMARK    5  A    between atoms: N_8  and  C_10
REMARK    6  A    between atoms: C_10  and  C_11
REMARK    7  A    between atoms: C_14  and  C_15
REMARK    8  A    between atoms: C_15  and  N_16
REMARK    9  A    between atoms: C_17  and  C_19
REMARK                            x       y       z     vdW  Elec       q    Type
REMARK                         _______ _______ _______ _____ _____    ______ ____
ROOT
ATOM      1  C   UNL     1      49.763   7.142  16.423  0.00  0.00    +0.000 A 
ATOM      2  C   UNL     1      50.282   8.077  15.530  0.00  0.00    +0.000 A 
ATOM      3  C   UNL     1      49.730   8.170  14.254  0.00  0.00    +0.000 A 
ATOM      4  C   UNL     1      48.686   7.319  13.888  0.00  0.00    +0.000 A 
ATOM      5  C   UNL     1      48.236   6.415  14.842  0.00  0.00    +0.000 A 
ATOM      6  N   UNL     1      48.746   6.306  16.091  0.00  0.00    +0.000 NA
ENDROOT
BRANCH   1   7
ATOM      7  C   UNL     1      50.282   7.079  17.851  0.00  0.00    +0.000 C 
BRANCH   7   8
ATOM      8  N   UNL     1      50.219   5.728  18.460  0.00  0.00    +0.000 NA
ATOM      9  C   UNL     1      49.535   5.820  19.755  0.00  0.00    +0.000 C 
BRANCH   8  10
ATOM     10  C   UNL     1      51.584   5.183  18.622  0.00  0.00    +0.000 C 
BRANCH  10  16
ATOM     11  C   UNL     1      54.290   0.925  18.366  0.00  0.00    +0.000 C 
ATOM     12  C   UNL     1      53.015   1.669  18.089  0.00  0.00    +0.000 A 
ATOM     13  C   UNL     1      51.944   1.040  17.446  0.00  0.00    +0.000 A 
ATOM     14  C   UNL     1      50.777   1.752  17.162  0.00  0.00    +0.000 A 
ATOM     15  C   UNL     1      50.669   3.095  17.525  0.00  0.00    +0.000 A 
ATOM     16  C   UNL     1      51.724   3.737  18.182  0.00  0.00    +0.000 A 
ATOM     17  C   UNL     1      52.895   3.014  18.460  0.00  0.00    +0.000 A 
ENDBRANCH  10  16
ENDBRANCH   8  10
ENDBRANCH   7   8
ENDBRANCH   1   7
BRANCH   4  18
ATOM     18  C   UNL     1      48.020   7.425  12.548  0.00  0.00    +0.000 C 
BRANCH  18  19
ATOM     19  N   UNL     1      47.231   6.250  12.273  0.00  0.00    +0.000 N 
ATOM     20  C   UNL     1      45.922   6.343  11.879  0.00  0.00    +0.000 C 
ATOM     21  O   UNL     1      45.377   7.429  11.692  0.00  0.00    +0.000 OA
ATOM     22  H   UNL     1      47.579   5.366  12.633  0.00  0.00    +0.000 HD
BRANCH  20  23
ATOM     23  C   UNL     1      45.219   5.078  11.628  0.00  0.00    +0.000 A 
ATOM     24  C   UNL     1      44.562   4.440  12.673  0.00  0.00    +0.000 A 
ATOM     25  S   UNL     1      43.751   3.016  12.204  0.00  0.00    +0.000 S 
ATOM     26  C   UNL     1      44.290   3.172  10.597  0.00  0.00    +0.000 A 
ATOM     27  N   UNL     1      43.961   2.247   9.656  0.00  0.00    +0.000 NA
ATOM     28  C   UNL     1      44.459   2.475   8.487  0.00  0.00    +0.000 A 
ATOM     29  N   UNL     1      45.254   3.546   8.172  0.00  0.00    +0.000 N 
ATOM     30  C   UNL     1      45.595   4.517   9.083  0.00  0.00    +0.000 A 
ATOM     31  O   UNL     1      46.285   5.480   8.764  0.00  0.00    +0.000 OA
ATOM     32  C   UNL     1      45.064   4.305  10.418  0.00  0.00    +0.000 A 
ATOM     33  H   UNL     1      45.604   3.672   7.233  0.00  0.00    +0.000 HD
ENDBRANCH  20  23
ENDBRANCH  18  19
ENDBRANCH   4  18
TORSDOF 7
ENDMDL
MODEL 8
REMARK VINA RESULT:    -6.542      3.554     10.234
REMARK INTER + INTRA:         -10.179
REMARK INTER:                  -8.856
REMARK INTRA:                  -1.322
REMARK UNBOUND:                -0.959
REMARK  Name = 
REMARK  9 active torsions:
REMARK  status: ('A' for Active; 'I' for Inactive)
REMARK    1  A    between atoms: C_1  and  C_2
REMARK    2  A    between atoms: C_6  and  C_7
REMARK    3  A    between atoms: C_7  and  N_8
REMARK    4  A    between atoms: N_8  and  C_9
REMARK    5  A    between atoms: N_8  and  C_10
REMARK    6  A    between atoms: C_10  and  C_11
REMARK    7  A    between atoms: C_14  and  C_15
REMARK    8  A    between atoms: C_15  and  N_16
REMARK    9  A    between atoms: C_17  and  C_19
REMARK                            x       y       z     vdW  Elec       q    Type
REMARK                         _______ _______ _______ _____ _____    ______ ____
ROOT
ATOM      1  C   UNL     1      49.668   6.207  16.447  0.00  0.00    +0.000 A 
ATOM      2  C   UNL     1      50.146   7.312  15.746  0.00  0.00    +0.000 A 
ATOM      3  C   UNL     1      49.533   7.666  14.546  0.00  0.00    +0.000 A 
ATOM      4  C   UNL     1      48.469   6.903  14.060  0.00  0.00    +0.000 A 
ATOM      5  C   UNL     1      48.064   5.815  14.824  0.00  0.00    +0.000 A 
ATOM      6  N   UNL     1      48.634   5.451  15.996  0.00  0.00    +0.000 NA
ENDROOT
BRANCH   1   7
ATOM      7  C   UNL     1      50.255   5.850  17.804  0.00  0.00    +0.000 C 
BRANCH   7   8
ATOM      8  N   UNL     1      49.984   6.852  18.864  0.00  0.00    +0.000 NA
ATOM      9  C   UNL     1      50.771   6.510  20.055  0.00  0.00    +0.000 C 
BRANCH   8  10
ATOM     10  C   UNL     1      48.539   6.879  19.177  0.00  0.00    +0.000 C 
BRANCH  10  16
ATOM     11  C   UNL     1      45.999  10.433  21.712  0.00  0.00    +0.000 C 
ATOM     12  C   UNL     1      46.759  10.007  20.489  0.00  0.00    +0.000 A 
ATOM     13  C   UNL     1      46.952  10.891  19.423  0.00  0.00    +0.000 A 
ATOM     14  C   UNL     1      47.630  10.473  18.276  0.00  0.00    +0.000 A 
ATOM     15  C   UNL     1      48.125   9.171  18.189  0.00  0.00    +0.000 A 
ATOM     16  C   UNL     1      47.954   8.277  19.251  0.00  0.00    +0.000 A 
ATOM     17  C   UNL     1      47.268   8.706  20.400  0.00  0.00    +0.000 A 
ENDBRANCH  10  16
ENDBRANCH   8  10
ENDBRANCH   7   8
ENDBRANCH   1   7
BRANCH   4  18
ATOM     18  C   UNL     1      47.740   7.281  12.806  0.00  0.00    +0.000 C 
BRANCH  18  19
ATOM     19  N   UNL     1      47.003   6.159  12.282  0.00  0.00    +0.000 N 
ATOM     20  C   UNL     1      45.636   6.098  12.364  0.00  0.00    +0.000 C 
ATOM     21  O   UNL     1      44.975   7.018  12.840  0.00  0.00    +0.000 OA
ATOM     22  H   UNL     1      47.526   5.307  12.099  0.00  0.00    +0.000 HD
BRANCH  20  23
ATOM     23  C   UNL     1      44.994   4.905  11.797  0.00  0.00    +0.000 A 
ATOM     24  C   UNL     1      44.236   4.079  12.618  0.00  0.00    +0.000 A 
ATOM     25  S   UNL     1      43.516   2.772  11.794  0.00  0.00    +0.000 S 
ATOM     26  C   UNL     1      44.232   3.232  10.321  0.00  0.00    +0.000 A 
ATOM     27  N   UNL     1      44.034   2.504   9.190  0.00  0.00    +0.000 NA
ATOM     28  C   UNL     1      44.659   2.951   8.152  0.00  0.00    +0.000 A 
ATOM     29  N   UNL     1      45.461   4.062   8.141  0.00  0.00    +0.000 N 
ATOM     30  C   UNL     1      45.673   4.840   9.254  0.00  0.00    +0.000 A 
ATOM     31  O   UNL     1      46.374   5.846   9.207  0.00  0.00    +0.000 OA
ATOM     32  C   UNL     1      44.997   4.378  10.453  0.00  0.00    +0.000 A 
ATOM     33  H   UNL     1      45.914   4.365   7.292  0.00  0.00    +0.000 HD
ENDBRANCH  20  23
ENDBRANCH  18  19
ENDBRANCH   4  18
TORSDOF 7
ENDMDL
MODEL 9
REMARK VINA RESULT:    -6.281      5.849      8.362
REMARK INTER + INTRA:          -9.811
REMARK INTER:                  -8.932
REMARK INTRA:                  -0.879
REMARK UNBOUND:                -0.959
REMARK  Name = 
REMARK  9 active torsions:
REMARK  status: ('A' for Active; 'I' for Inactive)
REMARK    1  A    between atoms: C_1  and  C_2
REMARK    2  A    between atoms: C_6  and  C_7
REMARK    3  A    between atoms: C_7  and  N_8
REMARK    4  A    between atoms: N_8  and  C_9
REMARK    5  A    between atoms: N_8  and  C_10
REMARK    6  A    between atoms: C_10  and  C_11
REMARK    7  A    between atoms: C_14  and  C_15
REMARK    8  A    between atoms: C_15  and  N_16
REMARK    9  A    between atoms: C_17  and  C_19
REMARK                            x       y       z     vdW  Elec       q    Type
REMARK                         _______ _______ _______ _____ _____    ______ ____
ROOT
ATOM      1  C   UNL     1      45.955   6.508  12.468  0.00  0.00    +0.000 A 
ATOM      2  C   UNL     1      45.324   7.716  12.177  0.00  0.00    +0.000 A 
ATOM      3  C   UNL     1      46.079   8.887  12.177  0.00  0.00    +0.000 A 
ATOM      4  C   UNL     1      47.440   8.835  12.484  0.00  0.00    +0.000 A 
ATOM      5  C   UNL     1      47.981   7.586  12.766  0.00  0.00    +0.000 A 
ATOM      6  N   UNL     1      47.277   6.431  12.766  0.00  0.00    +0.000 NA
ENDROOT
BRANCH   1   7
ATOM      7  C   UNL     1      45.180   5.202  12.386  0.00  0.00    +0.000 C 
BRANCH   7   8
ATOM      8  N   UNL     1      44.258   5.116  11.226  0.00  0.00    +0.000 NA
ATOM      9  C   UNL     1      42.926   5.570  11.640  0.00  0.00    +0.000 C 
BRANCH   8  10
ATOM     10  C   UNL     1      44.209   3.727  10.722  0.00  0.00    +0.000 C 
BRANCH  10  16
ATOM     11  C   UNL     1      46.639   0.514   7.674  0.00  0.00    +0.000 C 
ATOM     12  C   UNL     1      46.260   1.921   8.037  0.00  0.00    +0.000 A 
ATOM     13  C   UNL     1      46.716   3.004   7.277  0.00  0.00    +0.000 A 
ATOM     14  C   UNL     1      46.386   4.310   7.644  0.00  0.00    +0.000 A 
ATOM     15  C   UNL     1      45.593   4.544   8.767  0.00  0.00    +0.000 A 
ATOM     16  C   UNL     1      45.115   3.473   9.531  0.00  0.00    +0.000 A 
ATOM     17  C   UNL     1      45.455   2.163   9.156  0.00  0.00    +0.000 A 
ENDBRANCH  10  16
ENDBRANCH   8  10
ENDBRANCH   7   8
ENDBRANCH   1   7
BRANCH   4  18
ATOM     18  C   UNL     1      48.303  10.060  12.437  0.00  0.00    +0.000 C 
BRANCH  18  19
ATOM     19  N   UNL     1      48.468  10.519  11.080  0.00  0.00    +0.000 N 
ATOM     20  C   UNL     1      48.112  11.787  10.704  0.00  0.00    +0.000 C 
ATOM     21  O   UNL     1      47.685  12.607  11.515  0.00  0.00    +0.000 OA
ATOM     22  H   UNL     1      48.598   9.808  10.365  0.00  0.00    +0.000 HD
BRANCH  20  23
ATOM     23  C   UNL     1      48.326  12.141   9.295  0.00  0.00    +0.000 A 
ATOM     24  C   UNL     1      47.236  12.463   8.496  0.00  0.00    +0.000 A 
ATOM     25  S   UNL     1      47.660  12.903   6.905  0.00  0.00    +0.000 S 
ATOM     26  C   UNL     1      49.312  12.631   7.210  0.00  0.00    +0.000 A 
ATOM     27  N   UNL     1      50.242  12.807   6.234  0.00  0.00    +0.000 NA
ATOM     28  C   UNL     1      51.452  12.539   6.595  0.00  0.00    +0.000 A 
ATOM     29  N   UNL     1      51.818  12.115   7.846  0.00  0.00    +0.000 N 
ATOM     30  C   UNL     1      50.917  11.944   8.870  0.00  0.00    +0.000 A 
ATOM     31  O   UNL     1      51.278  11.590   9.987  0.00  0.00    +0.000 OA
ATOM     32  C   UNL     1      49.538  12.227   8.514  0.00  0.00    +0.000 A 
ATOM     33  H   UNL     1      52.786  11.932   8.068  0.00  0.00    +0.000 HD
ENDBRANCH  20  23
ENDBRANCH  18  19
ENDBRANCH   4  18
TORSDOF 7
ENDMDL
