MODEL 1
REMARK VINA RESULT:    -8.450      0.000      0.000
REMARK INTER + INTRA:         -15.194
REMARK INTER:                 -13.389
REMARK INTRA:                  -1.804
REMARK UNBOUND:                -1.804
REMARK  Name = 
REMARK  12 active torsions:
REMARK  status: ('A' for Active; 'I' for Inactive)
REMARK    1  A    between atoms: C_1  and  N_2
REMARK    2  A    between atoms: C_4  and  C_5
REMARK    3  A    between atoms: N_7  and  C_8
REMARK    4  A    between atoms: C_8  and  C_9
REMARK    5  A    between atoms: C_12  and  C_13
REMARK    6  A    between atoms: C_13  and  N_14
REMARK    7  A    between atoms: N_14  and  C_15
REMARK    8  A    between atoms: N_14  and  C_18
REMARK    9  A    between atoms: C_15  and  C_16
REMARK   10  A    between atoms: C_16  and  O_17
REMARK   11  A    between atoms: C_18  and  C_19
REMARK   12  A    between atoms: C_28  and  O_29
REMARK                            x       y       z     vdW  Elec       q    Type
REMARK                         _______ _______ _______ _____ _____    ______ ____
ROOT
ATOM      1  C   UNL     1      46.683   7.838  12.823  0.00  0.00    +0.000 A 
ATOM      2  C   UNL     1      47.180   6.768  12.069  0.00  0.00    +0.000 A 
ATOM      3  C   UNL     1      46.339   6.050  11.225  0.00  0.00    +0.000 A 
ATOM      4  C   UNL     1      44.981   6.380  11.144  0.00  0.00    +0.000 A 
ATOM      5  C   UNL     1      44.512   7.526  11.800  0.00  0.00    +0.000 A 
ATOM      6  C   UNL     1      45.360   8.255  12.632  0.00  0.00    +0.000 A 
ENDROOT
BRANCH   1   7
ATOM      7  C   UNL     1      47.568   8.516  13.826  0.00  0.00    +0.000 C 
BRANCH   7  10
ATOM      8  C   UNL     1      49.086   7.008  14.995  0.00  0.00    +0.000 C 
ATOM      9  O   UNL     1      49.967   7.142  14.145  0.00  0.00    +0.000 OA
ATOM     10  N   UNL     1      47.874   7.639  14.919  0.00  0.00    +0.000 N 
ATOM     11  H   UNL     1      47.216   7.579  15.682  0.00  0.00    +0.000 HD
BRANCH   8  15
ATOM     12  C   UNL     1      50.888   4.960  19.182  0.00  0.00    +0.000 C 
ATOM     13  N   UNL     1      50.067   5.217  18.023  0.00  0.00    +0.000 N 
ATOM     14  C   UNL     1      50.284   6.209  17.102  0.00  0.00    +0.000 A 
ATOM     15  C   UNL     1      49.274   6.143  16.144  0.00  0.00    +0.000 A 
ATOM     16  C   UNL     1      48.428   5.047  16.521  0.00  0.00    +0.000 A 
ATOM     17  C   UNL     1      47.270   4.433  16.032  0.00  0.00    +0.000 A 
ATOM     18  N   UNL     1      46.726   3.392  16.684  0.00  0.00    +0.000 NA
ATOM     19  C   UNL     1      47.334   2.977  17.807  0.00  0.00    +0.000 A 
ATOM     20  N   UNL     1      48.445   3.470  18.382  0.00  0.00    +0.000 NA
ATOM     21  C   UNL     1      48.946   4.505  17.689  0.00  0.00    +0.000 A 
BRANCH  17  22
ATOM     22  O   UNL     1      46.609   4.818  14.891  0.00  0.00    +0.000 OA
ATOM     23  H   UNL     1      46.173   5.674  15.073  0.00  0.00    +0.000 HD
ENDBRANCH  17  22
ENDBRANCH   8  15
ENDBRANCH   7  10
ENDBRANCH   1   7
BRANCH   4  24
ATOM     24  C   UNL     1      44.013   5.464  10.433  0.00  0.00    +0.000 C 
BRANCH  24  25
ATOM     25  N   UNL     1      44.565   4.105  10.172  0.00  0.00    +0.000 NA
BRANCH  25  26
ATOM     26  C   UNL     1      43.828   3.069  10.945  0.00  0.00    +0.000 C 
BRANCH  26  27
ATOM     27  C   UNL     1      44.041   3.098  12.474  0.00  0.00    +0.000 C 
BRANCH  27  28
ATOM     28  O   UNL     1      45.390   2.762  12.798  0.00  0.00    +0.000 OA
ATOM     29  H   UNL     1      45.570   3.111  13.688  0.00  0.00    +0.000 HD
ENDBRANCH  27  28
ENDBRANCH  26  27
ENDBRANCH  25  26
BRANCH  25  30
ATOM     30  C   UNL     1      44.460   3.819   8.727  0.00  0.00    +0.000 C 
BRANCH  30  31
ATOM     31  C   UNL     1      45.619   3.037   8.150  0.00  0.00    +0.000 A 
ATOM     32  C   UNL     1      45.728   1.653   8.345  0.00  0.00    +0.000 A 
ATOM     33  C   UNL     1      46.754   0.934   7.728  0.00  0.00    +0.000 A 
ATOM     34  C   UNL     1      47.687   1.594   6.930  0.00  0.00    +0.000 A 
ATOM     35  C   UNL     1      47.611   2.975   6.763  0.00  0.00    +0.000 A 
ATOM     36  C   UNL     1      46.581   3.693   7.369  0.00  0.00    +0.000 A 
ENDBRANCH  30  31
ENDBRANCH  25  30
ENDBRANCH  24  25
ENDBRANCH   4  24
TORSDOF 11
ENDMDL
MODEL 2
REMARK VINA RESULT:    -7.377      2.290      2.697
REMARK INTER + INTRA:         -13.494
REMARK INTER:                 -12.246
REMARK INTRA:                  -1.248
REMARK UNBOUND:                -1.804
REMARK  Name = 
REMARK  12 active torsions:
REMARK  status: ('A' for Active; 'I' for Inactive)
REMARK    1  A    between atoms: C_1  and  N_2
REMARK    2  A    between atoms: C_4  and  C_5
REMARK    3  A    between atoms: N_7  and  C_8
REMARK    4  A    between atoms: C_8  and  C_9
REMARK    5  A    between atoms: C_12  and  C_13
REMARK    6  A    between atoms: C_13  and  N_14
REMARK    7  A    between atoms: N_14  and  C_15
REMARK    8  A    between atoms: N_14  and  C_18
REMARK    9  A    between atoms: C_15  and  C_16
REMARK   10  A    between atoms: C_16  and  O_17
REMARK   11  A    between atoms: C_18  and  C_19
REMARK   12  A    between atoms: C_28  and  O_29
REMARK                            x       y       z     vdW  Elec       q    Type
REMARK                         _______ _______ _______ _____ _____    ______ ____
ROOT
ATOM      1  C   UNL     1      48.407   6.768  13.245  0.00  0.00    +0.000 A 
ATOM      2  C   UNL     1      47.463   5.842  13.706  0.00  0.00    +0.000 A 
ATOM      3  C   UNL     1      46.373   5.494  12.915  0.00  0.00    +0.000 A 
ATOM      4  C   UNL     1      46.201   6.089  11.660  0.00  0.00    +0.000 A 
ATOM      5  C   UNL     1      47.209   6.917  11.148  0.00  0.00    +0.000 A 
ATOM      6  C   UNL     1      48.310   7.251  11.934  0.00  0.00    +0.000 A 
ENDROOT
BRANCH   1   7
ATOM      7  C   UNL     1      49.502   7.232  14.158  0.00  0.00    +0.000 C 
BRANCH   7  10
ATOM      8  C   UNL     1      49.479   6.692  16.536  0.00  0.00    +0.000 C 
ATOM      9  O   UNL     1      50.328   5.810  16.403  0.00  0.00    +0.000 OA
ATOM     10  N   UNL     1      49.009   7.438  15.490  0.00  0.00    +0.000 N 
ATOM     11  H   UNL     1      48.385   8.215  15.654  0.00  0.00    +0.000 HD
BRANCH   8  15
ATOM     12  C   UNL     1      47.235   9.042  20.332  0.00  0.00    +0.000 C 
ATOM     13  N   UNL     1      47.890   8.029  19.540  0.00  0.00    +0.000 N 
ATOM     14  C   UNL     1      48.340   8.194  18.255  0.00  0.00    +0.000 A 
ATOM     15  C   UNL     1      48.899   6.990  17.832  0.00  0.00    +0.000 A 
ATOM     16  C   UNL     1      48.779   6.076  18.931  0.00  0.00    +0.000 A 
ATOM     17  C   UNL     1      49.117   4.745  19.198  0.00  0.00    +0.000 A 
ATOM     18  N   UNL     1      48.824   4.195  20.388  0.00  0.00    +0.000 NA
ATOM     19  C   UNL     1      48.203   4.968  21.293  0.00  0.00    +0.000 A 
ATOM     20  N   UNL     1      47.827   6.254  21.171  0.00  0.00    +0.000 NA
ATOM     21  C   UNL     1      48.145   6.752  19.965  0.00  0.00    +0.000 A 
BRANCH  17  22
ATOM     22  O   UNL     1      49.750   3.912  18.308  0.00  0.00    +0.000 OA
ATOM     23  H   UNL     1      49.229   3.087  18.249  0.00  0.00    +0.000 HD
ENDBRANCH  17  22
ENDBRANCH   8  15
ENDBRANCH   7  10
ENDBRANCH   1   7
BRANCH   4  24
ATOM     24  C   UNL     1      44.905   5.915  10.902  0.00  0.00    +0.000 C 
BRANCH  24  25
ATOM     25  N   UNL     1      44.537   4.489  10.679  0.00  0.00    +0.000 NA
BRANCH  25  26
ATOM     26  C   UNL     1      43.300   4.131  11.426  0.00  0.00    +0.000 C 
BRANCH  26  27
ATOM     27  C   UNL     1      42.511   5.317  12.020  0.00  0.00    +0.000 C 
BRANCH  27  28
ATOM     28  O   UNL     1      42.809   5.473  13.407  0.00  0.00    +0.000 OA
ATOM     29  H   UNL     1      43.574   4.905  13.604  0.00  0.00    +0.000 HD
ENDBRANCH  27  28
ENDBRANCH  26  27
ENDBRANCH  25  26
BRANCH  25  30
ATOM     30  C   UNL     1      44.328   4.272   9.233  0.00  0.00    +0.000 C 
BRANCH  30  31
ATOM     31  C   UNL     1      45.354   3.380   8.571  0.00  0.00    +0.000 A 
ATOM     32  C   UNL     1      45.395   2.004   8.835  0.00  0.00    +0.000 A 
ATOM     33  C   UNL     1      46.288   1.182   8.146  0.00  0.00    +0.000 A 
ATOM     34  C   UNL     1      47.158   1.730   7.204  0.00  0.00    +0.000 A 
ATOM     35  C   UNL     1      47.151   3.102   6.963  0.00  0.00    +0.000 A 
ATOM     36  C   UNL     1      46.253   3.923   7.643  0.00  0.00    +0.000 A 
ENDBRANCH  30  31
ENDBRANCH  25  30
ENDBRANCH  24  25
ENDBRANCH   4  24
TORSDOF 11
ENDMDL
MODEL 3
REMARK VINA RESULT:    -7.260      2.376      2.940
REMARK INTER + INTRA:         -13.309
REMARK INTER:                 -11.933
REMARK INTRA:                  -1.376
REMARK UNBOUND:                -1.804
REMARK  Name = 
REMARK  12 active torsions:
REMARK  status: ('A' for Active; 'I' for Inactive)
REMARK    1  A    between atoms: C_1  and  N_2
REMARK    2  A    between atoms: C_4  and  C_5
REMARK    3  A    between atoms: N_7  and  C_8
REMARK    4  A    between atoms: C_8  and  C_9
REMARK    5  A    between atoms: C_12  and  C_13
REMARK    6  A    between atoms: C_13  and  N_14
REMARK    7  A    between atoms: N_14  and  C_15
REMARK    8  A    between atoms: N_14  and  C_18
REMARK    9  A    between atoms: C_15  and  C_16
REMARK   10  A    between atoms: C_16  and  O_17
REMARK   11  A    between atoms: C_18  and  C_19
REMARK   12  A    between atoms: C_28  and  O_29
REMARK                            x       y       z     vdW  Elec       q    Type
REMARK                         _______ _______ _______ _____ _____    ______ ____
ROOT
ATOM      1  C   UNL     1      48.294   6.787  13.389  0.00  0.00    +0.000 A 
ATOM      2  C   UNL     1      47.333   5.864  13.818  0.00  0.00    +0.000 A 
ATOM      3  C   UNL     1      46.288   5.494  12.977  0.00  0.00    +0.000 A 
ATOM      4  C   UNL     1      46.179   6.064  11.703  0.00  0.00    +0.000 A 
ATOM      5  C   UNL     1      47.207   6.888  11.229  0.00  0.00    +0.000 A 
ATOM      6  C   UNL     1      48.263   7.245  12.065  0.00  0.00    +0.000 A 
ENDROOT
BRANCH   1   7
ATOM      7  C   UNL     1      49.337   7.277  14.349  0.00  0.00    +0.000 C 
BRANCH   7  10
ATOM      8  C   UNL     1      49.841   6.621  16.643  0.00  0.00    +0.000 C 
ATOM      9  O   UNL     1      51.026   6.410  16.383  0.00  0.00    +0.000 OA
ATOM     10  N   UNL     1      48.937   7.043  15.707  0.00  0.00    +0.000 N 
ATOM     11  H   UNL     1      47.997   7.296  15.979  0.00  0.00    +0.000 HD
BRANCH   8  15
ATOM     12  C   UNL     1      48.657   4.558  21.038  0.00  0.00    +0.000 C 
ATOM     13  N   UNL     1      48.780   5.504  19.954  0.00  0.00    +0.000 N 
ATOM     14  C   UNL     1      49.385   5.254  18.749  0.00  0.00    +0.000 A 
ATOM     15  C   UNL     1      49.313   6.413  17.978  0.00  0.00    +0.000 A 
ATOM     16  C   UNL     1      48.621   7.388  18.772  0.00  0.00    +0.000 A 
ATOM     17  C   UNL     1      48.212   8.718  18.632  0.00  0.00    +0.000 A 
ATOM     18  N   UNL     1      47.571   9.341  19.635  0.00  0.00    +0.000 NA
ATOM     19  C   UNL     1      47.346   8.640  20.758  0.00  0.00    +0.000 A 
ATOM     20  N   UNL     1      47.679   7.363  21.022  0.00  0.00    +0.000 NA
ATOM     21  C   UNL     1      48.315   6.791  19.987  0.00  0.00    +0.000 A 
BRANCH  17  22
ATOM     22  O   UNL     1      48.418   9.480  17.507  0.00  0.00    +0.000 OA
ATOM     23  H   UNL     1      49.384   9.573  17.383  0.00  0.00    +0.000 HD
ENDBRANCH  17  22
ENDBRANCH   8  15
ENDBRANCH   7  10
ENDBRANCH   1   7
BRANCH   4  24
ATOM     24  C   UNL     1      44.926   5.865  10.882  0.00  0.00    +0.000 C 
BRANCH  24  25
ATOM     25  N   UNL     1      44.571   4.433  10.678  0.00  0.00    +0.000 NA
BRANCH  25  26
ATOM     26  C   UNL     1      43.359   4.064  11.459  0.00  0.00    +0.000 C 
BRANCH  26  27
ATOM     27  C   UNL     1      42.498   5.245  11.955  0.00  0.00    +0.000 C 
BRANCH  27  28
ATOM     28  O   UNL     1      42.581   5.364  13.375  0.00  0.00    +0.000 OA
ATOM     29  H   UNL     1      43.054   4.580  13.704  0.00  0.00    +0.000 HD
ENDBRANCH  27  28
ENDBRANCH  26  27
ENDBRANCH  25  26
BRANCH  25  30
ATOM     30  C   UNL     1      44.328   4.203   9.240  0.00  0.00    +0.000 C 
BRANCH  30  31
ATOM     31  C   UNL     1      45.366   3.347   8.550  0.00  0.00    +0.000 A 
ATOM     32  C   UNL     1      45.449   1.969   8.796  0.00  0.00    +0.000 A 
ATOM     33  C   UNL     1      46.352   1.180   8.082  0.00  0.00    +0.000 A 
ATOM     34  C   UNL     1      47.191   1.764   7.133  0.00  0.00    +0.000 A 
ATOM     35  C   UNL     1      47.145   3.138   6.910  0.00  0.00    +0.000 A 
ATOM     36  C   UNL     1      46.235   3.926   7.615  0.00  0.00    +0.000 A 
ENDBRANCH  30  31
ENDBRANCH  25  30
ENDBRANCH  24  25
ENDBRANCH   4  24
TORSDOF 11
ENDMDL
MODEL 4
REMARK VINA RESULT:    -6.954      1.861      2.226
REMARK INTER + INTRA:         -12.823
REMARK INTER:                 -11.463
REMARK INTRA:                  -1.360
REMARK UNBOUND:                -1.804
REMARK  Name = 
REMARK  12 active torsions:
REMARK  status: ('A' for Active; 'I' for Inactive)
REMARK    1  A    between atoms: C_1  and  N_2
REMARK    2  A    between atoms: C_4  and  C_5
REMARK    3  A    between atoms: N_7  and  C_8
REMARK    4  A    between atoms: C_8  and  C_9
REMARK    5  A    between atoms: C_12  and  C_13
REMARK    6  A    between atoms: C_13  and  N_14
REMARK    7  A    between atoms: N_14  and  C_15
REMARK    8  A    between atoms: N_14  and  C_18
REMARK    9  A    between atoms: C_15  and  C_16
REMARK   10  A    between atoms: C_16  and  O_17
REMARK   11  A    between atoms: C_18  and  C_19
REMARK   12  A    between atoms: C_28  and  O_29
REMARK                            x       y       z     vdW  Elec       q    Type
REMARK                         _______ _______ _______ _____ _____    ______ ____
ROOT
ATOM      1  C   UNL     1      47.774   8.051  12.894  0.00  0.00    +0.000 A 
ATOM      2  C   UNL     1      47.811   6.891  12.110  0.00  0.00    +0.000 A 
ATOM      3  C   UNL     1      46.650   6.402  11.520  0.00  0.00    +0.000 A 
ATOM      4  C   UNL     1      45.430   7.056  11.729  0.00  0.00    +0.000 A 
ATOM      5  C   UNL     1      45.414   8.282  12.406  0.00  0.00    +0.000 A 
ATOM      6  C   UNL     1      46.581   8.781  12.982  0.00  0.00    +0.000 A 
ENDROOT
BRANCH   1   7
ATOM      7  C   UNL     1      49.003   8.492  13.631  0.00  0.00    +0.000 C 
BRANCH   7  10
ATOM      8  C   UNL     1      48.990   7.696  15.935  0.00  0.00    +0.000 C 
ATOM      9  O   UNL     1      48.326   8.657  16.325  0.00  0.00    +0.000 OA
ATOM     10  N   UNL     1      49.374   7.534  14.633  0.00  0.00    +0.000 N 
ATOM     11  H   UNL     1      49.836   6.686  14.335  0.00  0.00    +0.000 HD
BRANCH   8  15
ATOM     12  C   UNL     1      51.545   3.946  18.028  0.00  0.00    +0.000 C 
ATOM     13  N   UNL     1      50.570   4.987  17.807  0.00  0.00    +0.000 N 
ATOM     14  C   UNL     1      50.489   5.772  16.686  0.00  0.00    +0.000 A 
ATOM     15  C   UNL     1      49.431   6.664  16.854  0.00  0.00    +0.000 A 
ATOM     16  C   UNL     1      48.858   6.376  18.138  0.00  0.00    +0.000 A 
ATOM     17  C   UNL     1      47.806   6.863  18.920  0.00  0.00    +0.000 A 
ATOM     18  N   UNL     1      47.560   6.336  20.132  0.00  0.00    +0.000 NA
ATOM     19  C   UNL     1      48.358   5.339  20.548  0.00  0.00    +0.000 A 
ATOM     20  N   UNL     1      49.393   4.776  19.900  0.00  0.00    +0.000 NA
ATOM     21  C   UNL     1      49.592   5.340  18.697  0.00  0.00    +0.000 A 
BRANCH  17  22
ATOM     22  O   UNL     1      46.963   7.880  18.543  0.00  0.00    +0.000 OA
ATOM     23  H   UNL     1      46.296   7.504  17.935  0.00  0.00    +0.000 HD
ENDBRANCH  17  22
ENDBRANCH   8  15
ENDBRANCH   7  10
ENDBRANCH   1   7
BRANCH   4  24
ATOM     24  C   UNL     1      44.133   6.405  11.309  0.00  0.00    +0.000 C 
BRANCH  24  25
ATOM     25  N   UNL     1      44.223   4.923  11.193  0.00  0.00    +0.000 NA
BRANCH  25  26
ATOM     26  C   UNL     1      43.397   4.253  12.235  0.00  0.00    +0.000 C 
BRANCH  26  27
ATOM     27  C   UNL     1      43.729   2.768  12.498  0.00  0.00    +0.000 C 
BRANCH  27  28
ATOM     28  O   UNL     1      42.869   1.921  11.734  0.00  0.00    +0.000 OA
ATOM     29  H   UNL     1      42.440   1.308  12.356  0.00  0.00    +0.000 HD
ENDBRANCH  27  28
ENDBRANCH  26  27
ENDBRANCH  25  26
BRANCH  25  30
ATOM     30  C   UNL     1      43.757   4.521   9.851  0.00  0.00    +0.000 C 
BRANCH  30  31
ATOM     31  C   UNL     1      44.784   3.788   9.016  0.00  0.00    +0.000 A 
ATOM     32  C   UNL     1      45.679   4.486   8.193  0.00  0.00    +0.000 A 
ATOM     33  C   UNL     1      46.680   3.800   7.502  0.00  0.00    +0.000 A 
ATOM     34  C   UNL     1      46.781   2.414   7.612  0.00  0.00    +0.000 A 
ATOM     35  C   UNL     1      45.871   1.708   8.397  0.00  0.00    +0.000 A 
ATOM     36  C   UNL     1      44.878   2.392   9.097  0.00  0.00    +0.000 A 
ENDBRANCH  30  31
ENDBRANCH  25  30
ENDBRANCH  24  25
ENDBRANCH   4  24
TORSDOF 11
ENDMDL
MODEL 5
REMARK VINA RESULT:    -6.818      2.891      9.817
REMARK INTER + INTRA:         -12.609
REMARK INTER:                 -10.224
REMARK INTRA:                  -2.384
REMARK UNBOUND:                -1.804
REMARK  Name = 
REMARK  12 active torsions:
REMARK  status: ('A' for Active; 'I' for Inactive)
REMARK    1  A    between atoms: C_1  and  N_2
REMARK    2  A    between atoms: C_4  and  C_5
REMARK    3  A    between atoms: N_7  and  C_8
REMARK    4  A    between atoms: C_8  and  C_9
REMARK    5  A    between atoms: C_12  and  C_13
REMARK    6  A    between atoms: C_13  and  N_14
REMARK    7  A    between atoms: N_14  and  C_15
REMARK    8  A    between atoms: N_14  and  C_18
REMARK    9  A    between atoms: C_15  and  C_16
REMARK   10  A    between atoms: C_16  and  O_17
REMARK   11  A    between atoms: C_18  and  C_19
REMARK   12  A    between atoms: C_28  and  O_29
REMARK                            x       y       z     vdW  Elec       q    Type
REMARK                         _______ _______ _______ _____ _____    ______ ____
ROOT
ATOM      1  C   UNL     1      48.763   3.883  17.061  0.00  0.00    +0.000 A 
ATOM      2  C   UNL     1      49.171   5.219  16.974  0.00  0.00    +0.000 A 
ATOM      3  C   UNL     1      50.464   5.585  17.335  0.00  0.00    +0.000 A 
ATOM      4  C   UNL     1      51.358   4.619  17.812  0.00  0.00    +0.000 A 
ATOM      5  C   UNL     1      50.990   3.267  17.779  0.00  0.00    +0.000 A 
ATOM      6  C   UNL     1      49.701   2.899  17.401  0.00  0.00    +0.000 A 
ENDROOT
BRANCH   1   7
ATOM      7  C   UNL     1      47.331   3.524  16.796  0.00  0.00    +0.000 C 
BRANCH   7  10
ATOM      8  C   UNL     1      46.813   4.087  14.482  0.00  0.00    +0.000 C 
ATOM      9  O   UNL     1      47.360   3.072  14.051  0.00  0.00    +0.000 OA
ATOM     10  N   UNL     1      46.754   4.395  15.813  0.00  0.00    +0.000 N 
ATOM     11  H   UNL     1      46.215   5.186  16.134  0.00  0.00    +0.000 HD
BRANCH   8  15
ATOM     12  C   UNL     1      45.685   8.316  12.069  0.00  0.00    +0.000 C 
ATOM     13  N   UNL     1      45.687   6.936  12.493  0.00  0.00    +0.000 N 
ATOM     14  C   UNL     1      46.479   6.411  13.482  0.00  0.00    +0.000 A 
ATOM     15  C   UNL     1      46.199   5.049  13.586  0.00  0.00    +0.000 A 
ATOM     16  C   UNL     1      45.183   4.767  12.613  0.00  0.00    +0.000 A 
ATOM     17  C   UNL     1      44.458   3.650  12.186  0.00  0.00    +0.000 A 
ATOM     18  N   UNL     1      43.557   3.763  11.195  0.00  0.00    +0.000 NA
ATOM     19  C   UNL     1      43.390   4.976  10.644  0.00  0.00    +0.000 A 
ATOM     20  N   UNL     1      44.012   6.126  10.960  0.00  0.00    +0.000 NA
ATOM     21  C   UNL     1      44.898   5.955  11.955  0.00  0.00    +0.000 A 
BRANCH  17  22
ATOM     22  O   UNL     1      44.592   2.388  12.713  0.00  0.00    +0.000 OA
ATOM     23  H   UNL     1      44.643   2.475  13.686  0.00  0.00    +0.000 HD
ENDBRANCH  17  22
ENDBRANCH   8  15
ENDBRANCH   7  10
ENDBRANCH   1   7
BRANCH   4  24
ATOM     24  C   UNL     1      52.669   5.033  18.439  0.00  0.00    +0.000 C 
BRANCH  24  25
ATOM     25  N   UNL     1      52.756   4.720  19.892  0.00  0.00    +0.000 NA
BRANCH  25  26
ATOM     26  C   UNL     1      54.157   4.416  20.292  0.00  0.00    +0.000 C 
BRANCH  26  27
ATOM     27  C   UNL     1      54.805   3.203  19.592  0.00  0.00    +0.000 C 
BRANCH  27  28
ATOM     28  O   UNL     1      53.947   2.064  19.671  0.00  0.00    +0.000 OA
ATOM     29  H   UNL     1      53.078   2.376  19.977  0.00  0.00    +0.000 HD
ENDBRANCH  27  28
ENDBRANCH  26  27
ENDBRANCH  25  26
BRANCH  25  30
ATOM     30  C   UNL     1      52.258   5.879  20.660  0.00  0.00    +0.000 C 
BRANCH  30  31
ATOM     31  C   UNL     1      50.754   5.943  20.806  0.00  0.00    +0.000 A 
ATOM     32  C   UNL     1      50.054   7.137  20.583  0.00  0.00    +0.000 A 
ATOM     33  C   UNL     1      48.659   7.155  20.633  0.00  0.00    +0.000 A 
ATOM     34  C   UNL     1      47.955   5.987  20.925  0.00  0.00    +0.000 A 
ATOM     35  C   UNL     1      48.644   4.804  21.188  0.00  0.00    +0.000 A 
ATOM     36  C   UNL     1      50.036   4.782  21.127  0.00  0.00    +0.000 A 
ENDBRANCH  30  31
ENDBRANCH  25  30
ENDBRANCH  24  25
ENDBRANCH   4  24
TORSDOF 11
ENDMDL
MODEL 6
REMARK VINA RESULT:    -6.756      1.729      2.986
REMARK INTER + INTRA:         -12.510
REMARK INTER:                 -10.973
REMARK INTRA:                  -1.537
REMARK UNBOUND:                -1.804
REMARK  Name = 
REMARK  12 active torsions:
REMARK  status: ('A' for Active; 'I' for Inactive)
REMARK    1  A    between atoms: C_1  and  N_2
REMARK    2  A    between atoms: C_4  and  C_5
REMARK    3  A    between atoms: N_7  and  C_8
REMARK    4  A    between atoms: C_8  and  C_9
REMARK    5  A    between atoms: C_12  and  C_13
REMARK    6  A    between atoms: C_13  and  N_14
REMARK    7  A    between atoms: N_14  and  C_15
REMARK    8  A    between atoms: N_14  and  C_18
REMARK    9  A    between atoms: C_15  and  C_16
REMARK   10  A    between atoms: C_16  and  O_17
REMARK   11  A    between atoms: C_18  and  C_19
REMARK   12  A    between atoms: C_28  and  O_29
REMARK                            x       y       z     vdW  Elec       q    Type
REMARK                         _______ _______ _______ _____ _____    ______ ____
ROOT
ATOM      1  C   UNL     1      47.781   8.166  12.579  0.00  0.00    +0.000 A 
ATOM      2  C   UNL     1      47.800   6.998  11.806  0.00  0.00    +0.000 A 
ATOM      3  C   UNL     1      46.617   6.465  11.306  0.00  0.00    +0.000 A 
ATOM      4  C   UNL     1      45.393   7.082  11.596  0.00  0.00    +0.000 A 
ATOM      5  C   UNL     1      45.386   8.315  12.260  0.00  0.00    +0.000 A 
ATOM      6  C   UNL     1      46.574   8.858  12.745  0.00  0.00    +0.000 A 
ENDROOT
BRANCH   1   7
ATOM      7  C   UNL     1      49.045   8.655  13.221  0.00  0.00    +0.000 C 
BRANCH   7  10
ATOM      8  C   UNL     1      49.218   7.684  15.450  0.00  0.00    +0.000 C 
ATOM      9  O   UNL     1      48.450   8.515  15.935  0.00  0.00    +0.000 OA
ATOM     10  N   UNL     1      49.572   7.678  14.129  0.00  0.00    +0.000 N 
ATOM     11  H   UNL     1      50.129   6.924  13.750  0.00  0.00    +0.000 HD
BRANCH   8  15
ATOM     12  C   UNL     1      49.854   3.769  18.490  0.00  0.00    +0.000 C 
ATOM     13  N   UNL     1      50.123   4.893  17.626  0.00  0.00    +0.000 N 
ATOM     14  C   UNL     1      49.171   5.683  17.034  0.00  0.00    +0.000 A 
ATOM     15  C   UNL     1      49.822   6.649  16.268  0.00  0.00    +0.000 A 
ATOM     16  C   UNL     1      51.228   6.417  16.431  0.00  0.00    +0.000 A 
ATOM     17  C   UNL     1      52.419   6.987  15.970  0.00  0.00    +0.000 A 
ATOM     18  N   UNL     1      53.605   6.473  16.336  0.00  0.00    +0.000 NA
ATOM     19  C   UNL     1      53.594   5.405  17.150  0.00  0.00    +0.000 A 
ATOM     20  N   UNL     1      52.529   4.765  17.668  0.00  0.00    +0.000 NA
ATOM     21  C   UNL     1      51.374   5.321  17.270  0.00  0.00    +0.000 A 
BRANCH  17  22
ATOM     22  O   UNL     1      52.487   8.077  15.136  0.00  0.00    +0.000 OA
ATOM     23  H   UNL     1      52.408   8.880  15.688  0.00  0.00    +0.000 HD
ENDBRANCH  17  22
ENDBRANCH   8  15
ENDBRANCH   7  10
ENDBRANCH   1   7
BRANCH   4  24
ATOM     24  C   UNL     1      44.092   6.384  11.277  0.00  0.00    +0.000 C 
BRANCH  24  25
ATOM     25  N   UNL     1      44.218   4.902  11.192  0.00  0.00    +0.000 NA
BRANCH  25  26
ATOM     26  C   UNL     1      43.429   4.235  12.264  0.00  0.00    +0.000 C 
BRANCH  26  27
ATOM     27  C   UNL     1      43.754   2.746  12.505  0.00  0.00    +0.000 C 
BRANCH  27  28
ATOM     28  O   UNL     1      42.874   1.913  11.749  0.00  0.00    +0.000 OA
ATOM     29  H   UNL     1      42.452   1.297  12.372  0.00  0.00    +0.000 HD
ENDBRANCH  27  28
ENDBRANCH  26  27
ENDBRANCH  25  26
BRANCH  25  30
ATOM     30  C   UNL     1      43.737   4.459   9.868  0.00  0.00    +0.000 C 
BRANCH  30  31
ATOM     31  C   UNL     1      44.771   3.746   9.025  0.00  0.00    +0.000 A 
ATOM     32  C   UNL     1      45.659   4.462   8.210  0.00  0.00    +0.000 A 
ATOM     33  C   UNL     1      46.665   3.794   7.511  0.00  0.00    +0.000 A 
ATOM     34  C   UNL     1      46.779   2.407   7.604  0.00  0.00    +0.000 A 
ATOM     35  C   UNL     1      45.876   1.683   8.379  0.00  0.00    +0.000 A 
ATOM     36  C   UNL     1      44.877   2.350   9.088  0.00  0.00    +0.000 A 
ENDBRANCH  30  31
ENDBRANCH  25  30
ENDBRANCH  24  25
ENDBRANCH   4  24
TORSDOF 11
ENDMDL
MODEL 7
REMARK VINA RESULT:    -6.598      3.008      9.020
REMARK INTER + INTRA:         -12.259
REMARK INTER:                  -9.560
REMARK INTRA:                  -2.699
REMARK UNBOUND:                -1.804
REMARK  Name = 
REMARK  12 active torsions:
REMARK  status: ('A' for Active; 'I' for Inactive)
REMARK    1  A    between atoms: C_1  and  N_2
REMARK    2  A    between atoms: C_4  and  C_5
REMARK    3  A    between atoms: N_7  and  C_8
REMARK    4  A    between atoms: C_8  and  C_9
REMARK    5  A    between atoms: C_12  and  C_13
REMARK    6  A    between atoms: C_13  and  N_14
REMARK    7  A    between atoms: N_14  and  C_15
REMARK    8  A    between atoms: N_14  and  C_18
REMARK    9  A    between atoms: C_15  and  C_16
REMARK   10  A    between atoms: C_16  and  O_17
REMARK   11  A    between atoms: C_18  and  C_19
REMARK   12  A    between atoms: C_28  and  O_29
REMARK                            x       y       z     vdW  Elec       q    Type
REMARK                         _______ _______ _______ _____ _____    ______ ____
ROOT
ATOM      1  C   UNL     1      47.970   4.236  17.803  0.00  0.00    +0.000 A 
ATOM      2  C   UNL     1      49.200   3.959  18.412  0.00  0.00    +0.000 A 
ATOM      3  C   UNL     1      49.622   4.694  19.515  0.00  0.00    +0.000 A 
ATOM      4  C   UNL     1      48.826   5.735  20.008  0.00  0.00    +0.000 A 
ATOM      5  C   UNL     1      47.542   5.928  19.480  0.00  0.00    +0.000 A 
ATOM      6  C   UNL     1      47.113   5.179  18.386  0.00  0.00    +0.000 A 
ENDROOT
BRANCH   1   7
ATOM      7  C   UNL     1      47.589   3.527  16.538  0.00  0.00    +0.000 C 
BRANCH   7  10
ATOM      8  C   UNL     1      46.822   4.113  14.299  0.00  0.00    +0.000 C 
ATOM      9  O   UNL     1      47.286   3.084  13.807  0.00  0.00    +0.000 OA
ATOM     10  N   UNL     1      46.928   4.418  15.628  0.00  0.00    +0.000 N 
ATOM     11  H   UNL     1      46.452   5.224  16.009  0.00  0.00    +0.000 HD
BRANCH   8  15
ATOM     12  C   UNL     1      45.510   8.393  12.077  0.00  0.00    +0.000 C 
ATOM     13  N   UNL     1      45.540   7.005  12.474  0.00  0.00    +0.000 N 
ATOM     14  C   UNL     1      46.415   6.457  13.376  0.00  0.00    +0.000 A 
ATOM     15  C   UNL     1      46.136   5.096  13.480  0.00  0.00    +0.000 A 
ATOM     16  C   UNL     1      45.034   4.837  12.599  0.00  0.00    +0.000 A 
ATOM     17  C   UNL     1      44.265   3.733  12.219  0.00  0.00    +0.000 A 
ATOM     18  N   UNL     1      43.279   3.869  11.317  0.00  0.00    +0.000 NA
ATOM     19  C   UNL     1      43.070   5.094  10.806  0.00  0.00    +0.000 A 
ATOM     20  N   UNL     1      43.727   6.234  11.085  0.00  0.00    +0.000 NA
ATOM     21  C   UNL     1      44.699   6.039  11.991  0.00  0.00    +0.000 A 
BRANCH  17  22
ATOM     22  O   UNL     1      44.437   2.461  12.709  0.00  0.00    +0.000 OA
ATOM     23  H   UNL     1      43.561   2.027  12.728  0.00  0.00    +0.000 HD
ENDBRANCH  17  22
ENDBRANCH   8  15
ENDBRANCH   7  10
ENDBRANCH   1   7
BRANCH   4  24
ATOM     24  C   UNL     1      49.375   6.696  21.036  0.00  0.00    +0.000 C 
BRANCH  24  25
ATOM     25  N   UNL     1      49.351   8.118  20.591  0.00  0.00    +0.000 NA
BRANCH  25  26
ATOM     26  C   UNL     1      49.426   9.045  21.753  0.00  0.00    +0.000 C 
BRANCH  26  27
ATOM     27  C   UNL     1      48.811  10.443  21.534  0.00  0.00    +0.000 C 
BRANCH  27  28
ATOM     28  O   UNL     1      47.671  10.360  20.677  0.00  0.00    +0.000 OA
ATOM     29  H   UNL     1      47.346   9.444  20.716  0.00  0.00    +0.000 HD
ENDBRANCH  27  28
ENDBRANCH  26  27
ENDBRANCH  25  26
BRANCH  25  30
ATOM     30  C   UNL     1      50.496   8.354  19.689  0.00  0.00    +0.000 C 
BRANCH  30  31
ATOM     31  C   UNL     1      50.245   7.998  18.240  0.00  0.00    +0.000 A 
ATOM     32  C   UNL     1      51.132   7.174  17.533  0.00  0.00    +0.000 A 
ATOM     33  C   UNL     1      50.837   6.781  16.227  0.00  0.00    +0.000 A 
ATOM     34  C   UNL     1      49.667   7.224  15.611  0.00  0.00    +0.000 A 
ATOM     35  C   UNL     1      48.799   8.075  16.292  0.00  0.00    +0.000 A 
ATOM     36  C   UNL     1      49.086   8.460  17.601  0.00  0.00    +0.000 A 
ENDBRANCH  30  31
ENDBRANCH  25  30
ENDBRANCH  24  25
ENDBRANCH   4  24
TORSDOF 11
ENDMDL
MODEL 8
REMARK VINA RESULT:    -6.586      1.825      2.535
REMARK INTER + INTRA:         -12.241
REMARK INTER:                 -10.633
REMARK INTRA:                  -1.609
REMARK UNBOUND:                -1.804
REMARK  Name = 
REMARK  12 active torsions:
REMARK  status: ('A' for Active; 'I' for Inactive)
REMARK    1  A    between atoms: C_1  and  N_2
REMARK    2  A    between atoms: C_4  and  C_5
REMARK    3  A    between atoms: N_7  and  C_8
REMARK    4  A    between atoms: C_8  and  C_9
REMARK    5  A    between atoms: C_12  and  C_13
REMARK    6  A    between atoms: C_13  and  N_14
REMARK    7  A    between atoms: N_14  and  C_15
REMARK    8  A    between atoms: N_14  and  C_18
REMARK    9  A    between atoms: C_15  and  C_16
REMARK   10  A    between atoms: C_16  and  O_17
REMARK   11  A    between atoms: C_18  and  C_19
REMARK   12  A    between atoms: C_28  and  O_29
REMARK                            x       y       z     vdW  Elec       q    Type
REMARK                         _______ _______ _______ _____ _____    ______ ____
ROOT
ATOM      1  C   UNL     1      48.909   8.372  12.944  0.00  0.00    +0.000 A 
ATOM      2  C   UNL     1      48.823   7.628  11.761  0.00  0.00    +0.000 A 
ATOM      3  C   UNL     1      47.584   7.230  11.269  0.00  0.00    +0.000 A 
ATOM      4  C   UNL     1      46.416   7.551  11.970  0.00  0.00    +0.000 A 
ATOM      5  C   UNL     1      46.493   8.401  13.082  0.00  0.00    +0.000 A 
ATOM      6  C   UNL     1      47.733   8.813  13.565  0.00  0.00    +0.000 A 
ENDROOT
BRANCH   1   7
ATOM      7  C   UNL     1      50.254   8.680  13.533  0.00  0.00    +0.000 C 
BRANCH   7  10
ATOM      8  C   UNL     1      51.201   7.859  15.624  0.00  0.00    +0.000 C 
ATOM      9  O   UNL     1      51.301   8.993  16.092  0.00  0.00    +0.000 OA
ATOM     10  N   UNL     1      50.704   7.609  14.375  0.00  0.00    +0.000 N 
ATOM     11  H   UNL     1      50.550   6.660  14.064  0.00  0.00    +0.000 HD
BRANCH   8  15
ATOM     12  C   UNL     1      54.015   4.510  18.041  0.00  0.00    +0.000 C 
ATOM     13  N   UNL     1      52.877   5.188  17.466  0.00  0.00    +0.000 N 
ATOM     14  C   UNL     1      52.929   6.353  16.746  0.00  0.00    +0.000 A 
ATOM     15  C   UNL     1      51.630   6.694  16.376  0.00  0.00    +0.000 A 
ATOM     16  C   UNL     1      50.775   5.667  16.898  0.00  0.00    +0.000 A 
ATOM     17  C   UNL     1      49.406   5.379  16.903  0.00  0.00    +0.000 A 
ATOM     18  N   UNL     1      48.944   4.286  17.534  0.00  0.00    +0.000 NA
ATOM     19  C   UNL     1      49.842   3.498  18.149  0.00  0.00    +0.000 A 
ATOM     20  N   UNL     1      51.176   3.654  18.217  0.00  0.00    +0.000 NA
ATOM     21  C   UNL     1      51.582   4.759  17.570  0.00  0.00    +0.000 A 
BRANCH  17  22
ATOM     22  O   UNL     1      48.448   6.151  16.292  0.00  0.00    +0.000 OA
ATOM     23  H   UNL     1      48.198   6.863  16.914  0.00  0.00    +0.000 HD
ENDBRANCH  17  22
ENDBRANCH   8  15
ENDBRANCH   7  10
ENDBRANCH   1   7
BRANCH   4  24
ATOM     24  C   UNL     1      45.097   6.920  11.589  0.00  0.00    +0.000 C 
BRANCH  24  25
ATOM     25  N   UNL     1      45.126   5.430  11.607  0.00  0.00    +0.000 NA
BRANCH  25  26
ATOM     26  C   UNL     1      44.722   4.902  12.939  0.00  0.00    +0.000 C 
BRANCH  26  27
ATOM     27  C   UNL     1      45.868   4.361  13.819  0.00  0.00    +0.000 C 
BRANCH  27  28
ATOM     28  O   UNL     1      46.349   3.118  13.306  0.00  0.00    +0.000 OA
ATOM     29  H   UNL     1      46.208   3.128  12.344  0.00  0.00    +0.000 HD
ENDBRANCH  27  28
ENDBRANCH  26  27
ENDBRANCH  25  26
BRANCH  25  30
ATOM     30  C   UNL     1      44.206   4.924  10.569  0.00  0.00    +0.000 C 
BRANCH  30  31
ATOM     31  C   UNL     1      44.847   4.017   9.542  0.00  0.00    +0.000 A 
ATOM     32  C   UNL     1      45.589   4.542   8.474  0.00  0.00    +0.000 A 
ATOM     33  C   UNL     1      46.250   3.687   7.590  0.00  0.00    +0.000 A 
ATOM     34  C   UNL     1      46.158   2.306   7.753  0.00  0.00    +0.000 A 
ATOM     35  C   UNL     1      45.391   1.774   8.787  0.00  0.00    +0.000 A 
ATOM     36  C   UNL     1      44.739   2.626   9.678  0.00  0.00    +0.000 A 
ENDBRANCH  30  31
ENDBRANCH  25  30
ENDBRANCH  24  25
ENDBRANCH   4  24
TORSDOF 11
ENDMDL
MODEL 9
REMARK VINA RESULT:    -6.299      2.924      3.214
REMARK INTER + INTRA:         -11.786
REMARK INTER:                 -10.199
REMARK INTRA:                  -1.587
REMARK UNBOUND:                -1.804
REMARK  Name = 
REMARK  12 active torsions:
REMARK  status: ('A' for Active; 'I' for Inactive)
REMARK    1  A    between atoms: C_1  and  N_2
REMARK    2  A    between atoms: C_4  and  C_5
REMARK    3  A    between atoms: N_7  and  C_8
REMARK    4  A    between atoms: C_8  and  C_9
REMARK    5  A    between atoms: C_12  and  C_13
REMARK    6  A    between atoms: C_13  and  N_14
REMARK    7  A    between atoms: N_14  and  C_15
REMARK    8  A    between atoms: N_14  and  C_18
REMARK    9  A    between atoms: C_15  and  C_16
REMARK   10  A    between atoms: C_16  and  O_17
REMARK   11  A    between atoms: C_18  and  C_19
REMARK   12  A    between atoms: C_28  and  O_29
REMARK                            x       y       z     vdW  Elec       q    Type
REMARK                         _______ _______ _______ _____ _____    ______ ____
ROOT
ATOM      1  C   UNL     1      48.216   9.019  12.240  0.00  0.00    +0.000 A 
ATOM      2  C   UNL     1      48.361   7.727  11.721  0.00  0.00    +0.000 A 
ATOM      3  C   UNL     1      47.246   6.922  11.514  0.00  0.00    +0.000 A 
ATOM      4  C   UNL     1      45.971   7.393  11.848  0.00  0.00    +0.000 A 
ATOM      5  C   UNL     1      45.814   8.727  12.246  0.00  0.00    +0.000 A 
ATOM      6  C   UNL     1      46.930   9.539  12.437  0.00  0.00    +0.000 A 
ENDROOT
BRANCH   1   7
ATOM      7  C   UNL     1      49.434   9.826  12.582  0.00  0.00    +0.000 C 
BRANCH   7  10
ATOM      8  C   UNL     1      50.457   8.916  14.599  0.00  0.00    +0.000 C 
ATOM      9  O   UNL     1      51.018   8.014  13.978  0.00  0.00    +0.000 OA
ATOM     10  N   UNL     1      49.655   9.848  13.999  0.00  0.00    +0.000 N 
ATOM     11  H   UNL     1      49.289  10.628  14.528  0.00  0.00    +0.000 HD
BRANCH   8  15
ATOM     12  C   UNL     1      52.398   9.318  19.187  0.00  0.00    +0.000 C 
ATOM     13  N   UNL     1      51.453   9.226  18.099  0.00  0.00    +0.000 N 
ATOM     14  C   UNL     1      51.779   9.074  16.776  0.00  0.00    +0.000 A 
ATOM     15  C   UNL     1      50.597   9.041  16.038  0.00  0.00    +0.000 A 
ATOM     16  C   UNL     1      49.524   9.169  16.982  0.00  0.00    +0.000 A 
ATOM     17  C   UNL     1      48.127   9.211  16.943  0.00  0.00    +0.000 A 
ATOM     18  N   UNL     1      47.419   9.362  18.075  0.00  0.00    +0.000 NA
ATOM     19  C   UNL     1      48.105   9.471  19.225  0.00  0.00    +0.000 A 
ATOM     20  N   UNL     1      49.438   9.442  19.404  0.00  0.00    +0.000 NA
ATOM     21  C   UNL     1      50.093   9.288  18.242  0.00  0.00    +0.000 A 
BRANCH  17  22
ATOM     22  O   UNL     1      47.378   9.107  15.795  0.00  0.00    +0.000 OA
ATOM     23  H   UNL     1      47.275   8.156  15.592  0.00  0.00    +0.000 HD
ENDBRANCH  17  22
ENDBRANCH   8  15
ENDBRANCH   7  10
ENDBRANCH   1   7
BRANCH   4  24
ATOM     24  C   UNL     1      44.789   6.452  11.866  0.00  0.00    +0.000 C 
BRANCH  24  25
ATOM     25  N   UNL     1      45.147   5.044  11.538  0.00  0.00    +0.000 NA
BRANCH  25  26
ATOM     26  C   UNL     1      44.833   4.133  12.672  0.00  0.00    +0.000 C 
BRANCH  26  27
ATOM     27  C   UNL     1      43.423   3.503  12.654  0.00  0.00    +0.000 C 
BRANCH  27  28
ATOM     28  O   UNL     1      43.511   2.085  12.511  0.00  0.00    +0.000 OA
ATOM     29  H   UNL     1      43.013   1.844  11.711  0.00  0.00    +0.000 HD
ENDBRANCH  27  28
ENDBRANCH  26  27
ENDBRANCH  25  26
BRANCH  25  30
ATOM     30  C   UNL     1      44.393   4.627  10.339  0.00  0.00    +0.000 C 
BRANCH  30  31
ATOM     31  C   UNL     1      45.194   3.835   9.330  0.00  0.00    +0.000 A 
ATOM     32  C   UNL     1      45.209   2.433   9.356  0.00  0.00    +0.000 A 
ATOM     33  C   UNL     1      45.878   1.718   8.361  0.00  0.00    +0.000 A 
ATOM     34  C   UNL     1      46.554   2.397   7.348  0.00  0.00    +0.000 A 
ATOM     35  C   UNL     1      46.578   3.789   7.336  0.00  0.00    +0.000 A 
ATOM     36  C   UNL     1      45.901   4.506   8.322  0.00  0.00    +0.000 A 
ENDBRANCH  30  31
ENDBRANCH  25  30
ENDBRANCH  24  25
ENDBRANCH   4  24
TORSDOF 11
ENDMDL
