MODEL 1
REMARK VINA RESULT:    -8.681      0.000      0.000
REMARK INTER + INTRA:         -12.833
REMARK INTER:                 -11.725
REMARK INTRA:                  -1.107
REMARK UNBOUND:                -1.107
REMARK  Name = 
REMARK  6 active torsions:
REMARK  status: ('A' for Active; 'I' for Inactive)
REMARK    1  A    between atoms: C_2  and  C_19
REMARK    2  A    between atoms: N_3  and  C_4
REMARK    3  A    between atoms: C_4  and  C_5
REMARK    4  A    between atoms: C_9  and  O_10
REMARK    5  A    between atoms: O_10  and  C_11
REMARK    6  A    between atoms: C_11  and  C_12
REMARK                            x       y       z     vdW  Elec       q    Type
REMARK                         _______ _______ _______ _____ _____    ______ ____
ROOT
ATOM      1  O   UNL     1      48.737   6.190  12.906  0.00  0.00    +0.000 OA
ATOM      2  C   UNL     1      48.011   6.490  13.850  0.00  0.00    +0.000 C 
ATOM      3  N   UNL     1      46.756   7.010  13.674  0.00  0.00    +0.000 N 
ATOM      4  H   UNL     1      46.255   7.394  14.468  0.00  0.00    +0.000 HD
ENDROOT
BRANCH   2   5
ATOM      5  C   UNL     1      48.425   6.249  15.235  0.00  0.00    +0.000 A 
ATOM      6  C   UNL     1      49.196   7.195  15.896  0.00  0.00    +0.000 A 
ATOM      7  S   UNL     1      49.591   6.757  17.495  0.00  0.00    +0.000 S 
ATOM      8  C   UNL     1      48.711   5.306  17.373  0.00  0.00    +0.000 A 
ATOM      9  N   UNL     1      48.610   4.460  18.432  0.00  0.00    +0.000 NA
ATOM     10  C   UNL     1      47.878   3.415  18.212  0.00  0.00    +0.000 A 
ATOM     11  N   UNL     1      47.253   3.136  17.024  0.00  0.00    +0.000 N 
ATOM     12  C   UNL     1      47.396   3.921  15.904  0.00  0.00    +0.000 A 
ATOM     13  O   UNL     1      46.951   3.565  14.817  0.00  0.00    +0.000 OA
ATOM     14  C   UNL     1      48.157   5.139  16.116  0.00  0.00    +0.000 A 
ATOM     15  H   UNL     1      46.728   2.283  16.906  0.00  0.00    +0.000 HD
ENDBRANCH   2   5
BRANCH   3  16
ATOM     16  C   UNL     1      46.201   7.246  12.369  0.00  0.00    +0.000 C 
BRANCH  16  17
ATOM     17  C   UNL     1      45.194   6.197  11.987  0.00  0.00    +0.000 A 
ATOM     18  C   UNL     1      44.207   5.781  12.890  0.00  0.00    +0.000 A 
ATOM     19  C   UNL     1      43.235   4.859  12.498  0.00  0.00    +0.000 A 
ATOM     20  C   UNL     1      43.262   4.321  11.210  0.00  0.00    +0.000 A 
ATOM     21  C   UNL     1      44.279   4.677  10.324  0.00  0.00    +0.000 A 
ATOM     22  C   UNL     1      45.229   5.624  10.709  0.00  0.00    +0.000 A 
BRANCH  21  23
ATOM     23  O   UNL     1      44.254   4.058   9.102  0.00  0.00    +0.000 OA
BRANCH  23  24
ATOM     24  C   UNL     1      44.549   2.658   9.135  0.00  0.00    +0.000 C 
BRANCH  24  25
ATOM     25  C   UNL     1      45.724   2.375   8.240  0.00  0.00    +0.000 A 
ATOM     26  C   UNL     1      46.401   3.407   7.585  0.00  0.00    +0.000 A 
ATOM     27  C   UNL     1      47.507   3.082   6.813  0.00  0.00    +0.000 A 
ATOM     28  N   UNL     1      47.977   1.825   6.662  0.00  0.00    +0.000 NA
ATOM     29  C   UNL     1      47.308   0.846   7.306  0.00  0.00    +0.000 A 
ATOM     30  C   UNL     1      46.197   1.069   8.099  0.00  0.00    +0.000 A 
ENDBRANCH  24  25
ENDBRANCH  23  24
ENDBRANCH  21  23
ENDBRANCH  16  17
ENDBRANCH   3  16
TORSDOF 6
ENDMDL
MODEL 2
REMARK VINA RESULT:    -8.232      1.971      2.756
REMARK INTER + INTRA:         -12.226
REMARK INTER:                 -11.309
REMARK INTRA:                  -0.917
REMARK UNBOUND:                -1.107
REMARK  Name = 
REMARK  6 active torsions:
REMARK  status: ('A' for Active; 'I' for Inactive)
REMARK    1  A    between atoms: C_2  and  C_19
REMARK    2  A    between atoms: N_3  and  C_4
REMARK    3  A    between atoms: C_4  and  C_5
REMARK    4  A    between atoms: C_9  and  O_10
REMARK    5  A    between atoms: O_10  and  C_11
REMARK    6  A    between atoms: C_11  and  C_12
REMARK                            x       y       z     vdW  Elec       q    Type
REMARK                         _______ _______ _______ _____ _____    ______ ____
ROOT
ATOM      1  O   UNL     1      46.574   3.268  17.030  0.00  0.00    +0.000 OA
ATOM      2  C   UNL     1      47.370   4.019  16.473  0.00  0.00    +0.000 C 
ATOM      3  N   UNL     1      47.135   4.545  15.230  0.00  0.00    +0.000 N 
ATOM      4  H   UNL     1      47.882   5.024  14.738  0.00  0.00    +0.000 HD
ENDROOT
BRANCH   2   5
ATOM      5  C   UNL     1      48.602   4.450  17.139  0.00  0.00    +0.000 A 
ATOM      6  C   UNL     1      48.679   5.726  17.680  0.00  0.00    +0.000 A 
ATOM      7  S   UNL     1      50.180   6.065  18.415  0.00  0.00    +0.000 S 
ATOM      8  C   UNL     1      50.763   4.505  18.070  0.00  0.00    +0.000 A 
ATOM      9  N   UNL     1      52.003   4.120  18.470  0.00  0.00    +0.000 NA
ATOM     10  C   UNL     1      52.303   2.894  18.178  0.00  0.00    +0.000 A 
ATOM     11  N   UNL     1      51.477   2.029  17.508  0.00  0.00    +0.000 N 
ATOM     12  C   UNL     1      50.250   2.402  17.012  0.00  0.00    +0.000 A 
ATOM     13  O   UNL     1      49.602   1.653  16.287  0.00  0.00    +0.000 OA
ATOM     14  C   UNL     1      49.841   3.748  17.369  0.00  0.00    +0.000 A 
ATOM     15  H   UNL     1      51.787   1.098  17.276  0.00  0.00    +0.000 HD
ENDBRANCH   2   5
BRANCH   3  16
ATOM     16  C   UNL     1      45.941   4.250  14.487  0.00  0.00    +0.000 C 
BRANCH  16  17
ATOM     17  C   UNL     1      45.938   4.917  13.139  0.00  0.00    +0.000 A 
ATOM     18  C   UNL     1      46.737   6.039  12.886  0.00  0.00    +0.000 A 
ATOM     19  C   UNL     1      46.778   6.603  11.611  0.00  0.00    +0.000 A 
ATOM     20  C   UNL     1      45.995   6.070  10.586  0.00  0.00    +0.000 A 
ATOM     21  C   UNL     1      45.144   4.994  10.842  0.00  0.00    +0.000 A 
ATOM     22  C   UNL     1      45.132   4.412  12.110  0.00  0.00    +0.000 A 
BRANCH  21  23
ATOM     23  O   UNL     1      44.376   4.572   9.789  0.00  0.00    +0.000 OA
BRANCH  23  24
ATOM     24  C   UNL     1      44.394   3.159   9.564  0.00  0.00    +0.000 C 
BRANCH  24  25
ATOM     25  C   UNL     1      45.417   2.834   8.511  0.00  0.00    +0.000 A 
ATOM     26  C   UNL     1      45.886   3.812   7.631  0.00  0.00    +0.000 A 
ATOM     27  C   UNL     1      46.866   3.458   6.715  0.00  0.00    +0.000 A 
ATOM     28  N   UNL     1      47.403   2.221   6.627  0.00  0.00    +0.000 NA
ATOM     29  C   UNL     1      46.935   1.294   7.489  0.00  0.00    +0.000 A 
ATOM     30  C   UNL     1      45.962   1.550   8.438  0.00  0.00    +0.000 A 
ENDBRANCH  24  25
ENDBRANCH  23  24
ENDBRANCH  21  23
ENDBRANCH  16  17
ENDBRANCH   3  16
TORSDOF 6
ENDMDL
MODEL 3
REMARK VINA RESULT:    -7.721      2.072      3.258
REMARK INTER + INTRA:         -11.536
REMARK INTER:                 -10.374
REMARK INTRA:                  -1.162
REMARK UNBOUND:                -1.107
REMARK  Name = 
REMARK  6 active torsions:
REMARK  status: ('A' for Active; 'I' for Inactive)
REMARK    1  A    between atoms: C_2  and  C_19
REMARK    2  A    between atoms: N_3  and  C_4
REMARK    3  A    between atoms: C_4  and  C_5
REMARK    4  A    between atoms: C_9  and  O_10
REMARK    5  A    between atoms: O_10  and  C_11
REMARK    6  A    between atoms: C_11  and  C_12
REMARK                            x       y       z     vdW  Elec       q    Type
REMARK                         _______ _______ _______ _____ _____    ______ ____
ROOT
ATOM      1  O   UNL     1      46.822   3.232  17.376  0.00  0.00    +0.000 OA
ATOM      2  C   UNL     1      47.277   4.311  17.005  0.00  0.00    +0.000 C 
ATOM      3  N   UNL     1      47.393   4.641  15.681  0.00  0.00    +0.000 N 
ATOM      4  H   UNL     1      47.920   5.466  15.413  0.00  0.00    +0.000 HD
ENDROOT
BRANCH   2   5
ATOM      5  C   UNL     1      47.669   5.343  17.969  0.00  0.00    +0.000 A 
ATOM      6  C   UNL     1      46.773   5.742  18.950  0.00  0.00    +0.000 A 
ATOM      7  S   UNL     1      47.387   6.950  19.985  0.00  0.00    +0.000 S 
ATOM      8  C   UNL     1      48.887   6.952  19.182  0.00  0.00    +0.000 A 
ATOM      9  N   UNL     1      49.901   7.754  19.600  0.00  0.00    +0.000 NA
ATOM     10  C   UNL     1      50.998   7.624  18.924  0.00  0.00    +0.000 A 
ATOM     11  N   UNL     1      51.162   6.776  17.860  0.00  0.00    +0.000 N 
ATOM     12  C   UNL     1      50.139   6.010  17.352  0.00  0.00    +0.000 A 
ATOM     13  O   UNL     1      50.275   5.379  16.308  0.00  0.00    +0.000 OA
ATOM     14  C   UNL     1      48.906   6.072  18.114  0.00  0.00    +0.000 A 
ATOM     15  H   UNL     1      52.032   6.752  17.351  0.00  0.00    +0.000 HD
ENDBRANCH   2   5
BRANCH   3  16
ATOM     16  C   UNL     1      46.994   3.745  14.630  0.00  0.00    +0.000 C 
BRANCH  16  17
ATOM     17  C   UNL     1      46.420   4.480  13.451  0.00  0.00    +0.000 A 
ATOM     18  C   UNL     1      46.724   5.829  13.223  0.00  0.00    +0.000 A 
ATOM     19  C   UNL     1      46.242   6.477  12.086  0.00  0.00    +0.000 A 
ATOM     20  C   UNL     1      45.426   5.793  11.184  0.00  0.00    +0.000 A 
ATOM     21  C   UNL     1      45.063   4.469  11.434  0.00  0.00    +0.000 A 
ATOM     22  C   UNL     1      45.574   3.814  12.555  0.00  0.00    +0.000 A 
BRANCH  21  23
ATOM     23  O   UNL     1      44.217   3.896  10.521  0.00  0.00    +0.000 OA
BRANCH  23  24
ATOM     24  C   UNL     1      44.431   4.309   9.167  0.00  0.00    +0.000 C 
BRANCH  24  25
ATOM     25  C   UNL     1      45.424   3.386   8.516  0.00  0.00    +0.000 A 
ATOM     26  C   UNL     1      45.397   2.009   8.753  0.00  0.00    +0.000 A 
ATOM     27  C   UNL     1      46.310   1.209   8.083  0.00  0.00    +0.000 A 
ATOM     28  N   UNL     1      47.223   1.679   7.204  0.00  0.00    +0.000 NA
ATOM     29  C   UNL     1      47.228   3.011   6.991  0.00  0.00    +0.000 A 
ATOM     30  C   UNL     1      46.358   3.892   7.609  0.00  0.00    +0.000 A 
ENDBRANCH  24  25
ENDBRANCH  23  24
ENDBRANCH  21  23
ENDBRANCH  16  17
ENDBRANCH   3  16
TORSDOF 6
ENDMDL
MODEL 4
REMARK VINA RESULT:    -7.701      2.524      4.364
REMARK INTER + INTRA:         -11.510
REMARK INTER:                 -10.339
REMARK INTRA:                  -1.171
REMARK UNBOUND:                -1.107
REMARK  Name = 
REMARK  6 active torsions:
REMARK  status: ('A' for Active; 'I' for Inactive)
REMARK    1  A    between atoms: C_2  and  C_19
REMARK    2  A    between atoms: N_3  and  C_4
REMARK    3  A    between atoms: C_4  and  C_5
REMARK    4  A    between atoms: C_9  and  O_10
REMARK    5  A    between atoms: O_10  and  C_11
REMARK    6  A    between atoms: C_11  and  C_12
REMARK                            x       y       z     vdW  Elec       q    Type
REMARK                         _______ _______ _______ _____ _____    ______ ____
ROOT
ATOM      1  O   UNL     1      48.819   6.035  13.129  0.00  0.00    +0.000 OA
ATOM      2  C   UNL     1      47.959   6.873  13.387  0.00  0.00    +0.000 C 
ATOM      3  N   UNL     1      46.692   6.528  13.775  0.00  0.00    +0.000 N 
ATOM      4  H   UNL     1      45.969   7.239  13.821  0.00  0.00    +0.000 HD
ENDROOT
BRANCH   2   5
ATOM      5  C   UNL     1      48.261   8.307  13.356  0.00  0.00    +0.000 A 
ATOM      6  C   UNL     1      49.442   8.772  13.917  0.00  0.00    +0.000 A 
ATOM      7  S   UNL     1      49.635  10.462  13.796  0.00  0.00    +0.000 S 
ATOM      8  C   UNL     1      48.166  10.624  12.954  0.00  0.00    +0.000 A 
ATOM      9  N   UNL     1      47.745  11.839  12.514  0.00  0.00    +0.000 NA
ATOM     10  C   UNL     1      46.631  11.811  11.853  0.00  0.00    +0.000 A 
ATOM     11  N   UNL     1      45.897  10.679  11.610  0.00  0.00    +0.000 N 
ATOM     12  C   UNL     1      46.243   9.445  12.108  0.00  0.00    +0.000 A 
ATOM     13  O   UNL     1      45.488   8.483  12.002  0.00  0.00    +0.000 OA
ATOM     14  C   UNL     1      47.516   9.412  12.802  0.00  0.00    +0.000 A 
ATOM     15  H   UNL     1      45.017  10.732  11.122  0.00  0.00    +0.000 HD
ENDBRANCH   2   5
BRANCH   3  16
ATOM     16  C   UNL     1      46.276   5.157  13.902  0.00  0.00    +0.000 C 
BRANCH  16  17
ATOM     17  C   UNL     1      45.137   4.827  12.978  0.00  0.00    +0.000 A 
ATOM     18  C   UNL     1      43.891   5.452  13.115  0.00  0.00    +0.000 A 
ATOM     19  C   UNL     1      42.866   5.189  12.206  0.00  0.00    +0.000 A 
ATOM     20  C   UNL     1      43.068   4.274  11.171  0.00  0.00    +0.000 A 
ATOM     21  C   UNL     1      44.282   3.596  11.064  0.00  0.00    +0.000 A 
ATOM     22  C   UNL     1      45.316   3.887  11.955  0.00  0.00    +0.000 A 
BRANCH  21  23
ATOM     23  O   UNL     1      44.369   2.679  10.049  0.00  0.00    +0.000 OA
BRANCH  23  24
ATOM     24  C   UNL     1      44.548   3.244   8.747  0.00  0.00    +0.000 C 
BRANCH  24  25
ATOM     25  C   UNL     1      45.769   2.644   8.106  0.00  0.00    +0.000 A 
ATOM     26  C   UNL     1      46.024   1.272   8.179  0.00  0.00    +0.000 A 
ATOM     27  C   UNL     1      47.142   0.776   7.524  0.00  0.00    +0.000 A 
ATOM     28  N   UNL     1      47.998   1.539   6.810  0.00  0.00    +0.000 NA
ATOM     29  C   UNL     1      47.729   2.860   6.752  0.00  0.00    +0.000 A 
ATOM     30  C   UNL     1      46.640   3.450   7.370  0.00  0.00    +0.000 A 
ENDBRANCH  24  25
ENDBRANCH  23  24
ENDBRANCH  21  23
ENDBRANCH  16  17
ENDBRANCH   3  16
TORSDOF 6
ENDMDL
MODEL 5
REMARK VINA RESULT:    -7.681      1.516      2.164
REMARK INTER + INTRA:         -11.482
REMARK INTER:                 -10.530
REMARK INTRA:                  -0.952
REMARK UNBOUND:                -1.107
REMARK  Name = 
REMARK  6 active torsions:
REMARK  status: ('A' for Active; 'I' for Inactive)
REMARK    1  A    between atoms: C_2  and  C_19
REMARK    2  A    between atoms: N_3  and  C_4
REMARK    3  A    between atoms: C_4  and  C_5
REMARK    4  A    between atoms: C_9  and  O_10
REMARK    5  A    between atoms: O_10  and  C_11
REMARK    6  A    between atoms: C_11  and  C_12
REMARK                            x       y       z     vdW  Elec       q    Type
REMARK                         _______ _______ _______ _____ _____    ______ ____
ROOT
ATOM      1  O   UNL     1      48.428   5.679  13.289  0.00  0.00    +0.000 OA
ATOM      2  C   UNL     1      47.586   5.690  14.183  0.00  0.00    +0.000 C 
ATOM      3  N   UNL     1      46.347   6.252  14.017  0.00  0.00    +0.000 N 
ATOM      4  H   UNL     1      45.745   6.385  14.823  0.00  0.00    +0.000 HD
ENDROOT
BRANCH   2   5
ATOM      5  C   UNL     1      47.837   5.040  15.472  0.00  0.00    +0.000 A 
ATOM      6  C   UNL     1      47.400   3.739  15.681  0.00  0.00    +0.000 A 
ATOM      7  S   UNL     1      47.772   3.136  17.232  0.00  0.00    +0.000 S 
ATOM      8  C   UNL     1      48.564   4.578  17.663  0.00  0.00    +0.000 A 
ATOM      9  N   UNL     1      49.157   4.713  18.878  0.00  0.00    +0.000 NA
ATOM     10  C   UNL     1      49.758   5.846  19.058  0.00  0.00    +0.000 A 
ATOM     11  N   UNL     1      49.803   6.859  18.135  0.00  0.00    +0.000 N 
ATOM     12  C   UNL     1      49.148   6.798  16.928  0.00  0.00    +0.000 A 
ATOM     13  O   UNL     1      49.080   7.777  16.190  0.00  0.00    +0.000 OA
ATOM     14  C   UNL     1      48.512   5.523  16.653  0.00  0.00    +0.000 A 
ATOM     15  H   UNL     1      50.256   7.733  18.352  0.00  0.00    +0.000 HD
ENDBRANCH   2   5
BRANCH   3  16
ATOM     16  C   UNL     1      45.948   6.875  12.785  0.00  0.00    +0.000 C 
BRANCH  16  17
ATOM     17  C   UNL     1      45.334   5.889  11.830  0.00  0.00    +0.000 A 
ATOM     18  C   UNL     1      44.275   5.062  12.226  0.00  0.00    +0.000 A 
ATOM     19  C   UNL     1      43.669   4.204  11.308  0.00  0.00    +0.000 A 
ATOM     20  C   UNL     1      44.137   4.143   9.994  0.00  0.00    +0.000 A 
ATOM     21  C   UNL     1      45.233   4.912   9.605  0.00  0.00    +0.000 A 
ATOM     22  C   UNL     1      45.816   5.794  10.517  0.00  0.00    +0.000 A 
BRANCH  21  23
ATOM     23  O   UNL     1      45.654   4.746   8.312  0.00  0.00    +0.000 OA
BRANCH  23  24
ATOM     24  C   UNL     1      45.050   3.647   7.624  0.00  0.00    +0.000 C 
BRANCH  24  25
ATOM     25  C   UNL     1      46.122   2.816   6.973  0.00  0.00    +0.000 A 
ATOM     26  C   UNL     1      46.621   3.139   5.709  0.00  0.00    +0.000 A 
ATOM     27  C   UNL     1      47.643   2.360   5.187  0.00  0.00    +0.000 A 
ATOM     28  N   UNL     1      48.195   1.309   5.832  0.00  0.00    +0.000 NA
ATOM     29  C   UNL     1      47.697   1.019   7.053  0.00  0.00    +0.000 A 
ATOM     30  C   UNL     1      46.680   1.735   7.658  0.00  0.00    +0.000 A 
ENDBRANCH  24  25
ENDBRANCH  23  24
ENDBRANCH  21  23
ENDBRANCH  16  17
ENDBRANCH   3  16
TORSDOF 6
ENDMDL
MODEL 6
REMARK VINA RESULT:    -7.449      3.523      7.674
REMARK INTER + INTRA:         -11.169
REMARK INTER:                  -9.991
REMARK INTRA:                  -1.178
REMARK UNBOUND:                -1.107
REMARK  Name = 
REMARK  6 active torsions:
REMARK  status: ('A' for Active; 'I' for Inactive)
REMARK    1  A    between atoms: C_2  and  C_19
REMARK    2  A    between atoms: N_3  and  C_4
REMARK    3  A    between atoms: C_4  and  C_5
REMARK    4  A    between atoms: C_9  and  O_10
REMARK    5  A    between atoms: O_10  and  C_11
REMARK    6  A    between atoms: C_11  and  C_12
REMARK                            x       y       z     vdW  Elec       q    Type
REMARK                         _______ _______ _______ _____ _____    ______ ____
ROOT
ATOM      1  O   UNL     1      48.511   5.929  12.909  0.00  0.00    +0.000 OA
ATOM      2  C   UNL     1      47.509   6.546  13.260  0.00  0.00    +0.000 C 
ATOM      3  N   UNL     1      47.555   7.553  14.188  0.00  0.00    +0.000 N 
ATOM      4  H   UNL     1      46.691   7.924  14.569  0.00  0.00    +0.000 HD
ENDROOT
BRANCH   2   5
ATOM      5  C   UNL     1      46.201   6.280  12.655  0.00  0.00    +0.000 A 
ATOM      6  C   UNL     1      45.483   7.322  12.085  0.00  0.00    +0.000 A 
ATOM      7  S   UNL     1      43.985   6.840  11.429  0.00  0.00    +0.000 S 
ATOM      8  C   UNL     1      44.263   5.215  11.848  0.00  0.00    +0.000 A 
ATOM      9  N   UNL     1      43.361   4.249  11.530  0.00  0.00    +0.000 NA
ATOM     10  C   UNL     1      43.718   3.052  11.872  0.00  0.00    +0.000 A 
ATOM     11  N   UNL     1      44.887   2.741  12.516  0.00  0.00    +0.000 N 
ATOM     12  C   UNL     1      45.787   3.695  12.930  0.00  0.00    +0.000 A 
ATOM     13  O   UNL     1      46.746   3.400  13.637  0.00  0.00    +0.000 OA
ATOM     14  C   UNL     1      45.463   5.047  12.515  0.00  0.00    +0.000 A 
ATOM     15  H   UNL     1      45.087   1.792  12.790  0.00  0.00    +0.000 HD
ENDBRANCH   2   5
BRANCH   3  16
ATOM     16  C   UNL     1      48.781   7.955  14.820  0.00  0.00    +0.000 C 
BRANCH  16  17
ATOM     17  C   UNL     1      48.681   7.914  16.320  0.00  0.00    +0.000 A 
ATOM     18  C   UNL     1      48.069   8.954  17.032  0.00  0.00    +0.000 A 
ATOM     19  C   UNL     1      47.919   8.867  18.417  0.00  0.00    +0.000 A 
ATOM     20  C   UNL     1      48.408   7.755  19.104  0.00  0.00    +0.000 A 
ATOM     21  C   UNL     1      49.078   6.745  18.415  0.00  0.00    +0.000 A 
ATOM     22  C   UNL     1      49.196   6.819  17.026  0.00  0.00    +0.000 A 
BRANCH  21  23
ATOM     23  O   UNL     1      49.569   5.719  19.180  0.00  0.00    +0.000 OA
BRANCH  23  24
ATOM     24  C   UNL     1      48.690   4.597  19.309  0.00  0.00    +0.000 C 
BRANCH  24  25
ATOM     25  C   UNL     1      49.014   3.585  18.245  0.00  0.00    +0.000 A 
ATOM     26  C   UNL     1      48.033   3.120  17.366  0.00  0.00    +0.000 A 
ATOM     27  C   UNL     1      48.408   2.223  16.377  0.00  0.00    +0.000 A 
ATOM     28  N   UNL     1      49.672   1.777  16.204  0.00  0.00    +0.000 NA
ATOM     29  C   UNL     1      50.602   2.243  17.063  0.00  0.00    +0.000 A 
ATOM     30  C   UNL     1      50.327   3.138  18.081  0.00  0.00    +0.000 A 
ENDBRANCH  24  25
ENDBRANCH  23  24
ENDBRANCH  21  23
ENDBRANCH  16  17
ENDBRANCH   3  16
TORSDOF 6
ENDMDL
MODEL 7
REMARK VINA RESULT:    -7.196      3.670      7.868
REMARK INTER + INTRA:         -10.827
REMARK INTER:                  -9.370
REMARK INTRA:                  -1.458
REMARK UNBOUND:                -1.107
REMARK  Name = 
REMARK  6 active torsions:
REMARK  status: ('A' for Active; 'I' for Inactive)
REMARK    1  A    between atoms: C_2  and  C_19
REMARK    2  A    between atoms: N_3  and  C_4
REMARK    3  A    between atoms: C_4  and  C_5
REMARK    4  A    between atoms: C_9  and  O_10
REMARK    5  A    between atoms: O_10  and  C_11
REMARK    6  A    between atoms: C_11  and  C_12
REMARK                            x       y       z     vdW  Elec       q    Type
REMARK                         _______ _______ _______ _____ _____    ______ ____
ROOT
ATOM      1  O   UNL     1      48.819   6.330  12.975  0.00  0.00    +0.000 OA
ATOM      2  C   UNL     1      47.672   6.513  13.373  0.00  0.00    +0.000 C 
ATOM      3  N   UNL     1      47.340   7.553  14.200  0.00  0.00    +0.000 N 
ATOM      4  H   UNL     1      46.423   7.576  14.635  0.00  0.00    +0.000 HD
ENDROOT
BRANCH   2   5
ATOM      5  C   UNL     1      46.568   5.658  12.929  0.00  0.00    +0.000 A 
ATOM      6  C   UNL     1      46.622   4.291  13.162  0.00  0.00    +0.000 A 
ATOM      7  S   UNL     1      45.260   3.446  12.582  0.00  0.00    +0.000 S 
ATOM      8  C   UNL     1      44.533   4.883  12.035  0.00  0.00    +0.000 A 
ATOM      9  N   UNL     1      43.303   4.867  11.458  0.00  0.00    +0.000 NA
ATOM     10  C   UNL     1      42.853   6.035  11.127  0.00  0.00    +0.000 A 
ATOM     11  N   UNL     1      43.531   7.212  11.308  0.00  0.00    +0.000 N 
ATOM     12  C   UNL     1      44.810   7.266  11.810  0.00  0.00    +0.000 A 
ATOM     13  O   UNL     1      45.447   8.315  11.818  0.00  0.00    +0.000 OA
ATOM     14  C   UNL     1      45.335   5.989  12.256  0.00  0.00    +0.000 A 
ATOM     15  H   UNL     1      43.140   8.086  10.991  0.00  0.00    +0.000 HD
ENDBRANCH   2   5
BRANCH   3  16
ATOM     16  C   UNL     1      48.314   8.502  14.667  0.00  0.00    +0.000 C 
BRANCH  16  17
ATOM     17  C   UNL     1      48.530   8.401  16.152  0.00  0.00    +0.000 A 
ATOM     18  C   UNL     1      48.109   9.421  17.014  0.00  0.00    +0.000 A 
ATOM     19  C   UNL     1      48.252   9.282  18.395  0.00  0.00    +0.000 A 
ATOM     20  C   UNL     1      48.846   8.135  18.923  0.00  0.00    +0.000 A 
ATOM     21  C   UNL     1      49.330   7.141  18.072  0.00  0.00    +0.000 A 
ATOM     22  C   UNL     1      49.155   7.270  16.693  0.00  0.00    +0.000 A 
BRANCH  21  23
ATOM     23  O   UNL     1      49.945   6.078  18.679  0.00  0.00    +0.000 OA
BRANCH  23  24
ATOM     24  C   UNL     1      49.060   5.029  19.085  0.00  0.00    +0.000 C 
BRANCH  24  25
ATOM     25  C   UNL     1      49.124   3.908  18.085  0.00  0.00    +0.000 A 
ATOM     26  C   UNL     1      48.041   3.618  17.252  0.00  0.00    +0.000 A 
ATOM     27  C   UNL     1      48.182   2.602  16.318  0.00  0.00    +0.000 A 
ATOM     28  N   UNL     1      49.312   1.878  16.157  0.00  0.00    +0.000 NA
ATOM     29  C   UNL     1      50.345   2.179  16.971  0.00  0.00    +0.000 A 
ATOM     30  C   UNL     1      50.302   3.173  17.932  0.00  0.00    +0.000 A 
ENDBRANCH  24  25
ENDBRANCH  23  24
ENDBRANCH  21  23
ENDBRANCH  16  17
ENDBRANCH   3  16
TORSDOF 6
ENDMDL
MODEL 8
REMARK VINA RESULT:    -6.970      3.837      8.107
REMARK INTER + INTRA:         -10.523
REMARK INTER:                  -9.208
REMARK INTRA:                  -1.315
REMARK UNBOUND:                -1.107
REMARK  Name = 
REMARK  6 active torsions:
REMARK  status: ('A' for Active; 'I' for Inactive)
REMARK    1  A    between atoms: C_2  and  C_19
REMARK    2  A    between atoms: N_3  and  C_4
REMARK    3  A    between atoms: C_4  and  C_5
REMARK    4  A    between atoms: C_9  and  O_10
REMARK    5  A    between atoms: O_10  and  C_11
REMARK    6  A    between atoms: C_11  and  C_12
REMARK                            x       y       z     vdW  Elec       q    Type
REMARK                         _______ _______ _______ _____ _____    ______ ____
ROOT
ATOM      1  O   UNL     1      47.273   3.151  14.053  0.00  0.00    +0.000 OA
ATOM      2  C   UNL     1      46.787   4.185  14.503  0.00  0.00    +0.000 C 
ATOM      3  N   UNL     1      46.729   4.443  15.847  0.00  0.00    +0.000 N 
ATOM      4  H   UNL     1      46.178   5.225  16.185  0.00  0.00    +0.000 HD
ENDROOT
BRANCH   2   5
ATOM      5  C   UNL     1      46.293   5.242  13.616  0.00  0.00    +0.000 A 
ATOM      6  C   UNL     1      47.099   6.337  13.339  0.00  0.00    +0.000 A 
ATOM      7  S   UNL     1      46.372   7.471  12.294  0.00  0.00    +0.000 S 
ATOM      8  C   UNL     1      44.971   6.517  12.145  0.00  0.00    +0.000 A 
ATOM      9  N   UNL     1      43.944   6.906  11.344  0.00  0.00    +0.000 NA
ATOM     10  C   UNL     1      42.960   6.067  11.292  0.00  0.00    +0.000 A 
ATOM     11  N   UNL     1      42.907   4.883  11.982  0.00  0.00    +0.000 N 
ATOM     12  C   UNL     1      43.884   4.492  12.866  0.00  0.00    +0.000 A 
ATOM     13  O   UNL     1      43.737   3.505  13.582  0.00  0.00    +0.000 OA
ATOM     14  C   UNL     1      45.040   5.368  12.913  0.00  0.00    +0.000 A 
ATOM     15  H   UNL     1      42.092   4.292  11.928  0.00  0.00    +0.000 HD
ENDBRANCH   2   5
BRANCH   3  16
ATOM     16  C   UNL     1      47.228   3.517  16.827  0.00  0.00    +0.000 C 
BRANCH  16  17
ATOM     17  C   UNL     1      48.688   3.734  17.113  0.00  0.00    +0.000 A 
ATOM     18  C   UNL     1      49.553   2.651  17.316  0.00  0.00    +0.000 A 
ATOM     19  C   UNL     1      50.918   2.866  17.509  0.00  0.00    +0.000 A 
ATOM     20  C   UNL     1      51.424   4.166  17.533  0.00  0.00    +0.000 A 
ATOM     21  C   UNL     1      50.563   5.255  17.399  0.00  0.00    +0.000 A 
ATOM     22  C   UNL     1      49.203   5.035  17.173  0.00  0.00    +0.000 A 
BRANCH  21  23
ATOM     23  O   UNL     1      51.143   6.494  17.489  0.00  0.00    +0.000 OA
BRANCH  23  24
ATOM     24  C   UNL     1      51.981   6.842  16.382  0.00  0.00    +0.000 C 
BRANCH  24  25
ATOM     25  C   UNL     1      51.340   7.957  15.603  0.00  0.00    +0.000 A 
ATOM     26  C   UNL     1      51.698   9.290  15.819  0.00  0.00    +0.000 A 
ATOM     27  C   UNL     1      51.104  10.266  15.033  0.00  0.00    +0.000 A 
ATOM     28  N   UNL     1      50.203  10.006  14.060  0.00  0.00    +0.000 NA
ATOM     29  C   UNL     1      49.875   8.711  13.869  0.00  0.00    +0.000 A 
ATOM     30  C   UNL     1      50.412   7.667  14.601  0.00  0.00    +0.000 A 
ENDBRANCH  24  25
ENDBRANCH  23  24
ENDBRANCH  21  23
ENDBRANCH  16  17
ENDBRANCH   3  16
TORSDOF 6
ENDMDL
MODEL 9
REMARK VINA RESULT:    -6.745      4.008      8.628
REMARK INTER + INTRA:         -10.218
REMARK INTER:                  -8.161
REMARK INTRA:                  -2.057
REMARK UNBOUND:                -1.107
REMARK  Name = 
REMARK  6 active torsions:
REMARK  status: ('A' for Active; 'I' for Inactive)
REMARK    1  A    between atoms: C_2  and  C_19
REMARK    2  A    between atoms: N_3  and  C_4
REMARK    3  A    between atoms: C_4  and  C_5
REMARK    4  A    between atoms: C_9  and  O_10
REMARK    5  A    between atoms: O_10  and  C_11
REMARK    6  A    between atoms: C_11  and  C_12
REMARK                            x       y       z     vdW  Elec       q    Type
REMARK                         _______ _______ _______ _____ _____    ______ ____
ROOT
ATOM      1  O   UNL     1      47.337   3.099  14.080  0.00  0.00    +0.000 OA
ATOM      2  C   UNL     1      46.953   4.174  14.531  0.00  0.00    +0.000 C 
ATOM      3  N   UNL     1      46.888   4.424  15.877  0.00  0.00    +0.000 N 
ATOM      4  H   UNL     1      46.416   5.258  16.210  0.00  0.00    +0.000 HD
ENDROOT
BRANCH   2   5
ATOM      5  C   UNL     1      46.599   5.287  13.646  0.00  0.00    +0.000 A 
ATOM      6  C   UNL     1      45.474   5.192  12.838  0.00  0.00    +0.000 A 
ATOM      7  S   UNL     1      45.209   6.571  11.872  0.00  0.00    +0.000 S 
ATOM      8  C   UNL     1      46.565   7.359  12.529  0.00  0.00    +0.000 A 
ATOM      9  N   UNL     1      46.890   8.623  12.149  0.00  0.00    +0.000 NA
ATOM     10  C   UNL     1      47.921   9.116  12.758  0.00  0.00    +0.000 A 
ATOM     11  N   UNL     1      48.662   8.451  13.700  0.00  0.00    +0.000 N 
ATOM     12  C   UNL     1      48.420   7.144  14.053  0.00  0.00    +0.000 A 
ATOM     13  O   UNL     1      49.191   6.529  14.783  0.00  0.00    +0.000 OA
ATOM     14  C   UNL     1      47.235   6.567  13.444  0.00  0.00    +0.000 A 
ATOM     15  H   UNL     1      49.478   8.879  14.109  0.00  0.00    +0.000 HD
ENDBRANCH   2   5
BRANCH   3  16
ATOM     16  C   UNL     1      47.259   3.440  16.857  0.00  0.00    +0.000 C 
BRANCH  16  17
ATOM     17  C   UNL     1      48.702   3.563  17.258  0.00  0.00    +0.000 A 
ATOM     18  C   UNL     1      49.586   2.485  17.118  0.00  0.00    +0.000 A 
ATOM     19  C   UNL     1      50.938   2.636  17.427  0.00  0.00    +0.000 A 
ATOM     20  C   UNL     1      51.412   3.856  17.909  0.00  0.00    +0.000 A 
ATOM     21  C   UNL     1      50.530   4.917  18.116  0.00  0.00    +0.000 A 
ATOM     22  C   UNL     1      49.185   4.773  17.775  0.00  0.00    +0.000 A 
BRANCH  21  23
ATOM     23  O   UNL     1      51.077   6.058  18.642  0.00  0.00    +0.000 OA
BRANCH  23  24
ATOM     24  C   UNL     1      50.131   6.966  19.215  0.00  0.00    +0.000 C 
BRANCH  24  25
ATOM     25  C   UNL     1      49.769   8.015  18.200  0.00  0.00    +0.000 A 
ATOM     26  C   UNL     1      48.445   8.427  18.026  0.00  0.00    +0.000 A 
ATOM     27  C   UNL     1      48.186   9.434  17.107  0.00  0.00    +0.000 A 
ATOM     28  N   UNL     1      49.139  10.049  16.374  0.00  0.00    +0.000 NA
ATOM     29  C   UNL     1      50.410   9.635  16.562  0.00  0.00    +0.000 A 
ATOM     30  C   UNL     1      50.769   8.641  17.454  0.00  0.00    +0.000 A 
ENDBRANCH  24  25
ENDBRANCH  23  24
ENDBRANCH  21  23
ENDBRANCH  16  17
ENDBRANCH   3  16
TORSDOF 6
ENDMDL
