MODEL 1
REMARK VINA RESULT:    -8.097      0.000      0.000
REMARK INTER + INTRA:         -13.250
REMARK INTER:                 -12.120
REMARK INTRA:                  -1.130
REMARK UNBOUND:                -1.130
REMARK  Name = 
REMARK  9 active torsions:
REMARK  status: ('A' for Active; 'I' for Inactive)
REMARK    1  A    between atoms: N_1  and  C_2
REMARK    2  A    between atoms: C_2  and  C_3
REMARK    3  A    between atoms: C_3  and  N_4
REMARK    4  A    between atoms: C_3  and  C_12
REMARK    5  A    between atoms: N_4  and  C_5
REMARK    6  A    between atoms: C_5  and  C_6
REMARK    7  A    between atoms: C_15  and  C_16
REMARK    8  A    between atoms: C_16  and  N_17
REMARK    9  A    between atoms: C_18  and  C_20
REMARK                            x       y       z     vdW  Elec       q    Type
REMARK                         _______ _______ _______ _____ _____    ______ ____
ROOT
ATOM      1  C   UNL     1      45.182   4.790  11.802  0.00  0.00    +0.000 A 
ATOM      2  C   UNL     1      45.696   5.986  11.263  0.00  0.00    +0.000 A 
ATOM      3  C   UNL     1      46.763   6.654  11.869  0.00  0.00    +0.000 A 
ATOM      4  C   UNL     1      47.392   6.111  12.995  0.00  0.00    +0.000 A 
ATOM      5  C   UNL     1      46.900   4.915  13.528  0.00  0.00    +0.000 A 
ATOM      6  C   UNL     1      45.804   4.268  12.945  0.00  0.00    +0.000 A 
ENDROOT
BRANCH   1   7
ATOM      7  C   UNL     1      43.927   4.169  11.179  0.00  0.00    +0.000 C 
BRANCH   7   8
ATOM      8  N   UNL     1      44.062   3.974   9.718  0.00  0.00    +0.000 NA
ATOM      9  H   UNL     1      44.767   4.615   9.355  0.00  0.00    +0.000 HD
BRANCH   8  10
ATOM     10  C   UNL     1      44.393   2.604   9.331  0.00  0.00    +0.000 C 
BRANCH  10  11
ATOM     11  C   UNL     1      45.583   2.536   8.410  0.00  0.00    +0.000 A 
ATOM     12  C   UNL     1      46.224   1.316   8.162  0.00  0.00    +0.000 A 
ATOM     13  C   UNL     1      47.285   1.288   7.274  0.00  0.00    +0.000 A 
ATOM     14  N   UNL     1      47.747   2.379   6.625  0.00  0.00    +0.000 NA
ATOM     15  C   UNL     1      47.117   3.545   6.877  0.00  0.00    +0.000 A 
ATOM     16  C   UNL     1      46.045   3.675   7.748  0.00  0.00    +0.000 A 
ENDBRANCH  10  11
ENDBRANCH   8  10
ENDBRANCH   7   8
BRANCH   7  17
ATOM     17  C   UNL     1      42.636   5.005  11.508  0.00  0.00    +0.000 C 
BRANCH  17  18
ATOM     18  N   UNL     1      42.498   5.448  12.902  0.00  0.00    +0.000 NA
ATOM     19  H   UNL     1      41.510   5.484  13.147  0.00  0.00    +0.000 HD
ATOM     20  H   UNL     1      42.859   6.395  12.999  0.00  0.00    +0.000 HD
ENDBRANCH  17  18
ENDBRANCH   7  17
ENDBRANCH   1   7
BRANCH   4  21
ATOM     21  C   UNL     1      48.539   6.836  13.652  0.00  0.00    +0.000 C 
BRANCH  21  22
ATOM     22  N   UNL     1      48.319   6.940  15.071  0.00  0.00    +0.000 N 
ATOM     23  C   UNL     1      49.305   6.707  15.992  0.00  0.00    +0.000 C 
ATOM     24  O   UNL     1      50.463   6.447  15.669  0.00  0.00    +0.000 OA
ATOM     25  H   UNL     1      47.353   6.917  15.372  0.00  0.00    +0.000 HD
BRANCH  23  26
ATOM     26  C   UNL     1      48.917   6.864  17.398  0.00  0.00    +0.000 A 
ATOM     27  C   UNL     1      48.467   8.091  17.861  0.00  0.00    +0.000 A 
ATOM     28  S   UNL     1      47.970   8.066  19.493  0.00  0.00    +0.000 S 
ATOM     29  C   UNL     1      48.394   6.426  19.653  0.00  0.00    +0.000 A 
ATOM     30  N   UNL     1      48.226   5.771  20.834  0.00  0.00    +0.000 NA
ATOM     31  C   UNL     1      48.624   4.543  20.824  0.00  0.00    +0.000 A 
ATOM     32  N   UNL     1      49.177   3.910  19.742  0.00  0.00    +0.000 N 
ATOM     33  C   UNL     1      49.338   4.520  18.521  0.00  0.00    +0.000 A 
ATOM     34  O   UNL     1      49.792   3.911  17.558  0.00  0.00    +0.000 OA
ATOM     35  C   UNL     1      48.906   5.906  18.479  0.00  0.00    +0.000 A 
ATOM     36  H   UNL     1      49.466   2.944  19.800  0.00  0.00    +0.000 HD
ENDBRANCH  23  26
ENDBRANCH  21  22
ENDBRANCH   4  21
TORSDOF 9
ENDMDL
MODEL 2
REMARK VINA RESULT:    -7.808      1.497      2.264
REMARK INTER + INTRA:         -12.817
REMARK INTER:                 -11.637
REMARK INTRA:                  -1.180
REMARK UNBOUND:                -1.130
REMARK  Name = 
REMARK  9 active torsions:
REMARK  status: ('A' for Active; 'I' for Inactive)
REMARK    1  A    between atoms: N_1  and  C_2
REMARK    2  A    between atoms: C_2  and  C_3
REMARK    3  A    between atoms: C_3  and  N_4
REMARK    4  A    between atoms: C_3  and  C_12
REMARK    5  A    between atoms: N_4  and  C_5
REMARK    6  A    between atoms: C_5  and  C_6
REMARK    7  A    between atoms: C_15  and  C_16
REMARK    8  A    between atoms: C_16  and  N_17
REMARK    9  A    between atoms: C_18  and  C_20
REMARK                            x       y       z     vdW  Elec       q    Type
REMARK                         _______ _______ _______ _____ _____    ______ ____
ROOT
ATOM      1  C   UNL     1      45.290   4.873  11.944  0.00  0.00    +0.000 A 
ATOM      2  C   UNL     1      45.898   6.044  11.451  0.00  0.00    +0.000 A 
ATOM      3  C   UNL     1      46.934   6.670  12.146  0.00  0.00    +0.000 A 
ATOM      4  C   UNL     1      47.441   6.108  13.323  0.00  0.00    +0.000 A 
ATOM      5  C   UNL     1      46.855   4.937  13.814  0.00  0.00    +0.000 A 
ATOM      6  C   UNL     1      45.788   4.332  13.139  0.00  0.00    +0.000 A 
ENDROOT
BRANCH   1   7
ATOM      7  C   UNL     1      44.069   4.300  11.216  0.00  0.00    +0.000 C 
BRANCH   7   8
ATOM      8  N   UNL     1      44.313   4.120   9.768  0.00  0.00    +0.000 NA
ATOM      9  H   UNL     1      45.155   4.629   9.500  0.00  0.00    +0.000 HD
BRANCH   8  10
ATOM     10  C   UNL     1      44.427   2.723   9.354  0.00  0.00    +0.000 C 
BRANCH  10  11
ATOM     11  C   UNL     1      45.590   2.489   8.426  0.00  0.00    +0.000 A 
ATOM     12  C   UNL     1      46.109   1.201   8.245  0.00  0.00    +0.000 A 
ATOM     13  C   UNL     1      47.148   1.021   7.349  0.00  0.00    +0.000 A 
ATOM     14  N   UNL     1      47.699   2.023   6.629  0.00  0.00    +0.000 NA
ATOM     15  C   UNL     1      47.185   3.256   6.817  0.00  0.00    +0.000 A 
ATOM     16  C   UNL     1      46.145   3.537   7.691  0.00  0.00    +0.000 A 
ENDBRANCH  10  11
ENDBRANCH   8  10
ENDBRANCH   7   8
BRANCH   7  17
ATOM     17  C   UNL     1      42.783   5.173  11.456  0.00  0.00    +0.000 C 
BRANCH  17  18
ATOM     18  N   UNL     1      42.454   5.455  12.860  0.00  0.00    +0.000 NA
ATOM     19  H   UNL     1      42.878   4.745  13.455  0.00  0.00    +0.000 HD
ATOM     20  H   UNL     1      41.447   5.389  12.996  0.00  0.00    +0.000 HD
ENDBRANCH  17  18
ENDBRANCH   7  17
ENDBRANCH   1   7
BRANCH   4  21
ATOM     21  C   UNL     1      48.555   6.789  14.076  0.00  0.00    +0.000 C 
BRANCH  21  22
ATOM     22  N   UNL     1      48.219   6.906  15.472  0.00  0.00    +0.000 N 
ATOM     23  C   UNL     1      48.996   6.375  16.467  0.00  0.00    +0.000 C 
ATOM     24  O   UNL     1      50.064   5.810  16.241  0.00  0.00    +0.000 OA
ATOM     25  H   UNL     1      47.257   7.146  15.677  0.00  0.00    +0.000 HD
BRANCH  23  26
ATOM     26  C   UNL     1      48.515   6.591  17.837  0.00  0.00    +0.000 A 
ATOM     27  C   UNL     1      48.455   5.529  18.726  0.00  0.00    +0.000 A 
ATOM     28  S   UNL     1      47.966   5.980  20.297  0.00  0.00    +0.000 S 
ATOM     29  C   UNL     1      47.760   7.602  19.826  0.00  0.00    +0.000 A 
ATOM     30  N   UNL     1      47.339   8.542  20.715  0.00  0.00    +0.000 NA
ATOM     31  C   UNL     1      47.191   9.723  20.213  0.00  0.00    +0.000 A 
ATOM     32  N   UNL     1      47.423  10.049  18.903  0.00  0.00    +0.000 N 
ATOM     33  C   UNL     1      47.880   9.142  17.977  0.00  0.00    +0.000 A 
ATOM     34  O   UNL     1      48.125   9.477  16.822  0.00  0.00    +0.000 OA
ATOM     35  C   UNL     1      48.062   7.796  18.491  0.00  0.00    +0.000 A 
ATOM     36  H   UNL     1      47.291  10.994  18.574  0.00  0.00    +0.000 HD
ENDBRANCH  23  26
ENDBRANCH  21  22
ENDBRANCH   4  21
TORSDOF 9
ENDMDL
MODEL 3
REMARK VINA RESULT:    -7.606      1.746      2.247
REMARK INTER + INTRA:         -12.516
REMARK INTER:                 -11.520
REMARK INTRA:                  -0.996
REMARK UNBOUND:                -1.130
REMARK  Name = 
REMARK  9 active torsions:
REMARK  status: ('A' for Active; 'I' for Inactive)
REMARK    1  A    between atoms: N_1  and  C_2
REMARK    2  A    between atoms: C_2  and  C_3
REMARK    3  A    between atoms: C_3  and  N_4
REMARK    4  A    between atoms: C_3  and  C_12
REMARK    5  A    between atoms: N_4  and  C_5
REMARK    6  A    between atoms: C_5  and  C_6
REMARK    7  A    between atoms: C_15  and  C_16
REMARK    8  A    between atoms: C_16  and  N_17
REMARK    9  A    between atoms: C_18  and  C_20
REMARK                            x       y       z     vdW  Elec       q    Type
REMARK                         _______ _______ _______ _____ _____    ______ ____
ROOT
ATOM      1  C   UNL     1      45.029   5.103  11.313  0.00  0.00    +0.000 A 
ATOM      2  C   UNL     1      44.199   6.239  11.277  0.00  0.00    +0.000 A 
ATOM      3  C   UNL     1      44.616   7.459  11.816  0.00  0.00    +0.000 A 
ATOM      4  C   UNL     1      45.903   7.597  12.346  0.00  0.00    +0.000 A 
ATOM      5  C   UNL     1      46.743   6.478  12.372  0.00  0.00    +0.000 A 
ATOM      6  C   UNL     1      46.308   5.245  11.871  0.00  0.00    +0.000 A 
ENDROOT
BRANCH   1   7
ATOM      7  C   UNL     1      44.476   3.757  10.832  0.00  0.00    +0.000 C 
BRANCH   7   8
ATOM      8  N   UNL     1      44.114   3.779   9.397  0.00  0.00    +0.000 NA
ATOM      9  H   UNL     1      43.264   4.328   9.271  0.00  0.00    +0.000 HD
BRANCH   8  10
ATOM     10  C   UNL     1      45.169   4.292   8.527  0.00  0.00    +0.000 C 
BRANCH  10  11
ATOM     11  C   UNL     1      45.999   3.194   7.917  0.00  0.00    +0.000 A 
ATOM     12  C   UNL     1      45.883   1.875   8.373  0.00  0.00    +0.000 A 
ATOM     13  C   UNL     1      46.630   0.887   7.755  0.00  0.00    +0.000 A 
ATOM     14  N   UNL     1      47.475   1.120   6.727  0.00  0.00    +0.000 NA
ATOM     15  C   UNL     1      47.573   2.396   6.302  0.00  0.00    +0.000 A 
ATOM     16  C   UNL     1      46.866   3.454   6.855  0.00  0.00    +0.000 A 
ENDBRANCH  10  11
ENDBRANCH   8  10
ENDBRANCH   7   8
BRANCH   7  17
ATOM     17  C   UNL     1      43.255   3.283  11.703  0.00  0.00    +0.000 C 
BRANCH  17  18
ATOM     18  N   UNL     1      42.976   1.840  11.682  0.00  0.00    +0.000 NA
ATOM     19  H   UNL     1      41.972   1.693  11.594  0.00  0.00    +0.000 HD
ATOM     20  H   UNL     1      43.257   1.423  12.568  0.00  0.00    +0.000 HD
ENDBRANCH  17  18
ENDBRANCH   7  17
ENDBRANCH   1   7
BRANCH   4  21
ATOM     21  C   UNL     1      46.350   8.911  12.933  0.00  0.00    +0.000 C 
BRANCH  21  22
ATOM     22  N   UNL     1      46.864   8.717  14.265  0.00  0.00    +0.000 N 
ATOM     23  C   UNL     1      48.118   9.120  14.640  0.00  0.00    +0.000 C 
ATOM     24  O   UNL     1      48.872   9.725  13.881  0.00  0.00    +0.000 OA
ATOM     25  H   UNL     1      46.380   8.031  14.830  0.00  0.00    +0.000 HD
BRANCH  23  26
ATOM     26  C   UNL     1      48.483   8.855  16.037  0.00  0.00    +0.000 A 
ATOM     27  C   UNL     1      48.596   9.904  16.936  0.00  0.00    +0.000 A 
ATOM     28  S   UNL     1      48.932   9.404  18.532  0.00  0.00    +0.000 S 
ATOM     29  C   UNL     1      48.995   7.769  18.063  0.00  0.00    +0.000 A 
ATOM     30  N   UNL     1      49.257   6.790  18.971  0.00  0.00    +0.000 NA
ATOM     31  C   UNL     1      49.312   5.600  18.472  0.00  0.00    +0.000 A 
ATOM     32  N   UNL     1      49.132   5.300  17.147  0.00  0.00    +0.000 N 
ATOM     33  C   UNL     1      48.834   6.251  16.200  0.00  0.00    +0.000 A 
ATOM     34  O   UNL     1      48.631   5.943  15.030  0.00  0.00    +0.000 OA
ATOM     35  C   UNL     1      48.762   7.608  16.710  0.00  0.00    +0.000 A 
ATOM     36  H   UNL     1      49.185   4.346  16.821  0.00  0.00    +0.000 HD
ENDBRANCH  23  26
ENDBRANCH  21  22
ENDBRANCH   4  21
TORSDOF 9
ENDMDL
MODEL 4
REMARK VINA RESULT:    -7.155      3.535      8.394
REMARK INTER + INTRA:         -11.841
REMARK INTER:                 -10.165
REMARK INTRA:                  -1.676
REMARK UNBOUND:                -1.130
REMARK  Name = 
REMARK  9 active torsions:
REMARK  status: ('A' for Active; 'I' for Inactive)
REMARK    1  A    between atoms: N_1  and  C_2
REMARK    2  A    between atoms: C_2  and  C_3
REMARK    3  A    between atoms: C_3  and  N_4
REMARK    4  A    between atoms: C_3  and  C_12
REMARK    5  A    between atoms: N_4  and  C_5
REMARK    6  A    between atoms: C_5  and  C_6
REMARK    7  A    between atoms: C_15  and  C_16
REMARK    8  A    between atoms: C_16  and  N_17
REMARK    9  A    between atoms: C_18  and  C_20
REMARK                            x       y       z     vdW  Elec       q    Type
REMARK                         _______ _______ _______ _____ _____    ______ ____
ROOT
ATOM      1  C   UNL     1      48.674   7.445  16.393  0.00  0.00    +0.000 A 
ATOM      2  C   UNL     1      48.752   6.378  15.478  0.00  0.00    +0.000 A 
ATOM      3  C   UNL     1      48.577   6.585  14.107  0.00  0.00    +0.000 A 
ATOM      4  C   UNL     1      48.385   7.875  13.603  0.00  0.00    +0.000 A 
ATOM      5  C   UNL     1      48.322   8.945  14.502  0.00  0.00    +0.000 A 
ATOM      6  C   UNL     1      48.455   8.732  15.879  0.00  0.00    +0.000 A 
ENDROOT
BRANCH   1   7
ATOM      7  C   UNL     1      48.738   7.148  17.895  0.00  0.00    +0.000 C 
BRANCH   7   8
ATOM      8  N   UNL     1      47.674   6.215  18.329  0.00  0.00    +0.000 NA
ATOM      9  H   UNL     1      47.115   5.941  17.521  0.00  0.00    +0.000 HD
BRANCH   8  10
ATOM     10  C   UNL     1      48.173   5.024  19.012  0.00  0.00    +0.000 C 
BRANCH  10  11
ATOM     11  C   UNL     1      48.660   3.969  18.053  0.00  0.00    +0.000 A 
ATOM     12  C   UNL     1      50.008   3.590  18.035  0.00  0.00    +0.000 A 
ATOM     13  C   UNL     1      50.407   2.585  17.171  0.00  0.00    +0.000 A 
ATOM     14  N   UNL     1      49.566   1.940  16.333  0.00  0.00    +0.000 NA
ATOM     15  C   UNL     1      48.271   2.319  16.365  0.00  0.00    +0.000 A 
ATOM     16  C   UNL     1      47.775   3.314  17.196  0.00  0.00    +0.000 A 
ENDBRANCH  10  11
ENDBRANCH   8  10
ENDBRANCH   7   8
BRANCH   7  17
ATOM     17  C   UNL     1      48.700   8.465  18.754  0.00  0.00    +0.000 C 
BRANCH  17  18
ATOM     18  N   UNL     1      47.387   8.838  19.298  0.00  0.00    +0.000 NA
ATOM     19  H   UNL     1      46.762   9.080  18.531  0.00  0.00    +0.000 HD
ATOM     20  H   UNL     1      47.479   9.671  19.877  0.00  0.00    +0.000 HD
ENDBRANCH  17  18
ENDBRANCH   7  17
ENDBRANCH   1   7
BRANCH   4  21
ATOM     21  C   UNL     1      48.190   8.096  12.125  0.00  0.00    +0.000 C 
BRANCH  21  22
ATOM     22  N   UNL     1      47.479   6.987  11.542  0.00  0.00    +0.000 N 
ATOM     23  C   UNL     1      46.115   6.962  11.424  0.00  0.00    +0.000 C 
ATOM     24  O   UNL     1      45.405   7.909  11.758  0.00  0.00    +0.000 OA
ATOM     25  H   UNL     1      47.993   6.117  11.479  0.00  0.00    +0.000 HD
BRANCH  23  26
ATOM     26  C   UNL     1      45.550   5.761  10.799  0.00  0.00    +0.000 A 
ATOM     27  C   UNL     1      45.747   5.523   9.447  0.00  0.00    +0.000 A 
ATOM     28  S   UNL     1      45.104   4.037   8.913  0.00  0.00    +0.000 S 
ATOM     29  C   UNL     1      44.487   3.686  10.460  0.00  0.00    +0.000 A 
ATOM     30  N   UNL     1      43.801   2.535  10.696  0.00  0.00    +0.000 NA
ATOM     31  C   UNL     1      43.358   2.415  11.904  0.00  0.00    +0.000 A 
ATOM     32  N   UNL     1      43.538   3.343  12.896  0.00  0.00    +0.000 N 
ATOM     33  C   UNL     1      44.251   4.504  12.714  0.00  0.00    +0.000 A 
ATOM     34  O   UNL     1      44.435   5.291  13.636  0.00  0.00    +0.000 OA
ATOM     35  C   UNL     1      44.770   4.687  11.370  0.00  0.00    +0.000 A 
ATOM     36  H   UNL     1      43.168   3.187  13.822  0.00  0.00    +0.000 HD
ENDBRANCH  23  26
ENDBRANCH  21  22
ENDBRANCH   4  21
TORSDOF 9
ENDMDL
MODEL 5
REMARK VINA RESULT:    -7.070      1.385      1.997
REMARK INTER + INTRA:         -11.713
REMARK INTER:                 -10.663
REMARK INTRA:                  -1.050
REMARK UNBOUND:                -1.130
REMARK  Name = 
REMARK  9 active torsions:
REMARK  status: ('A' for Active; 'I' for Inactive)
REMARK    1  A    between atoms: N_1  and  C_2
REMARK    2  A    between atoms: C_2  and  C_3
REMARK    3  A    between atoms: C_3  and  N_4
REMARK    4  A    between atoms: C_3  and  C_12
REMARK    5  A    between atoms: N_4  and  C_5
REMARK    6  A    between atoms: C_5  and  C_6
REMARK    7  A    between atoms: C_15  and  C_16
REMARK    8  A    between atoms: C_16  and  N_17
REMARK    9  A    between atoms: C_18  and  C_20
REMARK                            x       y       z     vdW  Elec       q    Type
REMARK                         _______ _______ _______ _____ _____    ______ ____
ROOT
ATOM      1  C   UNL     1      45.133   5.008  11.894  0.00  0.00    +0.000 A 
ATOM      2  C   UNL     1      45.683   4.553  13.109  0.00  0.00    +0.000 A 
ATOM      3  C   UNL     1      46.838   5.130  13.642  0.00  0.00    +0.000 A 
ATOM      4  C   UNL     1      47.442   6.223  13.011  0.00  0.00    +0.000 A 
ATOM      5  C   UNL     1      46.894   6.693  11.812  0.00  0.00    +0.000 A 
ATOM      6  C   UNL     1      45.761   6.088  11.257  0.00  0.00    +0.000 A 
ENDROOT
BRANCH   1   7
ATOM      7  C   UNL     1      43.946   4.256  11.283  0.00  0.00    +0.000 C 
BRANCH   7   8
ATOM      8  N   UNL     1      44.129   3.998   9.838  0.00  0.00    +0.000 NA
ATOM      9  H   UNL     1      44.826   4.642   9.464  0.00  0.00    +0.000 HD
BRANCH   8  10
ATOM     10  C   UNL     1      44.509   2.622   9.525  0.00  0.00    +0.000 C 
BRANCH  10  11
ATOM     11  C   UNL     1      45.579   2.546   8.467  0.00  0.00    +0.000 A 
ATOM     12  C   UNL     1      45.999   3.699   7.793  0.00  0.00    +0.000 A 
ATOM     13  C   UNL     1      47.017   3.593   6.861  0.00  0.00    +0.000 A 
ATOM     14  N   UNL     1      47.637   2.432   6.557  0.00  0.00    +0.000 NA
ATOM     15  C   UNL     1      47.218   1.332   7.217  0.00  0.00    +0.000 A 
ATOM     16  C   UNL     1      46.208   1.336   8.167  0.00  0.00    +0.000 A 
ENDBRANCH  10  11
ENDBRANCH   8  10
ENDBRANCH   7   8
BRANCH   7  17
ATOM     17  C   UNL     1      42.586   5.002  11.544  0.00  0.00    +0.000 C 
BRANCH  17  18
ATOM     18  N   UNL     1      42.419   5.581  12.884  0.00  0.00    +0.000 NA
ATOM     19  H   UNL     1      42.139   4.848  13.535  0.00  0.00    +0.000 HD
ATOM     20  H   UNL     1      41.665   6.266  12.870  0.00  0.00    +0.000 HD
ENDBRANCH  17  18
ENDBRANCH   7  17
ENDBRANCH   1   7
BRANCH   4  21
ATOM     21  C   UNL     1      48.693   6.840  13.583  0.00  0.00    +0.000 C 
BRANCH  21  22
ATOM     22  N   UNL     1      48.841   6.477  14.969  0.00  0.00    +0.000 N 
ATOM     23  C   UNL     1      49.500   7.267  15.874  0.00  0.00    +0.000 C 
ATOM     24  O   UNL     1      49.961   8.367  15.578  0.00  0.00    +0.000 OA
ATOM     25  H   UNL     1      48.690   5.501  15.190  0.00  0.00    +0.000 HD
BRANCH  23  26
ATOM     26  C   UNL     1      49.554   6.755  17.248  0.00  0.00    +0.000 A 
ATOM     27  C   UNL     1      48.462   6.907  18.089  0.00  0.00    +0.000 A 
ATOM     28  S   UNL     1      48.665   6.169  19.614  0.00  0.00    +0.000 S 
ATOM     29  C   UNL     1      50.244   5.671  19.222  0.00  0.00    +0.000 A 
ATOM     30  N   UNL     1      51.001   4.978  20.115  0.00  0.00    +0.000 NA
ATOM     31  C   UNL     1      52.192   4.696  19.700  0.00  0.00    +0.000 A 
ATOM     32  N   UNL     1      52.695   5.047  18.475  0.00  0.00    +0.000 N 
ATOM     33  C   UNL     1      51.957   5.719  17.529  0.00  0.00    +0.000 A 
ATOM     34  O   UNL     1      52.421   5.975  16.423  0.00  0.00    +0.000 OA
ATOM     35  C   UNL     1      50.610   6.060  17.947  0.00  0.00    +0.000 A 
ATOM     36  H   UNL     1      53.635   4.793  18.210  0.00  0.00    +0.000 HD
ENDBRANCH  23  26
ENDBRANCH  21  22
ENDBRANCH   4  21
TORSDOF 9
ENDMDL
MODEL 6
REMARK VINA RESULT:    -6.851      3.330      8.749
REMARK INTER + INTRA:         -11.386
REMARK INTER:                  -9.732
REMARK INTRA:                  -1.654
REMARK UNBOUND:                -1.130
REMARK  Name = 
REMARK  9 active torsions:
REMARK  status: ('A' for Active; 'I' for Inactive)
REMARK    1  A    between atoms: N_1  and  C_2
REMARK    2  A    between atoms: C_2  and  C_3
REMARK    3  A    between atoms: C_3  and  N_4
REMARK    4  A    between atoms: C_3  and  C_12
REMARK    5  A    between atoms: N_4  and  C_5
REMARK    6  A    between atoms: C_5  and  C_6
REMARK    7  A    between atoms: C_15  and  C_16
REMARK    8  A    between atoms: C_16  and  N_17
REMARK    9  A    between atoms: C_18  and  C_20
REMARK                            x       y       z     vdW  Elec       q    Type
REMARK                         _______ _______ _______ _____ _____    ______ ____
ROOT
ATOM      1  C   UNL     1      49.414   8.089  16.137  0.00  0.00    +0.000 A 
ATOM      2  C   UNL     1      50.052   7.336  15.132  0.00  0.00    +0.000 A 
ATOM      3  C   UNL     1      49.528   7.265  13.839  0.00  0.00    +0.000 A 
ATOM      4  C   UNL     1      48.388   7.998  13.493  0.00  0.00    +0.000 A 
ATOM      5  C   UNL     1      47.756   8.761  14.481  0.00  0.00    +0.000 A 
ATOM      6  C   UNL     1      48.256   8.799  15.787  0.00  0.00    +0.000 A 
ENDROOT
BRANCH   1   7
ATOM      7  C   UNL     1      49.950   8.027  17.572  0.00  0.00    +0.000 C 
BRANCH   7   8
ATOM      8  N   UNL     1      50.038   6.639  18.079  0.00  0.00    +0.000 NA
ATOM      9  H   UNL     1      50.412   6.649  19.027  0.00  0.00    +0.000 HD
BRANCH   8  10
ATOM     10  C   UNL     1      48.769   5.917  18.054  0.00  0.00    +0.000 C 
BRANCH  10  11
ATOM     11  C   UNL     1      48.898   4.543  17.450  0.00  0.00    +0.000 A 
ATOM     12  C   UNL     1      47.922   4.056  16.571  0.00  0.00    +0.000 A 
ATOM     13  C   UNL     1      48.101   2.808  16.002  0.00  0.00    +0.000 A 
ATOM     14  N   UNL     1      49.171   2.019  16.245  0.00  0.00    +0.000 NA
ATOM     15  C   UNL     1      50.100   2.506  17.095  0.00  0.00    +0.000 A 
ATOM     16  C   UNL     1      50.011   3.744  17.714  0.00  0.00    +0.000 A 
ENDBRANCH  10  11
ENDBRANCH   8  10
ENDBRANCH   7   8
BRANCH   7  17
ATOM     17  C   UNL     1      49.105   8.920  18.551  0.00  0.00    +0.000 C 
BRANCH  17  18
ATOM     18  N   UNL     1      49.560  10.309  18.704  0.00  0.00    +0.000 NA
ATOM     19  H   UNL     1      50.389  10.457  18.130  0.00  0.00    +0.000 HD
ATOM     20  H   UNL     1      49.838  10.475  19.670  0.00  0.00    +0.000 HD
ENDBRANCH  17  18
ENDBRANCH   7  17
ENDBRANCH   1   7
BRANCH   4  21
ATOM     21  C   UNL     1      47.820   7.914  12.099  0.00  0.00    +0.000 C 
BRANCH  21  22
ATOM     22  N   UNL     1      47.060   6.702  11.940  0.00  0.00    +0.000 N 
ATOM     23  C   UNL     1      45.691   6.680  11.960  0.00  0.00    +0.000 C 
ATOM     24  O   UNL     1      45.014   7.701  12.060  0.00  0.00    +0.000 OA
ATOM     25  H   UNL     1      47.566   5.839  12.091  0.00  0.00    +0.000 HD
BRANCH  23  26
ATOM     26  C   UNL     1      45.070   5.363  11.774  0.00  0.00    +0.000 A 
ATOM     27  C   UNL     1      44.419   4.747  12.831  0.00  0.00    +0.000 A 
ATOM     28  S   UNL     1      43.676   3.270  12.410  0.00  0.00    +0.000 S 
ATOM     29  C   UNL     1      44.251   3.375  10.811  0.00  0.00    +0.000 A 
ATOM     30  N   UNL     1      43.972   2.402   9.902  0.00  0.00    +0.000 NA
ATOM     31  C   UNL     1      44.502   2.591   8.739  0.00  0.00    +0.000 A 
ATOM     32  N   UNL     1      45.286   3.664   8.404  0.00  0.00    +0.000 N 
ATOM     33  C   UNL     1      45.568   4.686   9.279  0.00  0.00    +0.000 A 
ATOM     34  O   UNL     1      46.234   5.656   8.933  0.00  0.00    +0.000 OA
ATOM     35  C   UNL     1      44.996   4.520  10.603  0.00  0.00    +0.000 A 
ATOM     36  H   UNL     1      45.668   3.754   7.474  0.00  0.00    +0.000 HD
ENDBRANCH  23  26
ENDBRANCH  21  22
ENDBRANCH   4  21
TORSDOF 9
ENDMDL
MODEL 7
REMARK VINA RESULT:    -6.778      3.124      5.793
REMARK INTER + INTRA:         -11.276
REMARK INTER:                 -10.347
REMARK INTRA:                  -0.929
REMARK UNBOUND:                -1.130
REMARK  Name = 
REMARK  9 active torsions:
REMARK  status: ('A' for Active; 'I' for Inactive)
REMARK    1  A    between atoms: N_1  and  C_2
REMARK    2  A    between atoms: C_2  and  C_3
REMARK    3  A    between atoms: C_3  and  N_4
REMARK    4  A    between atoms: C_3  and  C_12
REMARK    5  A    between atoms: N_4  and  C_5
REMARK    6  A    between atoms: C_5  and  C_6
REMARK    7  A    between atoms: C_15  and  C_16
REMARK    8  A    between atoms: C_16  and  N_17
REMARK    9  A    between atoms: C_18  and  C_20
REMARK                            x       y       z     vdW  Elec       q    Type
REMARK                         _______ _______ _______ _____ _____    ______ ____
ROOT
ATOM      1  C   UNL     1      46.082   3.487   7.667  0.00  0.00    +0.000 A 
ATOM      2  C   UNL     1      45.334   2.506   8.346  0.00  0.00    +0.000 A 
ATOM      3  C   UNL     1      44.698   2.790   9.557  0.00  0.00    +0.000 A 
ATOM      4  C   UNL     1      44.734   4.082  10.092  0.00  0.00    +0.000 A 
ATOM      5  C   UNL     1      45.461   5.068   9.417  0.00  0.00    +0.000 A 
ATOM      6  C   UNL     1      46.134   4.773   8.226  0.00  0.00    +0.000 A 
ENDROOT
BRANCH   1   7
ATOM      7  C   UNL     1      46.872   3.091   6.415  0.00  0.00    +0.000 C 
BRANCH   7   8
ATOM      8  N   UNL     1      46.069   2.271   5.481  0.00  0.00    +0.000 NA
ATOM      9  H   UNL     1      45.143   2.685   5.377  0.00  0.00    +0.000 HD
BRANCH   8  10
ATOM     10  C   UNL     1      46.682   2.096   4.167  0.00  0.00    +0.000 C 
BRANCH  10  11
ATOM     11  C   UNL     1      46.373   0.753   3.559  0.00  0.00    +0.000 A 
ATOM     12  C   UNL     1      46.981  -0.409   4.050  0.00  0.00    +0.000 A 
ATOM     13  C   UNL     1      46.635  -1.628   3.495  0.00  0.00    +0.000 A 
ATOM     14  N   UNL     1      45.736  -1.769   2.496  0.00  0.00    +0.000 NA
ATOM     15  C   UNL     1      45.161  -0.638   2.037  0.00  0.00    +0.000 A 
ATOM     16  C   UNL     1      45.441   0.629   2.528  0.00  0.00    +0.000 A 
ENDBRANCH  10  11
ENDBRANCH   8  10
ENDBRANCH   7   8
BRANCH   7  17
ATOM     17  C   UNL     1      48.215   2.360   6.778  0.00  0.00    +0.000 C 
BRANCH  17  18
ATOM     18  N   UNL     1      48.088   0.958   7.199  0.00  0.00    +0.000 NA
ATOM     19  H   UNL     1      48.267   0.889   8.200  0.00  0.00    +0.000 HD
ATOM     20  H   UNL     1      48.797   0.394   6.734  0.00  0.00    +0.000 HD
ENDBRANCH  17  18
ENDBRANCH   7  17
ENDBRANCH   1   7
BRANCH   4  21
ATOM     21  C   UNL     1      44.053   4.385  11.403  0.00  0.00    +0.000 C 
BRANCH  21  22
ATOM     22  N   UNL     1      44.999   4.921  12.347  0.00  0.00    +0.000 N 
ATOM     23  C   UNL     1      45.862   4.131  13.059  0.00  0.00    +0.000 C 
ATOM     24  O   UNL     1      45.929   2.914  12.899  0.00  0.00    +0.000 OA
ATOM     25  H   UNL     1      44.815   5.862  12.671  0.00  0.00    +0.000 HD
BRANCH  23  26
ATOM     26  C   UNL     1      46.767   4.837  13.973  0.00  0.00    +0.000 A 
ATOM     27  C   UNL     1      46.948   4.372  15.267  0.00  0.00    +0.000 A 
ATOM     28  S   UNL     1      48.105   5.256  16.156  0.00  0.00    +0.000 S 
ATOM     29  C   UNL     1      48.361   6.329  14.859  0.00  0.00    +0.000 A 
ATOM     30  N   UNL     1      49.247   7.355  14.964  0.00  0.00    +0.000 NA
ATOM     31  C   UNL     1      49.314   8.112  13.920  0.00  0.00    +0.000 A 
ATOM     32  N   UNL     1      48.573   7.936  12.780  0.00  0.00    +0.000 N 
ATOM     33  C   UNL     1      47.690   6.896  12.616  0.00  0.00    +0.000 A 
ATOM     34  O   UNL     1      47.078   6.739  11.565  0.00  0.00    +0.000 OA
ATOM     35  C   UNL     1      47.577   6.015  13.765  0.00  0.00    +0.000 A 
ATOM     36  H   UNL     1      48.675   8.563  11.996  0.00  0.00    +0.000 HD
ENDBRANCH  23  26
ENDBRANCH  21  22
ENDBRANCH   4  21
TORSDOF 9
ENDMDL
MODEL 8
REMARK VINA RESULT:    -6.778      1.897      2.364
REMARK INTER + INTRA:         -11.275
REMARK INTER:                 -10.388
REMARK INTRA:                  -0.887
REMARK UNBOUND:                -1.130
REMARK  Name = 
REMARK  9 active torsions:
REMARK  status: ('A' for Active; 'I' for Inactive)
REMARK    1  A    between atoms: N_1  and  C_2
REMARK    2  A    between atoms: C_2  and  C_3
REMARK    3  A    between atoms: C_3  and  N_4
REMARK    4  A    between atoms: C_3  and  C_12
REMARK    5  A    between atoms: N_4  and  C_5
REMARK    6  A    between atoms: C_5  and  C_6
REMARK    7  A    between atoms: C_15  and  C_16
REMARK    8  A    between atoms: C_16  and  N_17
REMARK    9  A    between atoms: C_18  and  C_20
REMARK                            x       y       z     vdW  Elec       q    Type
REMARK                         _______ _______ _______ _____ _____    ______ ____
ROOT
ATOM      1  C   UNL     1      45.753   6.520  11.763  0.00  0.00    +0.000 A 
ATOM      2  C   UNL     1      45.289   7.458  12.706  0.00  0.00    +0.000 A 
ATOM      3  C   UNL     1      46.153   8.391  13.285  0.00  0.00    +0.000 A 
ATOM      4  C   UNL     1      47.493   8.459  12.888  0.00  0.00    +0.000 A 
ATOM      5  C   UNL     1      47.960   7.542  11.940  0.00  0.00    +0.000 A 
ATOM      6  C   UNL     1      47.104   6.580  11.392  0.00  0.00    +0.000 A 
ENDROOT
BRANCH   1   7
ATOM      7  C   UNL     1      44.798   5.433  11.259  0.00  0.00    +0.000 C 
BRANCH   7   8
ATOM      8  N   UNL     1      44.780   5.342   9.782  0.00  0.00    +0.000 NA
ATOM      9  H   UNL     1      45.715   5.530   9.420  0.00  0.00    +0.000 HD
BRANCH   8  10
ATOM     10  C   UNL     1      44.301   4.059   9.272  0.00  0.00    +0.000 C 
BRANCH  10  11
ATOM     11  C   UNL     1      45.374   3.288   8.548  0.00  0.00    +0.000 A 
ATOM     12  C   UNL     1      45.492   1.903   8.715  0.00  0.00    +0.000 A 
ATOM     13  C   UNL     1      46.461   1.225   7.996  0.00  0.00    +0.000 A 
ATOM     14  N   UNL     1      47.311   1.825   7.134  0.00  0.00    +0.000 NA
ATOM     15  C   UNL     1      47.182   3.160   6.987  0.00  0.00    +0.000 A 
ATOM     16  C   UNL     1      46.242   3.926   7.661  0.00  0.00    +0.000 A 
ENDBRANCH  10  11
ENDBRANCH   8  10
ENDBRANCH   7   8
BRANCH   7  17
ATOM     17  C   UNL     1      43.342   5.628  11.818  0.00  0.00    +0.000 C 
BRANCH  17  18
ATOM     18  N   UNL     1      42.489   6.562  11.070  0.00  0.00    +0.000 NA
ATOM     19  H   UNL     1      43.073   7.153  10.481  0.00  0.00    +0.000 HD
ATOM     20  H   UNL     1      42.005   7.180  11.719  0.00  0.00    +0.000 HD
ENDBRANCH  17  18
ENDBRANCH   7  17
ENDBRANCH   1   7
BRANCH   4  21
ATOM     21  C   UNL     1      48.426   9.461  13.519  0.00  0.00    +0.000 C 
BRANCH  21  22
ATOM     22  N   UNL     1      48.079   9.669  14.901  0.00  0.00    +0.000 N 
ATOM     23  C   UNL     1      48.920   9.343  15.931  0.00  0.00    +0.000 C 
ATOM     24  O   UNL     1      50.053   8.903  15.746  0.00  0.00    +0.000 OA
ATOM     25  H   UNL     1      47.095   9.800  15.095  0.00  0.00    +0.000 HD
BRANCH  23  26
ATOM     26  C   UNL     1      48.417   9.627  17.281  0.00  0.00    +0.000 A 
ATOM     27  C   UNL     1      48.076  10.923  17.636  0.00  0.00    +0.000 A 
ATOM     28  S   UNL     1      47.421  11.052  19.206  0.00  0.00    +0.000 S 
ATOM     29  C   UNL     1      47.627   9.386  19.487  0.00  0.00    +0.000 A 
ATOM     30  N   UNL     1      47.265   8.826  20.672  0.00  0.00    +0.000 NA
ATOM     31  C   UNL     1      47.511   7.561  20.762  0.00  0.00    +0.000 A 
ATOM     32  N   UNL     1      48.088   6.806  19.775  0.00  0.00    +0.000 N 
ATOM     33  C   UNL     1      48.440   7.321  18.550  0.00  0.00    +0.000 A 
ATOM     34  O   UNL     1      48.910   6.608  17.670  0.00  0.00    +0.000 OA
ATOM     35  C   UNL     1      48.185   8.742  18.398  0.00  0.00    +0.000 A 
ATOM     36  H   UNL     1      48.251   5.818  19.908  0.00  0.00    +0.000 HD
ENDBRANCH  23  26
ENDBRANCH  21  22
ENDBRANCH   4  21
TORSDOF 9
ENDMDL
MODEL 9
REMARK VINA RESULT:    -6.647      3.750     10.149
REMARK INTER + INTRA:         -11.080
REMARK INTER:                  -9.453
REMARK INTRA:                  -1.627
REMARK UNBOUND:                -1.130
REMARK  Name = 
REMARK  9 active torsions:
REMARK  status: ('A' for Active; 'I' for Inactive)
REMARK    1  A    between atoms: N_1  and  C_2
REMARK    2  A    between atoms: C_2  and  C_3
REMARK    3  A    between atoms: C_3  and  N_4
REMARK    4  A    between atoms: C_3  and  C_12
REMARK    5  A    between atoms: N_4  and  C_5
REMARK    6  A    between atoms: C_5  and  C_6
REMARK    7  A    between atoms: C_15  and  C_16
REMARK    8  A    between atoms: C_16  and  N_17
REMARK    9  A    between atoms: C_18  and  C_20
REMARK                            x       y       z     vdW  Elec       q    Type
REMARK                         _______ _______ _______ _____ _____    ______ ____
ROOT
ATOM      1  C   UNL     1      51.358   4.389  17.822  0.00  0.00    +0.000 A 
ATOM      2  C   UNL     1      50.906   3.058  17.738  0.00  0.00    +0.000 A 
ATOM      3  C   UNL     1      49.588   2.762  17.381  0.00  0.00    +0.000 A 
ATOM      4  C   UNL     1      48.701   3.786  17.032  0.00  0.00    +0.000 A 
ATOM      5  C   UNL     1      49.145   5.111  17.097  0.00  0.00    +0.000 A 
ATOM      6  C   UNL     1      50.453   5.409  17.496  0.00  0.00    +0.000 A 
ENDROOT
BRANCH   1   7
ATOM      7  C   UNL     1      52.771   4.667  18.349  0.00  0.00    +0.000 C 
BRANCH   7   8
ATOM      8  N   UNL     1      52.760   5.492  19.577  0.00  0.00    +0.000 NA
ATOM      9  H   UNL     1      52.261   6.363  19.395  0.00  0.00    +0.000 HD
BRANCH   8  10
ATOM     10  C   UNL     1      52.177   4.821  20.737  0.00  0.00    +0.000 C 
BRANCH  10  11
ATOM     11  C   UNL     1      50.855   5.417  21.145  0.00  0.00    +0.000 A 
ATOM     12  C   UNL     1      50.778   6.743  21.588  0.00  0.00    +0.000 A 
ATOM     13  C   UNL     1      49.538   7.268  21.910  0.00  0.00    +0.000 A 
ATOM     14  N   UNL     1      48.384   6.570  21.822  0.00  0.00    +0.000 NA
ATOM     15  C   UNL     1      48.479   5.295  21.393  0.00  0.00    +0.000 A 
ATOM     16  C   UNL     1      49.674   4.681  21.046  0.00  0.00    +0.000 A 
ENDBRANCH  10  11
ENDBRANCH   8  10
ENDBRANCH   7   8
BRANCH   7  17
ATOM     17  C   UNL     1      53.685   5.323  17.250  0.00  0.00    +0.000 C 
BRANCH  17  18
ATOM     18  N   UNL     1      54.302   6.606  17.614  0.00  0.00    +0.000 NA
ATOM     19  H   UNL     1      55.294   6.580  17.383  0.00  0.00    +0.000 HD
ATOM     20  H   UNL     1      54.239   6.745  18.621  0.00  0.00    +0.000 HD
ENDBRANCH  17  18
ENDBRANCH   7  17
ENDBRANCH   1   7
BRANCH   4  21
ATOM     21  C   UNL     1      47.277   3.466  16.653  0.00  0.00    +0.000 C 
BRANCH  21  22
ATOM     22  N   UNL     1      46.782   4.428  15.703  0.00  0.00    +0.000 N 
ATOM     23  C   UNL     1      46.840   4.230  14.350  0.00  0.00    +0.000 C 
ATOM     24  O   UNL     1      47.269   3.190  13.852  0.00  0.00    +0.000 OA
ATOM     25  H   UNL     1      46.647   5.368  16.055  0.00  0.00    +0.000 HD
BRANCH  23  26
ATOM     26  C   UNL     1      46.284   5.306  13.521  0.00  0.00    +0.000 A 
ATOM     27  C   UNL     1      47.028   6.450  13.279  0.00  0.00    +0.000 A 
ATOM     28  S   UNL     1      46.266   7.550  12.220  0.00  0.00    +0.000 S 
ATOM     29  C   UNL     1      44.888   6.559  12.096  0.00  0.00    +0.000 A 
ATOM     30  N   UNL     1      43.827   6.928  11.329  0.00  0.00    +0.000 NA
ATOM     31  C   UNL     1      42.836   6.100  11.356  0.00  0.00    +0.000 A 
ATOM     32  N   UNL     1      42.808   4.938  12.082  0.00  0.00    +0.000 N 
ATOM     33  C   UNL     1      43.868   4.509  12.845  0.00  0.00    +0.000 A 
ATOM     34  O   UNL     1      43.830   3.439  13.444  0.00  0.00    +0.000 OA
ATOM     35  C   UNL     1      45.009   5.406  12.850  0.00  0.00    +0.000 A 
ATOM     36  H   UNL     1      42.002   4.332  12.057  0.00  0.00    +0.000 HD
ENDBRANCH  23  26
ENDBRANCH  21  22
ENDBRANCH   4  21
TORSDOF 9
ENDMDL
