MODEL 1
REMARK VINA RESULT:    -8.267      0.000      0.000
REMARK INTER + INTRA:         -12.751
REMARK INTER:                 -11.409
REMARK INTRA:                  -1.342
REMARK UNBOUND:                -1.342
REMARK  Name = 
REMARK  7 active torsions:
REMARK  status: ('A' for Active; 'I' for Inactive)
REMARK    1  A    between atoms: C_2  and  C_20
REMARK    2  A    between atoms: N_3  and  C_4
REMARK    3  A    between atoms: C_4  and  C_5
REMARK    4  A    between atoms: C_8  and  C_9
REMARK    5  A    between atoms: C_9  and  C_10
REMARK    6  A    between atoms: C_10  and  O_11
REMARK    7  A    between atoms: C_10  and  C_12
REMARK                            x       y       z     vdW  Elec       q    Type
REMARK                         _______ _______ _______ _____ _____    ______ ____
ROOT
ATOM      1  C   UNL     1      46.893   7.668  13.202  0.00  0.00    +0.000 C 
ENDROOT
BRANCH   1   2
ATOM      2  C   UNL     1      46.183   6.719  12.278  0.00  0.00    +0.000 A 
ATOM      3  C   UNL     1      46.539   6.654  10.927  0.00  0.00    +0.000 A 
ATOM      4  C   UNL     1      45.905   5.755  10.065  0.00  0.00    +0.000 A 
ATOM      5  C   UNL     1      44.896   4.904  10.530  0.00  0.00    +0.000 A 
ATOM      6  C   UNL     1      44.513   5.004  11.877  0.00  0.00    +0.000 A 
ATOM      7  C   UNL     1      45.144   5.905  12.741  0.00  0.00    +0.000 A 
BRANCH   5   8
ATOM      8  C   UNL     1      44.223   3.849   9.669  0.00  0.00    +0.000 C 
BRANCH   8   9
ATOM      9  C   UNL     1      44.973   2.513   9.462  0.00  0.00    +0.000 C 
BRANCH   9  10
ATOM     10  C   UNL     1      45.835   2.430   8.217  0.00  0.00    +0.000 A 
ATOM     11  C   UNL     1      46.541   1.240   7.963  0.00  0.00    +0.000 A 
ATOM     12  C   UNL     1      47.270   1.075   6.784  0.00  0.00    +0.000 A 
ATOM     13  C   UNL     1      47.301   2.094   5.837  0.00  0.00    +0.000 A 
ATOM     14  C   UNL     1      46.610   3.281   6.073  0.00  0.00    +0.000 A 
ATOM     15  C   UNL     1      45.882   3.448   7.253  0.00  0.00    +0.000 A 
ENDBRANCH   9  10
BRANCH   9  16
ATOM     16  O   UNL     1      44.045   1.427   9.374  0.00  0.00    +0.000 OA
ATOM     17  H   UNL     1      43.431   1.515  10.122  0.00  0.00    +0.000 HD
ENDBRANCH   9  16
ENDBRANCH   8   9
ENDBRANCH   5   8
ENDBRANCH   1   2
BRANCH   1  20
ATOM     18  O   UNL     1      49.457   6.790  13.729  0.00  0.00    +0.000 OA
ATOM     19  C   UNL     1      48.615   6.684  14.618  0.00  0.00    +0.000 C 
ATOM     20  N   UNL     1      47.301   7.012  14.417  0.00  0.00    +0.000 N 
ATOM     21  H   UNL     1      46.680   7.105  15.215  0.00  0.00    +0.000 HD
BRANCH  19  22
ATOM     22  C   UNL     1      48.969   6.165  15.944  0.00  0.00    +0.000 A 
ATOM     23  C   UNL     1      49.878   6.857  16.732  0.00  0.00    +0.000 A 
ATOM     24  S   UNL     1      50.159   6.130  18.248  0.00  0.00    +0.000 S 
ATOM     25  C   UNL     1      49.042   4.888  17.920  0.00  0.00    +0.000 A 
ATOM     26  N   UNL     1      48.765   3.934  18.848  0.00  0.00    +0.000 NA
ATOM     27  C   UNL     1      47.869   3.078  18.481  0.00  0.00    +0.000 A 
ATOM     28  N   UNL     1      47.237   3.080  17.266  0.00  0.00    +0.000 N 
ATOM     29  C   UNL     1      47.517   3.999  16.280  0.00  0.00    +0.000 A 
ATOM     30  O   UNL     1      46.981   3.935  15.180  0.00  0.00    +0.000 OA
ATOM     31  C   UNL     1      48.492   5.006  16.657  0.00  0.00    +0.000 A 
ATOM     32  H   UNL     1      46.561   2.369  17.031  0.00  0.00    +0.000 HD
ENDBRANCH  19  22
ENDBRANCH   1  20
TORSDOF 7
ENDMDL
MODEL 2
REMARK VINA RESULT:    -8.023      1.628      1.835
REMARK INTER + INTRA:         -12.414
REMARK INTER:                 -11.755
REMARK INTRA:                  -0.658
REMARK UNBOUND:                -1.342
REMARK  Name = 
REMARK  7 active torsions:
REMARK  status: ('A' for Active; 'I' for Inactive)
REMARK    1  A    between atoms: C_2  and  C_20
REMARK    2  A    between atoms: N_3  and  C_4
REMARK    3  A    between atoms: C_4  and  C_5
REMARK    4  A    between atoms: C_8  and  C_9
REMARK    5  A    between atoms: C_9  and  C_10
REMARK    6  A    between atoms: C_10  and  O_11
REMARK    7  A    between atoms: C_10  and  C_12
REMARK                            x       y       z     vdW  Elec       q    Type
REMARK                         _______ _______ _______ _____ _____    ______ ____
ROOT
ATOM      1  C   UNL     1      48.025   6.764  13.452  0.00  0.00    +0.000 C 
ENDROOT
BRANCH   1   2
ATOM      2  C   UNL     1      47.009   5.870  12.799  0.00  0.00    +0.000 A 
ATOM      3  C   UNL     1      46.377   6.271  11.617  0.00  0.00    +0.000 A 
ATOM      4  C   UNL     1      45.451   5.436  10.985  0.00  0.00    +0.000 A 
ATOM      5  C   UNL     1      45.130   4.184  11.521  0.00  0.00    +0.000 A 
ATOM      6  C   UNL     1      45.735   3.805  12.730  0.00  0.00    +0.000 A 
ATOM      7  C   UNL     1      46.660   4.641  13.366  0.00  0.00    +0.000 A 
BRANCH   5   8
ATOM      8  C   UNL     1      44.197   3.194  10.844  0.00  0.00    +0.000 C 
BRANCH   8   9
ATOM      9  C   UNL     1      44.075   3.266   9.305  0.00  0.00    +0.000 C 
BRANCH   9  10
ATOM     10  C   UNL     1      45.326   2.898   8.529  0.00  0.00    +0.000 A 
ATOM     11  C   UNL     1      45.747   1.556   8.522  0.00  0.00    +0.000 A 
ATOM     12  C   UNL     1      46.832   1.147   7.746  0.00  0.00    +0.000 A 
ATOM     13  C   UNL     1      47.512   2.071   6.959  0.00  0.00    +0.000 A 
ATOM     14  C   UNL     1      47.112   3.406   6.955  0.00  0.00    +0.000 A 
ATOM     15  C   UNL     1      46.027   3.817   7.733  0.00  0.00    +0.000 A 
ENDBRANCH   9  10
BRANCH   9  16
ATOM     16  O   UNL     1      43.730   4.592   8.892  0.00  0.00    +0.000 OA
ATOM     17  H   UNL     1      43.645   4.575   7.924  0.00  0.00    +0.000 HD
ENDBRANCH   9  16
ENDBRANCH   8   9
ENDBRANCH   5   8
ENDBRANCH   1   2
BRANCH   1  20
ATOM     18  O   UNL     1      50.184   6.741  15.174  0.00  0.00    +0.000 OA
ATOM     19  C   UNL     1      49.056   6.780  15.660  0.00  0.00    +0.000 C 
ATOM     20  N   UNL     1      47.928   6.707  14.888  0.00  0.00    +0.000 N 
ATOM     21  H   UNL     1      47.027   6.941  15.293  0.00  0.00    +0.000 HD
BRANCH  19  22
ATOM     22  C   UNL     1      48.857   6.875  17.111  0.00  0.00    +0.000 A 
ATOM     23  C   UNL     1      48.492   8.089  17.676  0.00  0.00    +0.000 A 
ATOM     24  S   UNL     1      48.281   8.018  19.366  0.00  0.00    +0.000 S 
ATOM     25  C   UNL     1      48.626   6.352  19.394  0.00  0.00    +0.000 A 
ATOM     26  N   UNL     1      48.569   5.646  20.555  0.00  0.00    +0.000 NA
ATOM     27  C   UNL     1      48.814   4.384  20.424  0.00  0.00    +0.000 A 
ATOM     28  N   UNL     1      49.127   3.767  19.241  0.00  0.00    +0.000 N 
ATOM     29  C   UNL     1      49.238   4.448  18.050  0.00  0.00    +0.000 A 
ATOM     30  O   UNL     1      49.582   3.879  17.021  0.00  0.00    +0.000 OA
ATOM     31  C   UNL     1      48.936   5.865  18.138  0.00  0.00    +0.000 A 
ATOM     32  H   UNL     1      49.330   2.780  19.208  0.00  0.00    +0.000 HD
ENDBRANCH  19  22
ENDBRANCH   1  20
TORSDOF 7
ENDMDL
MODEL 3
REMARK VINA RESULT:    -7.636      2.503      3.177
REMARK INTER + INTRA:         -11.880
REMARK INTER:                 -10.755
REMARK INTRA:                  -1.125
REMARK UNBOUND:                -1.342
REMARK  Name = 
REMARK  7 active torsions:
REMARK  status: ('A' for Active; 'I' for Inactive)
REMARK    1  A    between atoms: C_2  and  C_20
REMARK    2  A    between atoms: N_3  and  C_4
REMARK    3  A    between atoms: C_4  and  C_5
REMARK    4  A    between atoms: C_8  and  C_9
REMARK    5  A    between atoms: C_9  and  C_10
REMARK    6  A    between atoms: C_10  and  O_11
REMARK    7  A    between atoms: C_10  and  C_12
REMARK                            x       y       z     vdW  Elec       q    Type
REMARK                         _______ _______ _______ _____ _____    ______ ____
ROOT
ATOM      1  C   UNL     1      46.920   4.622  15.856  0.00  0.00    +0.000 C 
ENDROOT
BRANCH   1   2
ATOM      2  C   UNL     1      46.611   4.754  14.391  0.00  0.00    +0.000 A 
ATOM      3  C   UNL     1      46.013   3.694  13.700  0.00  0.00    +0.000 A 
ATOM      4  C   UNL     1      45.695   3.814  12.345  0.00  0.00    +0.000 A 
ATOM      5  C   UNL     1      45.971   4.994  11.645  0.00  0.00    +0.000 A 
ATOM      6  C   UNL     1      46.610   6.039  12.331  0.00  0.00    +0.000 A 
ATOM      7  C   UNL     1      46.932   5.919  13.688  0.00  0.00    +0.000 A 
BRANCH   5   8
ATOM      8  C   UNL     1      45.578   5.222  10.195  0.00  0.00    +0.000 C 
BRANCH   8   9
ATOM      9  C   UNL     1      44.758   4.116   9.495  0.00  0.00    +0.000 C 
BRANCH   9  10
ATOM     10  C   UNL     1      45.538   3.215   8.555  0.00  0.00    +0.000 A 
ATOM     11  C   UNL     1      46.252   3.802   7.496  0.00  0.00    +0.000 A 
ATOM     12  C   UNL     1      47.064   3.031   6.662  0.00  0.00    +0.000 A 
ATOM     13  C   UNL     1      47.179   1.661   6.878  0.00  0.00    +0.000 A 
ATOM     14  C   UNL     1      46.477   1.061   7.921  0.00  0.00    +0.000 A 
ATOM     15  C   UNL     1      45.663   1.832   8.755  0.00  0.00    +0.000 A 
ENDBRANCH   9  10
BRANCH   9  16
ATOM     16  O   UNL     1      43.708   4.691   8.711  0.00  0.00    +0.000 OA
ATOM     17  H   UNL     1      43.099   3.971   8.478  0.00  0.00    +0.000 HD
ENDBRANCH   9  16
ENDBRANCH   8   9
ENDBRANCH   5   8
ENDBRANCH   1   2
BRANCH   1  20
ATOM     18  O   UNL     1      48.276   5.526  18.085  0.00  0.00    +0.000 OA
ATOM     19  C   UNL     1      48.899   4.868  17.256  0.00  0.00    +0.000 C 
ATOM     20  N   UNL     1      48.333   4.454  16.080  0.00  0.00    +0.000 N 
ATOM     21  H   UNL     1      48.802   3.752  15.517  0.00  0.00    +0.000 HD
BRANCH  19  22
ATOM     22  C   UNL     1      50.308   4.515  17.468  0.00  0.00    +0.000 A 
ATOM     23  C   UNL     1      51.219   5.503  17.813  0.00  0.00    +0.000 A 
ATOM     24  S   UNL     1      52.804   4.919  18.043  0.00  0.00    +0.000 S 
ATOM     25  C   UNL     1      52.318   3.318  17.731  0.00  0.00    +0.000 A 
ATOM     26  N   UNL     1      53.204   2.290  17.812  0.00  0.00    +0.000 NA
ATOM     27  C   UNL     1      52.690   1.124  17.591  0.00  0.00    +0.000 A 
ATOM     28  N   UNL     1      51.376   0.897  17.280  0.00  0.00    +0.000 N 
ATOM     29  C   UNL     1      50.454   1.909  17.144  0.00  0.00    +0.000 A 
ATOM     30  O   UNL     1      49.300   1.678  16.801  0.00  0.00    +0.000 OA
ATOM     31  C   UNL     1      50.973   3.236  17.418  0.00  0.00    +0.000 A 
ATOM     32  H   UNL     1      51.040  -0.037  17.096  0.00  0.00    +0.000 HD
ENDBRANCH  19  22
ENDBRANCH   1  20
TORSDOF 7
ENDMDL
MODEL 4
REMARK VINA RESULT:    -7.566      2.302      2.792
REMARK INTER + INTRA:         -11.783
REMARK INTER:                 -11.213
REMARK INTRA:                  -0.570
REMARK UNBOUND:                -1.342
REMARK  Name = 
REMARK  7 active torsions:
REMARK  status: ('A' for Active; 'I' for Inactive)
REMARK    1  A    between atoms: C_2  and  C_20
REMARK    2  A    between atoms: N_3  and  C_4
REMARK    3  A    between atoms: C_4  and  C_5
REMARK    4  A    between atoms: C_8  and  C_9
REMARK    5  A    between atoms: C_9  and  C_10
REMARK    6  A    between atoms: C_10  and  O_11
REMARK    7  A    between atoms: C_10  and  C_12
REMARK                            x       y       z     vdW  Elec       q    Type
REMARK                         _______ _______ _______ _____ _____    ______ ____
ROOT
ATOM      1  C   UNL     1      47.820   6.553  13.702  0.00  0.00    +0.000 C 
ENDROOT
BRANCH   1   2
ATOM      2  C   UNL     1      46.855   5.676  12.955  0.00  0.00    +0.000 A 
ATOM      3  C   UNL     1      46.280   6.121  11.760  0.00  0.00    +0.000 A 
ATOM      4  C   UNL     1      45.403   5.304  11.042  0.00  0.00    +0.000 A 
ATOM      5  C   UNL     1      45.074   4.024  11.503  0.00  0.00    +0.000 A 
ATOM      6  C   UNL     1      45.620   3.599  12.725  0.00  0.00    +0.000 A 
ATOM      7  C   UNL     1      46.496   4.418  13.447  0.00  0.00    +0.000 A 
BRANCH   5   8
ATOM      8  C   UNL     1      44.195   3.053  10.734  0.00  0.00    +0.000 C 
BRANCH   8   9
ATOM      9  C   UNL     1      44.128   3.214   9.198  0.00  0.00    +0.000 C 
BRANCH   9  10
ATOM     10  C   UNL     1      45.389   2.837   8.443  0.00  0.00    +0.000 A 
ATOM     11  C   UNL     1      45.802   1.493   8.447  0.00  0.00    +0.000 A 
ATOM     12  C   UNL     1      46.897   1.075   7.689  0.00  0.00    +0.000 A 
ATOM     13  C   UNL     1      47.594   1.993   6.909  0.00  0.00    +0.000 A 
ATOM     14  C   UNL     1      47.201   3.330   6.894  0.00  0.00    +0.000 A 
ATOM     15  C   UNL     1      46.106   3.750   7.654  0.00  0.00    +0.000 A 
ENDBRANCH   9  10
BRANCH   9  16
ATOM     16  O   UNL     1      43.851   4.574   8.849  0.00  0.00    +0.000 OA
ATOM     17  H   UNL     1      43.253   4.556   8.083  0.00  0.00    +0.000 HD
ENDBRANCH   9  16
ENDBRANCH   8   9
ENDBRANCH   5   8
ENDBRANCH   1   2
BRANCH   1  20
ATOM     18  O   UNL     1      49.997   6.570  15.400  0.00  0.00    +0.000 OA
ATOM     19  C   UNL     1      48.881   6.424  15.892  0.00  0.00    +0.000 C 
ATOM     20  N   UNL     1      47.755   6.316  15.121  0.00  0.00    +0.000 N 
ATOM     21  H   UNL     1      46.841   6.398  15.555  0.00  0.00    +0.000 HD
BRANCH  19  22
ATOM     22  C   UNL     1      48.697   6.323  17.344  0.00  0.00    +0.000 A 
ATOM     23  C   UNL     1      48.956   5.121  17.988  0.00  0.00    +0.000 A 
ATOM     24  S   UNL     1      48.713   5.184  19.674  0.00  0.00    +0.000 S 
ATOM     25  C   UNL     1      48.295   6.833  19.607  0.00  0.00    +0.000 A 
ATOM     26  N   UNL     1      48.011   7.528  20.740  0.00  0.00    +0.000 NA
ATOM     27  C   UNL     1      47.750   8.780  20.546  0.00  0.00    +0.000 A 
ATOM     28  N   UNL     1      47.731   9.393  19.322  0.00  0.00    +0.000 N 
ATOM     29  C   UNL     1      47.969   8.720  18.145  0.00  0.00    +0.000 A 
ATOM     30  O   UNL     1      47.881   9.283  17.060  0.00  0.00    +0.000 OA
ATOM     31  C   UNL     1      48.303   7.318  18.312  0.00  0.00    +0.000 A 
ATOM     32  H   UNL     1      47.497  10.371  19.234  0.00  0.00    +0.000 HD
ENDBRANCH  19  22
ENDBRANCH   1  20
TORSDOF 7
ENDMDL
MODEL 5
REMARK VINA RESULT:    -7.524      2.666      4.459
REMARK INTER + INTRA:         -11.724
REMARK INTER:                 -10.617
REMARK INTRA:                  -1.108
REMARK UNBOUND:                -1.342
REMARK  Name = 
REMARK  7 active torsions:
REMARK  status: ('A' for Active; 'I' for Inactive)
REMARK    1  A    between atoms: C_2  and  C_20
REMARK    2  A    between atoms: N_3  and  C_4
REMARK    3  A    between atoms: C_4  and  C_5
REMARK    4  A    between atoms: C_8  and  C_9
REMARK    5  A    between atoms: C_9  and  C_10
REMARK    6  A    between atoms: C_10  and  O_11
REMARK    7  A    between atoms: C_10  and  C_12
REMARK                            x       y       z     vdW  Elec       q    Type
REMARK                         _______ _______ _______ _____ _____    ______ ____
ROOT
ATOM      1  C   UNL     1      47.436   5.381  14.688  0.00  0.00    +0.000 C 
ENDROOT
BRANCH   1   2
ATOM      2  C   UNL     1      46.558   4.995  13.531  0.00  0.00    +0.000 A 
ATOM      3  C   UNL     1      45.927   5.982  12.767  0.00  0.00    +0.000 A 
ATOM      4  C   UNL     1      45.131   5.637  11.671  0.00  0.00    +0.000 A 
ATOM      5  C   UNL     1      44.941   4.296  11.316  0.00  0.00    +0.000 A 
ATOM      6  C   UNL     1      45.541   3.308  12.112  0.00  0.00    +0.000 A 
ATOM      7  C   UNL     1      46.336   3.652  13.211  0.00  0.00    +0.000 A 
BRANCH   5   8
ATOM      8  C   UNL     1      44.158   3.854  10.091  0.00  0.00    +0.000 C 
BRANCH   8   9
ATOM      9  C   UNL     1      44.747   4.199   8.705  0.00  0.00    +0.000 C 
BRANCH   9  10
ATOM     10  C   UNL     1      45.747   3.202   8.150  0.00  0.00    +0.000 A 
ATOM     11  C   UNL     1      45.639   1.853   8.533  0.00  0.00    +0.000 A 
ATOM     12  C   UNL     1      46.470   0.879   7.976  0.00  0.00    +0.000 A 
ATOM     13  C   UNL     1      47.420   1.237   7.024  0.00  0.00    +0.000 A 
ATOM     14  C   UNL     1      47.543   2.569   6.634  0.00  0.00    +0.000 A 
ATOM     15  C   UNL     1      46.713   3.544   7.192  0.00  0.00    +0.000 A 
ENDBRANCH   9  10
BRANCH   9  16
ATOM     16  O   UNL     1      45.427   5.457   8.749  0.00  0.00    +0.000 OA
ATOM     17  H   UNL     1      45.498   5.711   9.684  0.00  0.00    +0.000 HD
ENDBRANCH   9  16
ENDBRANCH   8   9
ENDBRANCH   5   8
ENDBRANCH   1   2
BRANCH   1  20
ATOM     18  O   UNL     1      49.870   6.488  15.375  0.00  0.00    +0.000 OA
ATOM     19  C   UNL     1      48.990   7.238  14.960  0.00  0.00    +0.000 C 
ATOM     20  N   UNL     1      47.727   6.791  14.678  0.00  0.00    +0.000 N 
ATOM     21  H   UNL     1      47.091   7.383  14.154  0.00  0.00    +0.000 HD
BRANCH  19  22
ATOM     22  C   UNL     1      49.239   8.672  14.772  0.00  0.00    +0.000 A 
ATOM     23  C   UNL     1      49.615   9.451  15.856  0.00  0.00    +0.000 A 
ATOM     24  S   UNL     1      49.884  11.087  15.459  0.00  0.00    +0.000 S 
ATOM     25  C   UNL     1      49.549  10.800  13.815  0.00  0.00    +0.000 A 
ATOM     26  N   UNL     1      49.649  11.798  12.897  0.00  0.00    +0.000 NA
ATOM     27  C   UNL     1      49.407  11.430  11.682  0.00  0.00    +0.000 A 
ATOM     28  N   UNL     1      49.058  10.160  11.305  0.00  0.00    +0.000 N 
ATOM     29  C   UNL     1      48.903   9.130  12.204  0.00  0.00    +0.000 A 
ATOM     30  O   UNL     1      48.527   8.020  11.843  0.00  0.00    +0.000 OA
ATOM     31  C   UNL     1      49.199   9.483  13.580  0.00  0.00    +0.000 A 
ATOM     32  H   UNL     1      48.859   9.941  10.340  0.00  0.00    +0.000 HD
ENDBRANCH  19  22
ENDBRANCH   1  20
TORSDOF 7
ENDMDL
MODEL 6
REMARK VINA RESULT:    -7.456      2.639      3.372
REMARK INTER + INTRA:         -11.632
REMARK INTER:                 -10.409
REMARK INTRA:                  -1.223
REMARK UNBOUND:                -1.342
REMARK  Name = 
REMARK  7 active torsions:
REMARK  status: ('A' for Active; 'I' for Inactive)
REMARK    1  A    between atoms: C_2  and  C_20
REMARK    2  A    between atoms: N_3  and  C_4
REMARK    3  A    between atoms: C_4  and  C_5
REMARK    4  A    between atoms: C_8  and  C_9
REMARK    5  A    between atoms: C_9  and  C_10
REMARK    6  A    between atoms: C_10  and  O_11
REMARK    7  A    between atoms: C_10  and  C_12
REMARK                            x       y       z     vdW  Elec       q    Type
REMARK                         _______ _______ _______ _____ _____    ______ ____
ROOT
ATOM      1  C   UNL     1      47.402   4.368  15.620  0.00  0.00    +0.000 C 
ENDROOT
BRANCH   1   2
ATOM      2  C   UNL     1      46.860   4.653  14.248  0.00  0.00    +0.000 A 
ATOM      3  C   UNL     1      47.191   5.845  13.595  0.00  0.00    +0.000 A 
ATOM      4  C   UNL     1      46.715   6.109  12.307  0.00  0.00    +0.000 A 
ATOM      5  C   UNL     1      45.893   5.192  11.644  0.00  0.00    +0.000 A 
ATOM      6  C   UNL     1      45.529   4.016  12.320  0.00  0.00    +0.000 A 
ATOM      7  C   UNL     1      46.001   3.752  13.611  0.00  0.00    +0.000 A 
BRANCH   5   8
ATOM      8  C   UNL     1      45.410   5.376  10.215  0.00  0.00    +0.000 C 
BRANCH   8   9
ATOM      9  C   UNL     1      44.633   4.208   9.568  0.00  0.00    +0.000 C 
BRANCH   9  10
ATOM     10  C   UNL     1      45.442   3.308   8.653  0.00  0.00    +0.000 A 
ATOM     11  C   UNL     1      46.246   3.900   7.662  0.00  0.00    +0.000 A 
ATOM     12  C   UNL     1      47.084   3.125   6.858  0.00  0.00    +0.000 A 
ATOM     13  C   UNL     1      47.138   1.746   7.036  0.00  0.00    +0.000 A 
ATOM     14  C   UNL     1      46.347   1.142   8.012  0.00  0.00    +0.000 A 
ATOM     15  C   UNL     1      45.507   1.916   8.815  0.00  0.00    +0.000 A 
ENDBRANCH   9  10
BRANCH   9  16
ATOM     16  O   UNL     1      43.549   4.705   8.777  0.00  0.00    +0.000 OA
ATOM     17  H   UNL     1      43.912   4.928   7.903  0.00  0.00    +0.000 HD
ENDBRANCH   9  16
ENDBRANCH   8   9
ENDBRANCH   5   8
ENDBRANCH   1   2
BRANCH   1  20
ATOM     18  O   UNL     1      49.884   4.997  16.653  0.00  0.00    +0.000 OA
ATOM     19  C   UNL     1      48.994   5.841  16.731  0.00  0.00    +0.000 C 
ATOM     20  N   UNL     1      47.712   5.585  16.326  0.00  0.00    +0.000 N 
ATOM     21  H   UNL     1      47.058   6.353  16.216  0.00  0.00    +0.000 HD
BRANCH  19  22
ATOM     22  C   UNL     1      49.253   7.169  17.298  0.00  0.00    +0.000 A 
ATOM     23  C   UNL     1      50.133   8.030  16.658  0.00  0.00    +0.000 A 
ATOM     24  S   UNL     1      50.301   9.537  17.437  0.00  0.00    +0.000 S 
ATOM     25  C   UNL     1      49.169   9.106  18.633  0.00  0.00    +0.000 A 
ATOM     26  N   UNL     1      48.809   9.987  19.604  0.00  0.00    +0.000 NA
ATOM     27  C   UNL     1      47.911   9.542  20.421  0.00  0.00    +0.000 A 
ATOM     28  N   UNL     1      47.354   8.292  20.364  0.00  0.00    +0.000 N 
ATOM     29  C   UNL     1      47.719   7.354  19.426  0.00  0.00    +0.000 A 
ATOM     30  O   UNL     1      47.248   6.222  19.442  0.00  0.00    +0.000 OA
ATOM     31  C   UNL     1      48.699   7.817  18.462  0.00  0.00    +0.000 A 
ATOM     32  H   UNL     1      46.672   7.996  21.047  0.00  0.00    +0.000 HD
ENDBRANCH  19  22
ENDBRANCH   1  20
TORSDOF 7
ENDMDL
MODEL 7
REMARK VINA RESULT:    -7.325      2.114      2.885
REMARK INTER + INTRA:         -11.451
REMARK INTER:                 -10.394
REMARK INTRA:                  -1.057
REMARK UNBOUND:                -1.342
REMARK  Name = 
REMARK  7 active torsions:
REMARK  status: ('A' for Active; 'I' for Inactive)
REMARK    1  A    between atoms: C_2  and  C_20
REMARK    2  A    between atoms: N_3  and  C_4
REMARK    3  A    between atoms: C_4  and  C_5
REMARK    4  A    between atoms: C_8  and  C_9
REMARK    5  A    between atoms: C_9  and  C_10
REMARK    6  A    between atoms: C_10  and  O_11
REMARK    7  A    between atoms: C_10  and  C_12
REMARK                            x       y       z     vdW  Elec       q    Type
REMARK                         _______ _______ _______ _____ _____    ______ ____
ROOT
ATOM      1  C   UNL     1      48.480   7.441  14.082  0.00  0.00    +0.000 C 
ENDROOT
BRANCH   1   2
ATOM      2  C   UNL     1      47.238   6.732  13.619  0.00  0.00    +0.000 A 
ATOM      3  C   UNL     1      46.211   7.447  12.994  0.00  0.00    +0.000 A 
ATOM      4  C   UNL     1      45.064   6.794  12.535  0.00  0.00    +0.000 A 
ATOM      5  C   UNL     1      44.913   5.412  12.693  0.00  0.00    +0.000 A 
ATOM      6  C   UNL     1      45.927   4.705  13.359  0.00  0.00    +0.000 A 
ATOM      7  C   UNL     1      47.075   5.358  13.822  0.00  0.00    +0.000 A 
BRANCH   5   8
ATOM      8  C   UNL     1      43.733   4.627  12.145  0.00  0.00    +0.000 C 
BRANCH   8   9
ATOM      9  C   UNL     1      44.021   3.236  11.540  0.00  0.00    +0.000 C 
BRANCH   9  10
ATOM     10  C   UNL     1      44.644   3.237  10.156  0.00  0.00    +0.000 A 
ATOM     11  C   UNL     1      45.037   4.465   9.594  0.00  0.00    +0.000 A 
ATOM     12  C   UNL     1      45.704   4.514   8.369  0.00  0.00    +0.000 A 
ATOM     13  C   UNL     1      45.993   3.335   7.687  0.00  0.00    +0.000 A 
ATOM     14  C   UNL     1      45.609   2.110   8.227  0.00  0.00    +0.000 A 
ATOM     15  C   UNL     1      44.941   2.060   9.453  0.00  0.00    +0.000 A 
ENDBRANCH   9  10
BRANCH   9  16
ATOM     16  O   UNL     1      42.811   2.478  11.427  0.00  0.00    +0.000 OA
ATOM     17  H   UNL     1      42.115   2.986  11.875  0.00  0.00    +0.000 HD
ENDBRANCH   9  16
ENDBRANCH   8   9
ENDBRANCH   5   8
ENDBRANCH   1   2
BRANCH   1  20
ATOM     18  O   UNL     1      49.767   5.943  16.011  0.00  0.00    +0.000 OA
ATOM     19  C   UNL     1      49.172   6.956  16.367  0.00  0.00    +0.000 C 
ATOM     20  N   UNL     1      48.434   7.711  15.495  0.00  0.00    +0.000 N 
ATOM     21  H   UNL     1      48.125   8.638  15.772  0.00  0.00    +0.000 HD
BRANCH  19  22
ATOM     22  C   UNL     1      49.192   7.398  17.767  0.00  0.00    +0.000 A 
ATOM     23  C   UNL     1      49.972   8.486  18.132  0.00  0.00    +0.000 A 
ATOM     24  S   UNL     1      49.864   8.878  19.787  0.00  0.00    +0.000 S 
ATOM     25  C   UNL     1      48.735   7.634  20.064  0.00  0.00    +0.000 A 
ATOM     26  N   UNL     1      48.187   7.448  21.294  0.00  0.00    +0.000 NA
ATOM     27  C   UNL     1      47.316   6.495  21.351  0.00  0.00    +0.000 A 
ATOM     28  N   UNL     1      46.956   5.701  20.294  0.00  0.00    +0.000 N 
ATOM     29  C   UNL     1      47.516   5.824  19.043  0.00  0.00    +0.000 A 
ATOM     30  O   UNL     1      47.220   5.056  18.135  0.00  0.00    +0.000 OA
ATOM     31  C   UNL     1      48.475   6.906  18.917  0.00  0.00    +0.000 A 
ATOM     32  H   UNL     1      46.285   4.957  20.409  0.00  0.00    +0.000 HD
ENDBRANCH  19  22
ENDBRANCH   1  20
TORSDOF 7
ENDMDL
MODEL 8
REMARK VINA RESULT:    -7.324      2.909      4.109
REMARK INTER + INTRA:         -11.449
REMARK INTER:                 -10.280
REMARK INTRA:                  -1.169
REMARK UNBOUND:                -1.342
REMARK  Name = 
REMARK  7 active torsions:
REMARK  status: ('A' for Active; 'I' for Inactive)
REMARK    1  A    between atoms: C_2  and  C_20
REMARK    2  A    between atoms: N_3  and  C_4
REMARK    3  A    between atoms: C_4  and  C_5
REMARK    4  A    between atoms: C_8  and  C_9
REMARK    5  A    between atoms: C_9  and  C_10
REMARK    6  A    between atoms: C_10  and  O_11
REMARK    7  A    between atoms: C_10  and  C_12
REMARK                            x       y       z     vdW  Elec       q    Type
REMARK                         _______ _______ _______ _____ _____    ______ ____
ROOT
ATOM      1  C   UNL     1      48.035   4.594  16.014  0.00  0.00    +0.000 C 
ENDROOT
BRANCH   1   2
ATOM      2  C   UNL     1      47.342   4.916  14.720  0.00  0.00    +0.000 A 
ATOM      3  C   UNL     1      47.537   6.158  14.108  0.00  0.00    +0.000 A 
ATOM      4  C   UNL     1      46.920   6.459  12.890  0.00  0.00    +0.000 A 
ATOM      5  C   UNL     1      46.088   5.527  12.258  0.00  0.00    +0.000 A 
ATOM      6  C   UNL     1      45.862   4.298  12.898  0.00  0.00    +0.000 A 
ATOM      7  C   UNL     1      46.476   3.997  14.118  0.00  0.00    +0.000 A 
BRANCH   5   8
ATOM      8  C   UNL     1      45.454   5.755  10.897  0.00  0.00    +0.000 C 
BRANCH   8   9
ATOM      9  C   UNL     1      44.575   4.622  10.320  0.00  0.00    +0.000 C 
BRANCH   9  10
ATOM     10  C   UNL     1      45.228   3.763   9.253  0.00  0.00    +0.000 A 
ATOM     11  C   UNL     1      45.940   4.396   8.219  0.00  0.00    +0.000 A 
ATOM     12  C   UNL     1      46.642   3.651   7.269  0.00  0.00    +0.000 A 
ATOM     13  C   UNL     1      46.647   2.262   7.340  0.00  0.00    +0.000 A 
ATOM     14  C   UNL     1      45.945   1.617   8.357  0.00  0.00    +0.000 A 
ATOM     15  C   UNL     1      45.242   2.361   9.307  0.00  0.00    +0.000 A 
ENDBRANCH   9  10
BRANCH   9  16
ATOM     16  O   UNL     1      43.391   5.161   9.724  0.00  0.00    +0.000 OA
ATOM     17  H   UNL     1      43.044   5.832  10.335  0.00  0.00    +0.000 HD
ENDBRANCH   9  16
ENDBRANCH   8   9
ENDBRANCH   5   8
ENDBRANCH   1   2
BRANCH   1  20
ATOM     18  O   UNL     1      49.821   6.212  17.362  0.00  0.00    +0.000 OA
ATOM     19  C   UNL     1      48.624   6.345  17.603  0.00  0.00    +0.000 C 
ATOM     20  N   UNL     1      47.675   5.529  17.049  0.00  0.00    +0.000 N 
ATOM     21  H   UNL     1      46.695   5.787  17.108  0.00  0.00    +0.000 HD
BRANCH  19  22
ATOM     22  C   UNL     1      48.145   7.375  18.533  0.00  0.00    +0.000 A 
ATOM     23  C   UNL     1      47.929   7.050  19.865  0.00  0.00    +0.000 A 
ATOM     24  S   UNL     1      47.395   8.365  20.809  0.00  0.00    +0.000 S 
ATOM     25  C   UNL     1      47.478   9.424  19.479  0.00  0.00    +0.000 A 
ATOM     26  N   UNL     1      47.190  10.745  19.619  0.00  0.00    +0.000 NA
ATOM     27  C   UNL     1      47.333  11.439  18.538  0.00  0.00    +0.000 A 
ATOM     28  N   UNL     1      47.721  10.929  17.327  0.00  0.00    +0.000 N 
ATOM     29  C   UNL     1      47.980   9.592  17.129  0.00  0.00    +0.000 A 
ATOM     30  O   UNL     1      48.263   9.156  16.019  0.00  0.00    +0.000 OA
ATOM     31  C   UNL     1      47.869   8.775  18.323  0.00  0.00    +0.000 A 
ATOM     32  H   UNL     1      47.792  11.521  16.513  0.00  0.00    +0.000 HD
ENDBRANCH  19  22
ENDBRANCH   1  20
TORSDOF 7
ENDMDL
MODEL 9
REMARK VINA RESULT:    -7.065      1.345      1.910
REMARK INTER + INTRA:         -11.092
REMARK INTER:                 -10.132
REMARK INTRA:                  -0.959
REMARK UNBOUND:                -1.342
REMARK  Name = 
REMARK  7 active torsions:
REMARK  status: ('A' for Active; 'I' for Inactive)
REMARK    1  A    between atoms: C_2  and  C_20
REMARK    2  A    between atoms: N_3  and  C_4
REMARK    3  A    between atoms: C_4  and  C_5
REMARK    4  A    between atoms: C_8  and  C_9
REMARK    5  A    between atoms: C_9  and  C_10
REMARK    6  A    between atoms: C_10  and  O_11
REMARK    7  A    between atoms: C_10  and  C_12
REMARK                            x       y       z     vdW  Elec       q    Type
REMARK                         _______ _______ _______ _____ _____    ______ ____
ROOT
ATOM      1  C   UNL     1      47.945   8.756  13.508  0.00  0.00    +0.000 C 
ENDROOT
BRANCH   1   2
ATOM      2  C   UNL     1      46.967   7.902  12.751  0.00  0.00    +0.000 A 
ATOM      3  C   UNL     1      47.424   6.975  11.809  0.00  0.00    +0.000 A 
ATOM      4  C   UNL     1      46.526   6.155  11.120  0.00  0.00    +0.000 A 
ATOM      5  C   UNL     1      45.149   6.247  11.350  0.00  0.00    +0.000 A 
ATOM      6  C   UNL     1      44.692   7.209  12.265  0.00  0.00    +0.000 A 
ATOM      7  C   UNL     1      45.590   8.033  12.954  0.00  0.00    +0.000 A 
BRANCH   5   8
ATOM      8  C   UNL     1      44.125   5.333  10.699  0.00  0.00    +0.000 C 
BRANCH   8   9
ATOM      9  C   UNL     1      44.444   3.822  10.655  0.00  0.00    +0.000 C 
BRANCH   9  10
ATOM     10  C   UNL     1      45.102   3.326   9.382  0.00  0.00    +0.000 A 
ATOM     11  C   UNL     1      45.487   4.266   8.409  0.00  0.00    +0.000 A 
ATOM     12  C   UNL     1      46.184   3.873   7.265  0.00  0.00    +0.000 A 
ATOM     13  C   UNL     1      46.514   2.535   7.077  0.00  0.00    +0.000 A 
ATOM     14  C   UNL     1      46.139   1.588   8.029  0.00  0.00    +0.000 A 
ATOM     15  C   UNL     1      45.440   1.979   9.173  0.00  0.00    +0.000 A 
ENDBRANCH   9  10
BRANCH   9  16
ATOM     16  O   UNL     1      43.246   3.053  10.805  0.00  0.00    +0.000 OA
ATOM     17  H   UNL     1      42.527   3.563  10.396  0.00  0.00    +0.000 HD
ENDBRANCH   9  16
ENDBRANCH   8   9
ENDBRANCH   5   8
ENDBRANCH   1   2
BRANCH   1  20
ATOM     18  O   UNL     1      49.725   6.923  14.555  0.00  0.00    +0.000 OA
ATOM     19  C   UNL     1      48.981   7.517  15.332  0.00  0.00    +0.000 C 
ATOM     20  N   UNL     1      48.010   8.377  14.895  0.00  0.00    +0.000 N 
ATOM     21  H   UNL     1      47.554   8.996  15.558  0.00  0.00    +0.000 HD
BRANCH  19  22
ATOM     22  C   UNL     1      49.074   7.309  16.782  0.00  0.00    +0.000 A 
ATOM     23  C   UNL     1      49.324   8.390  17.616  0.00  0.00    +0.000 A 
ATOM     24  S   UNL     1      49.378   7.977  19.269  0.00  0.00    +0.000 S 
ATOM     25  C   UNL     1      49.025   6.347  18.929  0.00  0.00    +0.000 A 
ATOM     26  N   UNL     1      48.879   5.440  19.932  0.00  0.00    +0.000 NA
ATOM     27  C   UNL     1      48.573   4.249  19.533  0.00  0.00    +0.000 A 
ATOM     28  N   UNL     1      48.416   3.880  18.223  0.00  0.00    +0.000 N 
ATOM     29  C   UNL     1      48.596   4.753  17.174  0.00  0.00    +0.000 A 
ATOM     30  O   UNL     1      48.513   4.376  16.011  0.00  0.00    +0.000 OA
ATOM     31  C   UNL     1      48.907   6.113  17.571  0.00  0.00    +0.000 A 
ATOM     32  H   UNL     1      48.198   2.927  17.975  0.00  0.00    +0.000 HD
ENDBRANCH  19  22
ENDBRANCH   1  20
TORSDOF 7
ENDMDL
