MODEL 1
REMARK VINA RESULT:    -8.086      0.000      0.000
REMARK INTER + INTRA:         -12.160
REMARK INTER:                 -10.923
REMARK INTRA:                  -1.238
REMARK UNBOUND:                -1.238
REMARK  Name = 
REMARK  7 active torsions:
REMARK  status: ('A' for Active; 'I' for Inactive)
REMARK    1  A    between atoms: C_1  and  C_2
REMARK    2  A    between atoms: C_6  and  C_7
REMARK    3  A    between atoms: N_9  and  C_10
REMARK    4  A    between atoms: C_10  and  C_11
REMARK    5  A    between atoms: C_14  and  C_15
REMARK    6  A    between atoms: C_15  and  N_16
REMARK    7  A    between atoms: C_17  and  C_19
REMARK                            x       y       z     vdW  Elec       q    Type
REMARK                         _______ _______ _______ _____ _____    ______ ____
ROOT
ATOM      1  C   UNL     1      44.780   5.836  10.836  0.00  0.00    +0.000 A 
ATOM      2  C   UNL     1      44.252   6.339  12.032  0.00  0.00    +0.000 A 
ATOM      3  C   UNL     1      45.044   7.097  12.906  0.00  0.00    +0.000 A 
ATOM      4  C   UNL     1      46.378   7.387  12.590  0.00  0.00    +0.000 A 
ATOM      5  C   UNL     1      46.909   6.872  11.399  0.00  0.00    +0.000 A 
ATOM      6  C   UNL     1      46.117   6.117  10.525  0.00  0.00    +0.000 A 
ENDROOT
BRANCH   1   7
ATOM      7  C   UNL     1      43.936   4.979   9.926  0.00  0.00    +0.000 C 
BRANCH   7  10
ATOM      8  C   UNL     1      44.990   2.869   9.255  0.00  0.00    +0.000 C 
ATOM      9  O   UNL     1      44.620   2.288  10.271  0.00  0.00    +0.000 OA
ATOM     10  N   UNL     1      44.703   4.196   8.993  0.00  0.00    +0.000 N 
ATOM     11  H   UNL     1      45.066   4.594   8.133  0.00  0.00    +0.000 HD
BRANCH   8  17
ATOM     12  C   UNL     1      47.406   2.886   4.862  0.00  0.00    +0.000 C 
ATOM     13  C   UNL     1      46.953   2.175   6.101  0.00  0.00    +0.000 A 
ATOM     14  C   UNL     1      47.262   0.832   6.326  0.00  0.00    +0.000 A 
ATOM     15  C   UNL     1      46.814   0.227   7.493  0.00  0.00    +0.000 A 
ATOM     16  N   UNL     1      46.084   0.851   8.439  0.00  0.00    +0.000 NA
ATOM     17  C   UNL     1      45.794   2.160   8.205  0.00  0.00    +0.000 A 
ATOM     18  C   UNL     1      46.198   2.851   7.064  0.00  0.00    +0.000 A 
ENDBRANCH   8  17
ENDBRANCH   7  10
ENDBRANCH   1   7
BRANCH   4  19
ATOM     19  C   UNL     1      47.239   8.225  13.504  0.00  0.00    +0.000 C 
BRANCH  19  20
ATOM     20  N   UNL     1      47.613   7.511  14.700  0.00  0.00    +0.000 N 
ATOM     21  C   UNL     1      48.823   6.870  14.797  0.00  0.00    +0.000 C 
ATOM     22  O   UNL     1      49.654   6.902  13.894  0.00  0.00    +0.000 OA
ATOM     23  H   UNL     1      46.861   7.246  15.328  0.00  0.00    +0.000 HD
BRANCH  21  24
ATOM     24  C   UNL     1      49.100   6.187  16.069  0.00  0.00    +0.000 A 
ATOM     25  C   UNL     1      50.122   6.644  16.893  0.00  0.00    +0.000 A 
ATOM     26  S   UNL     1      50.266   5.766  18.349  0.00  0.00    +0.000 S 
ATOM     27  C   UNL     1      49.006   4.714  17.904  0.00  0.00    +0.000 A 
ATOM     28  N   UNL     1      48.627   3.686  18.716  0.00  0.00    +0.000 NA
ATOM     29  C   UNL     1      47.676   2.955  18.237  0.00  0.00    +0.000 A 
ATOM     30  N   UNL     1      47.061   3.163  17.031  0.00  0.00    +0.000 N 
ATOM     31  C   UNL     1      47.390   4.203  16.197  0.00  0.00    +0.000 A 
ATOM     32  O   UNL     1      46.777   4.389  15.143  0.00  0.00    +0.000 OA
ATOM     33  C   UNL     1      48.465   5.046  16.677  0.00  0.00    +0.000 A 
ATOM     34  H   UNL     1      46.310   2.562  16.720  0.00  0.00    +0.000 HD
ENDBRANCH  21  24
ENDBRANCH  19  20
ENDBRANCH   4  19
TORSDOF 6
ENDMDL
MODEL 2
REMARK VINA RESULT:    -7.489      1.289      1.764
REMARK INTER + INTRA:         -11.353
REMARK INTER:                 -10.439
REMARK INTRA:                  -0.914
REMARK UNBOUND:                -1.238
REMARK  Name = 
REMARK  7 active torsions:
REMARK  status: ('A' for Active; 'I' for Inactive)
REMARK    1  A    between atoms: C_1  and  C_2
REMARK    2  A    between atoms: C_6  and  C_7
REMARK    3  A    between atoms: N_9  and  C_10
REMARK    4  A    between atoms: C_10  and  C_11
REMARK    5  A    between atoms: C_14  and  C_15
REMARK    6  A    between atoms: C_15  and  N_16
REMARK    7  A    between atoms: C_17  and  C_19
REMARK                            x       y       z     vdW  Elec       q    Type
REMARK                         _______ _______ _______ _____ _____    ______ ____
ROOT
ATOM      1  C   UNL     1      45.474   6.892  11.538  0.00  0.00    +0.000 A 
ATOM      2  C   UNL     1      45.037   8.059  12.179  0.00  0.00    +0.000 A 
ATOM      3  C   UNL     1      45.869   8.743  13.076  0.00  0.00    +0.000 A 
ATOM      4  C   UNL     1      47.168   8.286  13.334  0.00  0.00    +0.000 A 
ATOM      5  C   UNL     1      47.601   7.112  12.703  0.00  0.00    +0.000 A 
ATOM      6  C   UNL     1      46.770   6.430  11.805  0.00  0.00    +0.000 A 
ENDROOT
BRANCH   1   7
ATOM      7  C   UNL     1      44.555   6.133  10.615  0.00  0.00    +0.000 C 
BRANCH   7  10
ATOM      8  C   UNL     1      44.850   4.025   9.399  0.00  0.00    +0.000 C 
ATOM      9  O   UNL     1      43.908   3.488   9.974  0.00  0.00    +0.000 OA
ATOM     10  N   UNL     1      45.248   5.326   9.644  0.00  0.00    +0.000 N 
ATOM     11  H   UNL     1      46.049   5.678   9.130  0.00  0.00    +0.000 HD
BRANCH   8  17
ATOM     12  C   UNL     1      46.836  -0.228   7.635  0.00  0.00    +0.000 C 
ATOM     13  C   UNL     1      46.595   1.247   7.522  0.00  0.00    +0.000 A 
ATOM     14  C   UNL     1      47.101   1.988   6.453  0.00  0.00    +0.000 A 
ATOM     15  C   UNL     1      46.845   3.352   6.402  0.00  0.00    +0.000 A 
ATOM     16  N   UNL     1      46.136   4.027   7.329  0.00  0.00    +0.000 NA
ATOM     17  C   UNL     1      45.649   3.288   8.364  0.00  0.00    +0.000 A 
ATOM     18  C   UNL     1      45.855   1.916   8.501  0.00  0.00    +0.000 A 
ENDBRANCH   8  17
ENDBRANCH   7  10
ENDBRANCH   1   7
BRANCH   4  19
ATOM     19  C   UNL     1      48.089   9.025  14.275  0.00  0.00    +0.000 C 
BRANCH  19  20
ATOM     20  N   UNL     1      48.237   8.341  15.536  0.00  0.00    +0.000 N 
ATOM     21  C   UNL     1      49.339   7.566  15.799  0.00  0.00    +0.000 C 
ATOM     22  O   UNL     1      50.261   7.446  14.997  0.00  0.00    +0.000 OA
ATOM     23  H   UNL     1      47.394   8.205  16.084  0.00  0.00    +0.000 HD
BRANCH  21  24
ATOM     24  C   UNL     1      49.387   6.929  17.124  0.00  0.00    +0.000 A 
ATOM     25  C   UNL     1      49.916   7.621  18.207  0.00  0.00    +0.000 A 
ATOM     26  S   UNL     1      49.844   6.749  19.672  0.00  0.00    +0.000 S 
ATOM     27  C   UNL     1      49.155   5.400  18.900  0.00  0.00    +0.000 A 
ATOM     28  N   UNL     1      48.857   4.266  19.596  0.00  0.00    +0.000 NA
ATOM     29  C   UNL     1      48.364   3.314  18.873  0.00  0.00    +0.000 A 
ATOM     30  N   UNL     1      48.128   3.396  17.527  0.00  0.00    +0.000 N 
ATOM     31  C   UNL     1      48.384   4.529  16.793  0.00  0.00    +0.000 A 
ATOM     32  O   UNL     1      48.109   4.582  15.593  0.00  0.00    +0.000 OA
ATOM     33  C   UNL     1      48.956   5.622  17.550  0.00  0.00    +0.000 A 
ATOM     34  H   UNL     1      47.725   2.619  17.022  0.00  0.00    +0.000 HD
ENDBRANCH  21  24
ENDBRANCH  19  20
ENDBRANCH   4  19
TORSDOF 6
ENDMDL
MODEL 3
REMARK VINA RESULT:    -7.312      4.494      7.602
REMARK INTER + INTRA:         -11.114
REMARK INTER:                 -10.106
REMARK INTRA:                  -1.008
REMARK UNBOUND:                -1.238
REMARK  Name = 
REMARK  7 active torsions:
REMARK  status: ('A' for Active; 'I' for Inactive)
REMARK    1  A    between atoms: C_1  and  C_2
REMARK    2  A    between atoms: C_6  and  C_7
REMARK    3  A    between atoms: N_9  and  C_10
REMARK    4  A    between atoms: C_10  and  C_11
REMARK    5  A    between atoms: C_14  and  C_15
REMARK    6  A    between atoms: C_15  and  N_16
REMARK    7  A    between atoms: C_17  and  C_19
REMARK                            x       y       z     vdW  Elec       q    Type
REMARK                         _______ _______ _______ _____ _____    ______ ____
ROOT
ATOM      1  C   UNL     1      44.857   9.171  11.813  0.00  0.00    +0.000 A 
ATOM      2  C   UNL     1      45.860   9.066  12.786  0.00  0.00    +0.000 A 
ATOM      3  C   UNL     1      46.313   7.813  13.221  0.00  0.00    +0.000 A 
ATOM      4  C   UNL     1      45.787   6.634  12.674  0.00  0.00    +0.000 A 
ATOM      5  C   UNL     1      44.775   6.740  11.710  0.00  0.00    +0.000 A 
ATOM      6  C   UNL     1      44.325   7.992  11.274  0.00  0.00    +0.000 A 
ENDROOT
BRANCH   1   7
ATOM      7  C   UNL     1      44.340  10.521  11.387  0.00  0.00    +0.000 C 
BRANCH   7  10
ATOM      8  C   UNL     1      41.919  10.909  11.363  0.00  0.00    +0.000 C 
ATOM      9  O   UNL     1      41.815  10.589  10.183  0.00  0.00    +0.000 OA
ATOM     10  N   UNL     1      43.120  10.908  12.047  0.00  0.00    +0.000 N 
ATOM     11  H   UNL     1      43.109  11.204  13.018  0.00  0.00    +0.000 HD
BRANCH   8  17
ATOM     12  C   UNL     1      36.965  10.877  12.135  0.00  0.00    +0.000 C 
ATOM     13  C   UNL     1      38.346  11.308  12.528  0.00  0.00    +0.000 A 
ATOM     14  C   UNL     1      38.568  12.111  13.648  0.00  0.00    +0.000 A 
ATOM     15  C   UNL     1      39.870  12.478  13.962  0.00  0.00    +0.000 A 
ATOM     16  N   UNL     1      40.955  12.114  13.249  0.00  0.00    +0.000 NA
ATOM     17  C   UNL     1      40.719  11.329  12.161  0.00  0.00    +0.000 A 
ATOM     18  C   UNL     1      39.449  10.912  11.767  0.00  0.00    +0.000 A 
ENDBRANCH   8  17
ENDBRANCH   7  10
ENDBRANCH   1   7
BRANCH   4  19
ATOM     19  C   UNL     1      46.282   5.277  13.110  0.00  0.00    +0.000 C 
BRANCH  19  20
ATOM     20  N   UNL     1      46.833   5.302  14.442  0.00  0.00    +0.000 N 
ATOM     21  C   UNL     1      47.340   4.168  15.024  0.00  0.00    +0.000 C 
ATOM     22  O   UNL     1      47.382   3.092  14.433  0.00  0.00    +0.000 OA
ATOM     23  H   UNL     1      46.567   6.085  15.031  0.00  0.00    +0.000 HD
BRANCH  21  24
ATOM     24  C   UNL     1      47.887   4.319  16.381  0.00  0.00    +0.000 A 
ATOM     25  C   UNL     1      47.472   3.464  17.395  0.00  0.00    +0.000 A 
ATOM     26  S   UNL     1      48.248   3.751  18.887  0.00  0.00    +0.000 S 
ATOM     27  C   UNL     1      49.125   5.059  18.243  0.00  0.00    +0.000 A 
ATOM     28  N   UNL     1      49.982   5.782  19.018  0.00  0.00    +0.000 NA
ATOM     29  C   UNL     1      50.557   6.761  18.401  0.00  0.00    +0.000 A 
ATOM     30  N   UNL     1      50.366   7.075  17.082  0.00  0.00    +0.000 N 
ATOM     31  C   UNL     1      49.536   6.354  16.258  0.00  0.00    +0.000 A 
ATOM     32  O   UNL     1      49.430   6.636  15.062  0.00  0.00    +0.000 OA
ATOM     33  C   UNL     1      48.850   5.255  16.903  0.00  0.00    +0.000 A 
ATOM     34  H   UNL     1      50.859   7.846  16.654  0.00  0.00    +0.000 HD
ENDBRANCH  21  24
ENDBRANCH  19  20
ENDBRANCH   4  19
TORSDOF 6
ENDMDL
MODEL 4
REMARK VINA RESULT:    -7.152      4.365      7.083
REMARK INTER + INTRA:         -10.898
REMARK INTER:                 -10.134
REMARK INTRA:                  -0.764
REMARK UNBOUND:                -1.238
REMARK  Name = 
REMARK  7 active torsions:
REMARK  status: ('A' for Active; 'I' for Inactive)
REMARK    1  A    between atoms: C_1  and  C_2
REMARK    2  A    between atoms: C_6  and  C_7
REMARK    3  A    between atoms: N_9  and  C_10
REMARK    4  A    between atoms: C_10  and  C_11
REMARK    5  A    between atoms: C_14  and  C_15
REMARK    6  A    between atoms: C_15  and  N_16
REMARK    7  A    between atoms: C_17  and  C_19
REMARK                            x       y       z     vdW  Elec       q    Type
REMARK                         _______ _______ _______ _____ _____    ______ ____
ROOT
ATOM      1  C   UNL     1      45.146   7.683  11.928  0.00  0.00    +0.000 A 
ATOM      2  C   UNL     1      44.328   6.547  11.998  0.00  0.00    +0.000 A 
ATOM      3  C   UNL     1      44.748   5.399  12.683  0.00  0.00    +0.000 A 
ATOM      4  C   UNL     1      45.989   5.369  13.333  0.00  0.00    +0.000 A 
ATOM      5  C   UNL     1      46.812   6.501  13.252  0.00  0.00    +0.000 A 
ATOM      6  C   UNL     1      46.391   7.650  12.569  0.00  0.00    +0.000 A 
ENDROOT
BRANCH   1   7
ATOM      7  C   UNL     1      44.709   8.896  11.146  0.00  0.00    +0.000 C 
BRANCH   7  10
ATOM      8  C   UNL     1      42.644  10.181  10.833  0.00  0.00    +0.000 C 
ATOM      9  O   UNL     1      42.802  10.259   9.618  0.00  0.00    +0.000 OA
ATOM     10  N   UNL     1      43.528   9.529  11.672  0.00  0.00    +0.000 N 
ATOM     11  H   UNL     1      43.320   9.530  12.666  0.00  0.00    +0.000 HD
BRANCH   8  17
ATOM     12  C   UNL     1      37.724  10.225  11.797  0.00  0.00    +0.000 C 
ATOM     13  C   UNL     1      39.093  10.812  11.962  0.00  0.00    +0.000 A 
ATOM     14  C   UNL     1      39.310  11.949  12.743  0.00  0.00    +0.000 A 
ATOM     15  C   UNL     1      40.601  12.447  12.858  0.00  0.00    +0.000 A 
ATOM     16  N   UNL     1      41.680  11.907  12.256  0.00  0.00    +0.000 NA
ATOM     17  C   UNL     1      41.450  10.798  11.501  0.00  0.00    +0.000 A 
ATOM     18  C   UNL     1      40.191  10.227  11.324  0.00  0.00    +0.000 A 
ENDBRANCH   8  17
ENDBRANCH   7  10
ENDBRANCH   1   7
BRANCH   4  19
ATOM     19  C   UNL     1      46.446   4.152  14.099  0.00  0.00    +0.000 C 
BRANCH  19  20
ATOM     20  N   UNL     1      47.525   4.455  15.005  0.00  0.00    +0.000 N 
ATOM     21  C   UNL     1      47.489   4.051  16.316  0.00  0.00    +0.000 C 
ATOM     22  O   UNL     1      46.562   3.385  16.770  0.00  0.00    +0.000 OA
ATOM     23  H   UNL     1      48.147   5.212  14.738  0.00  0.00    +0.000 HD
BRANCH  21  24
ATOM     24  C   UNL     1      48.653   4.406  17.142  0.00  0.00    +0.000 A 
ATOM     25  C   UNL     1      48.685   5.627  17.805  0.00  0.00    +0.000 A 
ATOM     26  S   UNL     1      50.085   5.849  18.755  0.00  0.00    +0.000 S 
ATOM     27  C   UNL     1      50.720   4.347  18.270  0.00  0.00    +0.000 A 
ATOM     28  N   UNL     1      51.937   3.920  18.713  0.00  0.00    +0.000 NA
ATOM     29  C   UNL     1      52.301   2.775  18.240  0.00  0.00    +0.000 A 
ATOM     30  N   UNL     1      51.557   2.010  17.381  0.00  0.00    +0.000 N 
ATOM     31  C   UNL     1      50.313   2.387  16.935  0.00  0.00    +0.000 A 
ATOM     32  O   UNL     1      49.652   1.648  16.204  0.00  0.00    +0.000 OA
ATOM     33  C   UNL     1      49.863   3.675  17.419  0.00  0.00    +0.000 A 
ATOM     34  H   UNL     1      51.893   1.113  17.060  0.00  0.00    +0.000 HD
ENDBRANCH  21  24
ENDBRANCH  19  20
ENDBRANCH   4  19
TORSDOF 6
ENDMDL
MODEL 5
REMARK VINA RESULT:    -6.773      1.922      2.047
REMARK INTER + INTRA:         -10.387
REMARK INTER:                  -9.632
REMARK INTRA:                  -0.755
REMARK UNBOUND:                -1.238
REMARK  Name = 
REMARK  7 active torsions:
REMARK  status: ('A' for Active; 'I' for Inactive)
REMARK    1  A    between atoms: C_1  and  C_2
REMARK    2  A    between atoms: C_6  and  C_7
REMARK    3  A    between atoms: N_9  and  C_10
REMARK    4  A    between atoms: C_10  and  C_11
REMARK    5  A    between atoms: C_14  and  C_15
REMARK    6  A    between atoms: C_15  and  N_16
REMARK    7  A    between atoms: C_17  and  C_19
REMARK                            x       y       z     vdW  Elec       q    Type
REMARK                         _______ _______ _______ _____ _____    ______ ____
ROOT
ATOM      1  C   UNL     1      45.205   6.346  11.238  0.00  0.00    +0.000 A 
ATOM      2  C   UNL     1      44.717   7.444  11.959  0.00  0.00    +0.000 A 
ATOM      3  C   UNL     1      45.518   8.095  12.907  0.00  0.00    +0.000 A 
ATOM      4  C   UNL     1      46.834   7.675  13.139  0.00  0.00    +0.000 A 
ATOM      5  C   UNL     1      47.317   6.569  12.427  0.00  0.00    +0.000 A 
ATOM      6  C   UNL     1      46.518   5.920  11.477  0.00  0.00    +0.000 A 
ENDROOT
BRANCH   1   7
ATOM      7  C   UNL     1      44.320   5.619  10.256  0.00  0.00    +0.000 C 
BRANCH   7  10
ATOM      8  C   UNL     1      44.768   3.384   9.354  0.00  0.00    +0.000 C 
ATOM      9  O   UNL     1      43.921   2.857  10.069  0.00  0.00    +0.000 OA
ATOM     10  N   UNL     1      45.038   4.739   9.372  0.00  0.00    +0.000 N 
ATOM     11  H   UNL     1      45.768   5.082   8.754  0.00  0.00    +0.000 HD
BRANCH   8  17
ATOM     12  C   UNL     1      47.347   3.003   5.072  0.00  0.00    +0.000 C 
ATOM     13  C   UNL     1      46.818   2.398   6.336  0.00  0.00    +0.000 A 
ATOM     14  C   UNL     1      47.062   1.063   6.663  0.00  0.00    +0.000 A 
ATOM     15  C   UNL     1      46.545   0.557   7.849  0.00  0.00    +0.000 A 
ATOM     16  N   UNL     1      45.807   1.273   8.721  0.00  0.00    +0.000 NA
ATOM     17  C   UNL     1      45.581   2.573   8.387  0.00  0.00    +0.000 A 
ATOM     18  C   UNL     1      46.056   3.168   7.220  0.00  0.00    +0.000 A 
ENDBRANCH   8  17
ENDBRANCH   7  10
ENDBRANCH   1   7
BRANCH   4  19
ATOM     19  C   UNL     1      47.721   8.381  14.136  0.00  0.00    +0.000 C 
BRANCH  19  20
ATOM     20  N   UNL     1      48.250   7.477  15.127  0.00  0.00    +0.000 N 
ATOM     21  C   UNL     1      48.859   7.944  16.264  0.00  0.00    +0.000 C 
ATOM     22  O   UNL     1      48.951   9.144  16.511  0.00  0.00    +0.000 OA
ATOM     23  H   UNL     1      48.427   6.523  14.826  0.00  0.00    +0.000 HD
BRANCH  21  24
ATOM     24  C   UNL     1      49.348   6.928  17.208  0.00  0.00    +0.000 A 
ATOM     25  C   UNL     1      50.413   6.108  16.855  0.00  0.00    +0.000 A 
ATOM     26  S   UNL     1      50.878   5.026  18.089  0.00  0.00    +0.000 S 
ATOM     27  C   UNL     1      49.639   5.578  19.116  0.00  0.00    +0.000 A 
ATOM     28  N   UNL     1      49.458   5.037  20.355  0.00  0.00    +0.000 NA
ATOM     29  C   UNL     1      48.463   5.536  21.010  0.00  0.00    +0.000 A 
ATOM     30  N   UNL     1      47.644   6.533  20.551  0.00  0.00    +0.000 N 
ATOM     31  C   UNL     1      47.810   7.127  19.324  0.00  0.00    +0.000 A 
ATOM     32  O   UNL     1      47.085   8.058  18.966  0.00  0.00    +0.000 OA
ATOM     33  C   UNL     1      48.901   6.592  18.536  0.00  0.00    +0.000 A 
ATOM     34  H   UNL     1      46.891   6.892  21.122  0.00  0.00    +0.000 HD
ENDBRANCH  21  24
ENDBRANCH  19  20
ENDBRANCH   4  19
TORSDOF 6
ENDMDL
MODEL 6
REMARK VINA RESULT:    -6.557      4.754     10.685
REMARK INTER + INTRA:         -10.094
REMARK INTER:                  -9.055
REMARK INTRA:                  -1.039
REMARK UNBOUND:                -1.238
REMARK  Name = 
REMARK  7 active torsions:
REMARK  status: ('A' for Active; 'I' for Inactive)
REMARK    1  A    between atoms: C_1  and  C_2
REMARK    2  A    between atoms: C_6  and  C_7
REMARK    3  A    between atoms: N_9  and  C_10
REMARK    4  A    between atoms: C_10  and  C_11
REMARK    5  A    between atoms: C_14  and  C_15
REMARK    6  A    between atoms: C_15  and  N_16
REMARK    7  A    between atoms: C_17  and  C_19
REMARK                            x       y       z     vdW  Elec       q    Type
REMARK                         _______ _______ _______ _____ _____    ______ ____
ROOT
ATOM      1  C   UNL     1      48.256   6.593  19.521  0.00  0.00    +0.000 A 
ATOM      2  C   UNL     1      47.048   5.923  19.287  0.00  0.00    +0.000 A 
ATOM      3  C   UNL     1      46.897   5.078  18.179  0.00  0.00    +0.000 A 
ATOM      4  C   UNL     1      47.961   4.867  17.292  0.00  0.00    +0.000 A 
ATOM      5  C   UNL     1      49.165   5.547  17.520  0.00  0.00    +0.000 A 
ATOM      6  C   UNL     1      49.317   6.390  18.629  0.00  0.00    +0.000 A 
ENDROOT
BRANCH   1   7
ATOM      7  C   UNL     1      48.394   7.539  20.687  0.00  0.00    +0.000 C 
BRANCH   7  10
ATOM      8  C   UNL     1      47.747   9.840  20.136  0.00  0.00    +0.000 C 
ATOM      9  O   UNL     1      48.838  10.094  19.634  0.00  0.00    +0.000 OA
ATOM     10  N   UNL     1      47.430   8.609  20.681  0.00  0.00    +0.000 N 
ATOM     11  H   UNL     1      46.507   8.498  21.087  0.00  0.00    +0.000 HD
BRANCH   8  17
ATOM     12  C   UNL     1      43.332  11.435  21.898  0.00  0.00    +0.000 C 
ATOM     13  C   UNL     1      44.544  11.631  21.038  0.00  0.00    +0.000 A 
ATOM     14  C   UNL     1      44.707  12.778  20.258  0.00  0.00    +0.000 A 
ATOM     15  C   UNL     1      45.851  12.904  19.481  0.00  0.00    +0.000 A 
ATOM     16  N   UNL     1      46.832  11.981  19.419  0.00  0.00    +0.000 NA
ATOM     17  C   UNL     1      46.658  10.871  20.188  0.00  0.00    +0.000 A 
ATOM     18  C   UNL     1      45.544  10.655  20.997  0.00  0.00    +0.000 A 
ENDBRANCH   8  17
ENDBRANCH   7  10
ENDBRANCH   1   7
BRANCH   4  19
ATOM     19  C   UNL     1      47.826   3.939  16.109  0.00  0.00    +0.000 C 
BRANCH  19  20
ATOM     20  N   UNL     1      46.905   4.448  15.123  0.00  0.00    +0.000 N 
ATOM     21  C   UNL     1      47.303   5.368  14.186  0.00  0.00    +0.000 C 
ATOM     22  O   UNL     1      48.460   5.774  14.117  0.00  0.00    +0.000 OA
ATOM     23  H   UNL     1      45.916   4.343  15.325  0.00  0.00    +0.000 HD
BRANCH  21  24
ATOM     24  C   UNL     1      46.280   5.804  13.224  0.00  0.00    +0.000 A 
ATOM     25  C   UNL     1      46.078   7.160  12.993  0.00  0.00    +0.000 A 
ATOM     26  S   UNL     1      44.890   7.480  11.810  0.00  0.00    +0.000 S 
ATOM     27  C   UNL     1      44.568   5.822  11.606  0.00  0.00    +0.000 A 
ATOM     28  N   UNL     1      43.613   5.392  10.733  0.00  0.00    +0.000 NA
ATOM     29  C   UNL     1      43.461   4.110  10.703  0.00  0.00    +0.000 A 
ATOM     30  N   UNL     1      44.182   3.218  11.452  0.00  0.00    +0.000 N 
ATOM     31  C   UNL     1      45.174   3.605  12.319  0.00  0.00    +0.000 A 
ATOM     32  O   UNL     1      45.837   2.770  12.937  0.00  0.00    +0.000 OA
ATOM     33  C   UNL     1      45.375   5.036  12.407  0.00  0.00    +0.000 A 
ATOM     34  H   UNL     1      44.024   2.224  11.369  0.00  0.00    +0.000 HD
ENDBRANCH  21  24
ENDBRANCH  19  20
ENDBRANCH   4  19
TORSDOF 6
ENDMDL
MODEL 7
REMARK VINA RESULT:    -6.364      5.215      7.893
REMARK INTER + INTRA:          -9.834
REMARK INTER:                  -8.970
REMARK INTRA:                  -0.864
REMARK UNBOUND:                -1.238
REMARK  Name = 
REMARK  7 active torsions:
REMARK  status: ('A' for Active; 'I' for Inactive)
REMARK    1  A    between atoms: C_1  and  C_2
REMARK    2  A    between atoms: C_6  and  C_7
REMARK    3  A    between atoms: N_9  and  C_10
REMARK    4  A    between atoms: C_10  and  C_11
REMARK    5  A    between atoms: C_14  and  C_15
REMARK    6  A    between atoms: C_15  and  N_16
REMARK    7  A    between atoms: C_17  and  C_19
REMARK                            x       y       z     vdW  Elec       q    Type
REMARK                         _______ _______ _______ _____ _____    ______ ____
ROOT
ATOM      1  C   UNL     1      50.474   8.950  11.454  0.00  0.00    +0.000 A 
ATOM      2  C   UNL     1      49.544   9.999  11.469  0.00  0.00    +0.000 A 
ATOM      3  C   UNL     1      48.208   9.771  11.827  0.00  0.00    +0.000 A 
ATOM      4  C   UNL     1      47.777   8.491  12.200  0.00  0.00    +0.000 A 
ATOM      5  C   UNL     1      48.704   7.440  12.172  0.00  0.00    +0.000 A 
ATOM      6  C   UNL     1      50.040   7.668  11.817  0.00  0.00    +0.000 A 
ENDROOT
BRANCH   1   7
ATOM      7  C   UNL     1      51.897   9.193  11.019  0.00  0.00    +0.000 C 
BRANCH   7  10
ATOM      8  C   UNL     1      53.538   8.602   9.296  0.00  0.00    +0.000 C 
ATOM      9  O   UNL     1      54.394   9.345   9.766  0.00  0.00    +0.000 OA
ATOM     10  N   UNL     1      52.276   8.456   9.842  0.00  0.00    +0.000 N 
ATOM     11  H   UNL     1      51.630   7.829   9.373  0.00  0.00    +0.000 HD
BRANCH   8  17
ATOM     12  C   UNL     1      53.301   4.245   6.827  0.00  0.00    +0.000 C 
ATOM     13  C   UNL     1      53.694   5.690   6.893  0.00  0.00    +0.000 A 
ATOM     14  C   UNL     1      54.326   6.323   5.821  0.00  0.00    +0.000 A 
ATOM     15  C   UNL     1      54.666   7.664   5.941  0.00  0.00    +0.000 A 
ATOM     16  N   UNL     1      54.432   8.412   7.038  0.00  0.00    +0.000 NA
ATOM     17  C   UNL     1      53.813   7.779   8.072  0.00  0.00    +0.000 A 
ATOM     18  C   UNL     1      53.436   6.437   8.045  0.00  0.00    +0.000 A 
ENDBRANCH   8  17
ENDBRANCH   7  10
ENDBRANCH   1   7
BRANCH   4  19
ATOM     19  C   UNL     1      46.349   8.232  12.615  0.00  0.00    +0.000 C 
BRANCH  19  20
ATOM     20  N   UNL     1      45.936   6.882  12.321  0.00  0.00    +0.000 N 
ATOM     21  C   UNL     1      44.792   6.628  11.607  0.00  0.00    +0.000 C 
ATOM     22  O   UNL     1      44.089   7.528  11.156  0.00  0.00    +0.000 OA
ATOM     23  H   UNL     1      46.333   6.147  12.897  0.00  0.00    +0.000 HD
BRANCH  21  24
ATOM     24  C   UNL     1      44.479   5.213  11.357  0.00  0.00    +0.000 A 
ATOM     25  C   UNL     1      43.717   4.499  12.275  0.00  0.00    +0.000 A 
ATOM     26  S   UNL     1      43.410   2.889  11.798  0.00  0.00    +0.000 S 
ATOM     27  C   UNL     1      44.327   3.076  10.378  0.00  0.00    +0.000 A 
ATOM     28  N   UNL     1      44.495   2.041   9.507  0.00  0.00    +0.000 NA
ATOM     29  C   UNL     1      45.237   2.321   8.488  0.00  0.00    +0.000 A 
ATOM     30  N   UNL     1      45.814   3.540   8.251  0.00  0.00    +0.000 N 
ATOM     31  C   UNL     1      45.645   4.618   9.085  0.00  0.00    +0.000 A 
ATOM     32  O   UNL     1      46.137   5.714   8.811  0.00  0.00    +0.000 OA
ATOM     33  C   UNL     1      44.836   4.355  10.256  0.00  0.00    +0.000 A 
ATOM     34  H   UNL     1      46.372   3.699   7.424  0.00  0.00    +0.000 HD
ENDBRANCH  21  24
ENDBRANCH  19  20
ENDBRANCH   4  19
TORSDOF 6
ENDMDL
MODEL 8
REMARK VINA RESULT:    -6.312      6.513      9.582
REMARK INTER + INTRA:          -9.764
REMARK INTER:                  -8.875
REMARK INTRA:                  -0.890
REMARK UNBOUND:                -1.238
REMARK  Name = 
REMARK  7 active torsions:
REMARK  status: ('A' for Active; 'I' for Inactive)
REMARK    1  A    between atoms: C_1  and  C_2
REMARK    2  A    between atoms: C_6  and  C_7
REMARK    3  A    between atoms: N_9  and  C_10
REMARK    4  A    between atoms: C_10  and  C_11
REMARK    5  A    between atoms: C_14  and  C_15
REMARK    6  A    between atoms: C_15  and  N_16
REMARK    7  A    between atoms: C_17  and  C_19
REMARK                            x       y       z     vdW  Elec       q    Type
REMARK                         _______ _______ _______ _____ _____    ______ ____
ROOT
ATOM      1  C   UNL     1      42.005  11.798  10.427  0.00  0.00    +0.000 A 
ATOM      2  C   UNL     1      43.211  12.244  10.986  0.00  0.00    +0.000 A 
ATOM      3  C   UNL     1      44.207  11.334  11.366  0.00  0.00    +0.000 A 
ATOM      4  C   UNL     1      44.029   9.958  11.175  0.00  0.00    +0.000 A 
ATOM      5  C   UNL     1      42.818   9.512  10.628  0.00  0.00    +0.000 A 
ATOM      6  C   UNL     1      41.823  10.421  10.245  0.00  0.00    +0.000 A 
ENDROOT
BRANCH   1   7
ATOM      7  C   UNL     1      40.918  12.778  10.068  0.00  0.00    +0.000 C 
BRANCH   7  10
ATOM      8  C   UNL     1      38.696  12.104  10.855  0.00  0.00    +0.000 C 
ATOM      9  O   UNL     1      38.886  12.560  11.979  0.00  0.00    +0.000 OA
ATOM     10  N   UNL     1      39.635  12.164   9.843  0.00  0.00    +0.000 N 
ATOM     11  H   UNL     1      39.393  11.746   8.950  0.00  0.00    +0.000 HD
BRANCH   8  17
ATOM     12  C   UNL     1      35.101   8.744  11.818  0.00  0.00    +0.000 C 
ATOM     13  C   UNL     1      35.678   9.833  10.964  0.00  0.00    +0.000 A 
ATOM     14  C   UNL     1      35.030  10.272   9.808  0.00  0.00    +0.000 A 
ATOM     15  C   UNL     1      35.613  11.284   9.056  0.00  0.00    +0.000 A 
ATOM     16  N   UNL     1      36.782  11.881   9.364  0.00  0.00    +0.000 NA
ATOM     17  C   UNL     1      37.398  11.442  10.496  0.00  0.00    +0.000 A 
ATOM     18  C   UNL     1      36.892  10.432  11.312  0.00  0.00    +0.000 A 
ENDBRANCH   8  17
ENDBRANCH   7  10
ENDBRANCH   1   7
BRANCH   4  19
ATOM     19  C   UNL     1      45.102   8.966  11.553  0.00  0.00    +0.000 C 
BRANCH  19  20
ATOM     20  N   UNL     1      44.676   7.604  11.348  0.00  0.00    +0.000 N 
ATOM     21  C   UNL     1      45.353   6.554  11.917  0.00  0.00    +0.000 C 
ATOM     22  O   UNL     1      46.324   6.722  12.650  0.00  0.00    +0.000 OA
ATOM     23  H   UNL     1      44.070   7.429  10.553  0.00  0.00    +0.000 HD
BRANCH  21  24
ATOM     24  C   UNL     1      44.819   5.210  11.649  0.00  0.00    +0.000 A 
ATOM     25  C   UNL     1      44.133   4.526  12.645  0.00  0.00    +0.000 A 
ATOM     26  S   UNL     1      43.540   3.006  12.143  0.00  0.00    +0.000 S 
ATOM     27  C   UNL     1      44.225   3.188  10.597  0.00  0.00    +0.000 A 
ATOM     28  N   UNL     1      44.107   2.210   9.655  0.00  0.00    +0.000 NA
ATOM     29  C   UNL     1      44.700   2.475   8.538  0.00  0.00    +0.000 A 
ATOM     30  N   UNL     1      45.385   3.631   8.271  0.00  0.00    +0.000 N 
ATOM     31  C   UNL     1      45.502   4.654   9.179  0.00  0.00    +0.000 A 
ATOM     32  O   UNL     1      46.082   5.701   8.883  0.00  0.00    +0.000 OA
ATOM     33  C   UNL     1      44.871   4.402  10.458  0.00  0.00    +0.000 A 
ATOM     34  H   UNL     1      45.814   3.783   7.369  0.00  0.00    +0.000 HD
ENDBRANCH  21  24
ENDBRANCH  19  20
ENDBRANCH   4  19
TORSDOF 6
ENDMDL
MODEL 9
REMARK VINA RESULT:    -6.214      4.480      7.254
REMARK INTER + INTRA:          -9.631
REMARK INTER:                  -8.896
REMARK INTRA:                  -0.735
REMARK UNBOUND:                -1.238
REMARK  Name = 
REMARK  7 active torsions:
REMARK  status: ('A' for Active; 'I' for Inactive)
REMARK    1  A    between atoms: C_1  and  C_2
REMARK    2  A    between atoms: C_6  and  C_7
REMARK    3  A    between atoms: N_9  and  C_10
REMARK    4  A    between atoms: C_10  and  C_11
REMARK    5  A    between atoms: C_14  and  C_15
REMARK    6  A    between atoms: C_15  and  N_16
REMARK    7  A    between atoms: C_17  and  C_19
REMARK                            x       y       z     vdW  Elec       q    Type
REMARK                         _______ _______ _______ _____ _____    ______ ____
ROOT
ATOM      1  C   UNL     1      44.812   8.713  11.490  0.00  0.00    +0.000 A 
ATOM      2  C   UNL     1      45.709   8.991  12.530  0.00  0.00    +0.000 A 
ATOM      3  C   UNL     1      46.411   7.960  13.169  0.00  0.00    +0.000 A 
ATOM      4  C   UNL     1      46.247   6.628  12.767  0.00  0.00    +0.000 A 
ATOM      5  C   UNL     1      45.340   6.349  11.735  0.00  0.00    +0.000 A 
ATOM      6  C   UNL     1      44.641   7.380  11.094  0.00  0.00    +0.000 A 
ENDROOT
BRANCH   1   7
ATOM      7  C   UNL     1      44.023   9.822  10.841  0.00  0.00    +0.000 C 
BRANCH   7  10
ATOM      8  C   UNL     1      41.959  11.090  11.219  0.00  0.00    +0.000 C 
ATOM      9  O   UNL     1      42.443  12.130  10.782  0.00  0.00    +0.000 OA
ATOM     10  N   UNL     1      42.657   9.899  11.288  0.00  0.00    +0.000 N 
ATOM     11  H   UNL     1      42.177   9.095  11.679  0.00  0.00    +0.000 HD
BRANCH   8  17
ATOM     12  C   UNL     1      38.386  12.636  14.379  0.00  0.00    +0.000 C 
ATOM     13  C   UNL     1      38.835  11.788  13.227  0.00  0.00    +0.000 A 
ATOM     14  C   UNL     1      37.955  10.925  12.571  0.00  0.00    +0.000 A 
ATOM     15  C   UNL     1      38.428  10.164  11.510  0.00  0.00    +0.000 A 
ATOM     16  N   UNL     1      39.699  10.193  11.063  0.00  0.00    +0.000 NA
ATOM     17  C   UNL     1      40.543  11.041  11.713  0.00  0.00    +0.000 A 
ATOM     18  C   UNL     1      40.160  11.842  12.787  0.00  0.00    +0.000 A 
ENDBRANCH   8  17
ENDBRANCH   7  10
ENDBRANCH   1   7
BRANCH   4  19
ATOM     19  C   UNL     1      47.014   5.507  13.425  0.00  0.00    +0.000 C 
BRANCH  19  20
ATOM     20  N   UNL     1      47.341   5.807  14.797  0.00  0.00    +0.000 N 
ATOM     21  C   UNL     1      48.556   6.347  15.137  0.00  0.00    +0.000 C 
ATOM     22  O   UNL     1      49.404   6.633  14.296  0.00  0.00    +0.000 OA
ATOM     23  H   UNL     1      46.789   5.341  15.510  0.00  0.00    +0.000 HD
BRANCH  21  24
ATOM     24  C   UNL     1      48.771   6.623  16.566  0.00  0.00    +0.000 A 
ATOM     25  C   UNL     1      48.901   7.934  17.007  0.00  0.00    +0.000 A 
ATOM     26  S   UNL     1      49.092   8.068  18.697  0.00  0.00    +0.000 S 
ATOM     27  C   UNL     1      49.061   6.378  18.890  0.00  0.00    +0.000 A 
ATOM     28  N   UNL     1      49.203   5.807  20.120  0.00  0.00    +0.000 NA
ATOM     29  C   UNL     1      49.187   4.516  20.110  0.00  0.00    +0.000 A 
ATOM     30  N   UNL     1      49.028   3.744  18.990  0.00  0.00    +0.000 N 
ATOM     31  C   UNL     1      48.851   4.277  17.737  0.00  0.00    +0.000 A 
ATOM     32  O   UNL     1      48.658   3.551  16.760  0.00  0.00    +0.000 OA
ATOM     33  C   UNL     1      48.879   5.724  17.687  0.00  0.00    +0.000 A 
ATOM     34  H   UNL     1      49.008   2.735  19.052  0.00  0.00    +0.000 HD
ENDBRANCH  21  24
ENDBRANCH  19  20
ENDBRANCH   4  19
TORSDOF 6
ENDMDL
