MODEL 1
REMARK VINA RESULT:    -7.371      0.000      0.000
REMARK INTER + INTRA:         -12.971
REMARK INTER:                 -11.680
REMARK INTRA:                  -1.291
REMARK UNBOUND:                -1.291
REMARK  Name = 
REMARK  12 active torsions:
REMARK  status: ('A' for Active; 'I' for Inactive)
REMARK    1  A    between atoms: C_1  and  C_2
REMARK    2  A    between atoms: C_2  and  O_3
REMARK    3  A    between atoms: O_3  and  C_4
REMARK    4  A    between atoms: C_6  and  C_7
REMARK    5  A    between atoms: C_7  and  C_8
REMARK    6  A    between atoms: C_8  and  N_9
REMARK    7  A    between atoms: C_13  and  C_14
REMARK    8  A    between atoms: C_20  and  O_21
REMARK    9  A    between atoms: O_21  and  C_22
REMARK   10  A    between atoms: C_22  and  C_23
REMARK   11  A    between atoms: C_24  and  N_25
REMARK   12  A    between atoms: N_25  and  C_26
REMARK                            x       y       z     vdW  Elec       q    Type
REMARK                         _______ _______ _______ _____ _____    ______ ____
ROOT
ATOM      1  C   UNL     1      46.729   7.167  12.343  0.00  0.00    +0.000 A 
ATOM      2  C   UNL     1      45.406   6.795  12.077  0.00  0.00    +0.000 A 
ATOM      3  C   UNL     1      44.801   5.675  12.667  0.00  0.00    +0.000 A 
ATOM      4  C   UNL     1      45.568   4.903  13.543  0.00  0.00    +0.000 A 
ATOM      5  C   UNL     1      46.903   5.234  13.819  0.00  0.00    +0.000 A 
ATOM      6  C   UNL     1      47.503   6.381  13.221  0.00  0.00    +0.000 A 
ENDROOT
BRANCH   6   7
ATOM      7  N   UNL     1      48.867   6.649  13.517  0.00  0.00    +0.000 N 
ATOM      8  H   UNL     1      49.445   5.841  13.300  0.00  0.00    +0.000 HD
BRANCH   7   9
ATOM      9  C   UNL     1      49.427   7.599  14.435  0.00  0.00    +0.000 C 
ATOM     10  C   UNL     1      50.144   6.911  15.620  0.00  0.00    +0.000 C 
ATOM     11  N   UNL     1      49.424   7.779  16.568  0.00  0.00    +0.000 NA
ATOM     12  C   UNL     1      48.482   8.172  15.502  0.00  0.00    +0.000 C 
ATOM     13  H   UNL     1      49.987   8.558  16.908  0.00  0.00    +0.000 HD
ENDBRANCH   7   9
ENDBRANCH   6   7
BRANCH   1  14
ATOM     14  O   UNL     1      47.291   8.299  11.800  0.00  0.00    +0.000 OA
BRANCH  14  16
ATOM     15  C   UNL     1      47.950  10.604  11.960  0.00  0.00    +0.000 C 
ATOM     16  C   UNL     1      46.954   9.551  12.406  0.00  0.00    +0.000 C 
ENDBRANCH  14  16
ENDBRANCH   1  14
BRANCH   3  17
ATOM     17  C   UNL     1      43.363   5.270  12.385  0.00  0.00    +0.000 C 
BRANCH  17  18
ATOM     18  C   UNL     1      43.205   4.469  11.092  0.00  0.00    +0.000 C 
BRANCH  18  19
ATOM     19  N   UNL     1      43.913   5.043   9.949  0.00  0.00    +0.000 N 
ATOM     20  C   UNL     1      44.687   4.040   9.314  0.00  0.00    +0.000 A 
ATOM     21  C   UNL     1      45.437   4.381   8.194  0.00  0.00    +0.000 A 
ATOM     22  C   UNL     1      46.193   3.399   7.547  0.00  0.00    +0.000 A 
ATOM     23  C   UNL     1      46.180   2.093   8.033  0.00  0.00    +0.000 A 
ATOM     24  C   UNL     1      45.416   1.836   9.156  0.00  0.00    +0.000 A 
ATOM     25  N   UNL     1      44.674   2.775   9.784  0.00  0.00    +0.000 NA
ATOM     26  H   UNL     1      44.532   5.803  10.216  0.00  0.00    +0.000 HD
BRANCH  23  27
ATOM     27  C   UNL     1      46.946   0.978   7.441  0.00  0.00    +0.000 C 
ATOM     28  N   UNL     1      47.863   1.289   6.478  0.00  0.00    +0.000 N 
ATOM     29  O   UNL     1      46.754  -0.185   7.769  0.00  0.00    +0.000 OA
ATOM     30  H   UNL     1      47.874   2.179   5.999  0.00  0.00    +0.000 HD
ATOM     31  H   UNL     1      48.295   0.500   6.013  0.00  0.00    +0.000 HD
ENDBRANCH  23  27
ENDBRANCH  18  19
ENDBRANCH  17  18
ENDBRANCH   3  17
BRANCH   5  32
ATOM     32  O   UNL     1      47.718   4.491  14.646  0.00  0.00    +0.000 OA
BRANCH  32  33
ATOM     33  C   UNL     1      47.417   4.417  16.041  0.00  0.00    +0.000 C 
ATOM     34  C   UNL     1      47.877   3.102  16.654  0.00  0.00    +0.000 C 
ENDBRANCH  32  33
ENDBRANCH   5  32
TORSDOF 10
ENDMDL
MODEL 2
REMARK VINA RESULT:    -7.249      0.956      3.455
REMARK INTER + INTRA:         -12.778
REMARK INTER:                 -11.189
REMARK INTRA:                  -1.589
REMARK UNBOUND:                -1.291
REMARK  Name = 
REMARK  12 active torsions:
REMARK  status: ('A' for Active; 'I' for Inactive)
REMARK    1  A    between atoms: C_1  and  C_2
REMARK    2  A    between atoms: C_2  and  O_3
REMARK    3  A    between atoms: O_3  and  C_4
REMARK    4  A    between atoms: C_6  and  C_7
REMARK    5  A    between atoms: C_7  and  C_8
REMARK    6  A    between atoms: C_8  and  N_9
REMARK    7  A    between atoms: C_13  and  C_14
REMARK    8  A    between atoms: C_20  and  O_21
REMARK    9  A    between atoms: O_21  and  C_22
REMARK   10  A    between atoms: C_22  and  C_23
REMARK   11  A    between atoms: C_24  and  N_25
REMARK   12  A    between atoms: N_25  and  C_26
REMARK                            x       y       z     vdW  Elec       q    Type
REMARK                         _______ _______ _______ _____ _____    ______ ____
ROOT
ATOM      1  C   UNL     1      47.037   5.297  13.913  0.00  0.00    +0.000 A 
ATOM      2  C   UNL     1      45.695   5.004  13.639  0.00  0.00    +0.000 A 
ATOM      3  C   UNL     1      44.919   5.769  12.755  0.00  0.00    +0.000 A 
ATOM      4  C   UNL     1      45.519   6.873  12.145  0.00  0.00    +0.000 A 
ATOM      5  C   UNL     1      46.855   7.208  12.411  0.00  0.00    +0.000 A 
ATOM      6  C   UNL     1      47.637   6.415  13.302  0.00  0.00    +0.000 A 
ENDROOT
BRANCH   6   7
ATOM      7  N   UNL     1      48.976   6.822  13.553  0.00  0.00    +0.000 N 
ATOM      8  H   UNL     1      49.632   6.155  13.156  0.00  0.00    +0.000 HD
BRANCH   7   9
ATOM      9  C   UNL     1      49.487   7.671  14.590  0.00  0.00    +0.000 C 
ATOM     10  C   UNL     1      50.034   6.862  15.789  0.00  0.00    +0.000 C 
ATOM     11  N   UNL     1      49.266   7.708  16.719  0.00  0.00    +0.000 NA
ATOM     12  C   UNL     1      48.466   8.230  15.594  0.00  0.00    +0.000 C 
ATOM     13  H   UNL     1      49.831   8.425  17.172  0.00  0.00    +0.000 HD
ENDBRANCH   7   9
ENDBRANCH   6   7
BRANCH   1  14
ATOM     14  O   UNL     1      47.801   4.505  14.738  0.00  0.00    +0.000 OA
BRANCH  14  16
ATOM     15  C   UNL     1      48.019   3.086  16.665  0.00  0.00    +0.000 C 
ATOM     16  C   UNL     1      47.320   4.293  16.070  0.00  0.00    +0.000 C 
ENDBRANCH  14  16
ENDBRANCH   1  14
BRANCH   3  17
ATOM     17  C   UNL     1      43.464   5.451  12.450  0.00  0.00    +0.000 C 
BRANCH  17  18
ATOM     18  C   UNL     1      43.239   4.977  11.014  0.00  0.00    +0.000 C 
BRANCH  18  19
ATOM     19  N   UNL     1      43.443   3.541  10.824  0.00  0.00    +0.000 N 
ATOM     20  C   UNL     1      44.400   3.326   9.802  0.00  0.00    +0.000 A 
ATOM     21  C   UNL     1      44.741   2.019   9.468  0.00  0.00    +0.000 A 
ATOM     22  C   UNL     1      45.696   1.790   8.473  0.00  0.00    +0.000 A 
ATOM     23  C   UNL     1      46.292   2.876   7.831  0.00  0.00    +0.000 A 
ATOM     24  C   UNL     1      45.892   4.142   8.214  0.00  0.00    +0.000 A 
ATOM     25  N   UNL     1      44.977   4.376   9.181  0.00  0.00    +0.000 NA
ATOM     26  H   UNL     1      42.587   3.058  10.568  0.00  0.00    +0.000 HD
BRANCH  23  27
ATOM     27  C   UNL     1      47.300   2.756   6.760  0.00  0.00    +0.000 C 
ATOM     28  N   UNL     1      47.091   3.476   5.618  0.00  0.00    +0.000 N 
ATOM     29  O   UNL     1      48.272   2.021   6.865  0.00  0.00    +0.000 OA
ATOM     30  H   UNL     1      46.196   3.883   5.385  0.00  0.00    +0.000 HD
ATOM     31  H   UNL     1      47.736   3.294   4.860  0.00  0.00    +0.000 HD
ENDBRANCH  23  27
ENDBRANCH  18  19
ENDBRANCH  17  18
ENDBRANCH   3  17
BRANCH   5  32
ATOM     32  O   UNL     1      47.489   8.304  11.866  0.00  0.00    +0.000 OA
BRANCH  32  33
ATOM     33  C   UNL     1      46.999   9.614  12.161  0.00  0.00    +0.000 C 
ATOM     34  C   UNL     1      48.096  10.527  12.688  0.00  0.00    +0.000 C 
ENDBRANCH  32  33
ENDBRANCH   5  32
TORSDOF 10
ENDMDL
MODEL 3
REMARK VINA RESULT:    -7.091      1.379      3.641
REMARK INTER + INTRA:         -12.527
REMARK INTER:                 -11.028
REMARK INTRA:                  -1.500
REMARK UNBOUND:                -1.291
REMARK  Name = 
REMARK  12 active torsions:
REMARK  status: ('A' for Active; 'I' for Inactive)
REMARK    1  A    between atoms: C_1  and  C_2
REMARK    2  A    between atoms: C_2  and  O_3
REMARK    3  A    between atoms: O_3  and  C_4
REMARK    4  A    between atoms: C_6  and  C_7
REMARK    5  A    between atoms: C_7  and  C_8
REMARK    6  A    between atoms: C_8  and  N_9
REMARK    7  A    between atoms: C_13  and  C_14
REMARK    8  A    between atoms: C_20  and  O_21
REMARK    9  A    between atoms: O_21  and  C_22
REMARK   10  A    between atoms: C_22  and  C_23
REMARK   11  A    between atoms: C_24  and  N_25
REMARK   12  A    between atoms: N_25  and  C_26
REMARK                            x       y       z     vdW  Elec       q    Type
REMARK                         _______ _______ _______ _____ _____    ______ ____
ROOT
ATOM      1  C   UNL     1      46.685   5.540  13.624  0.00  0.00    +0.000 A 
ATOM      2  C   UNL     1      45.477   4.955  13.223  0.00  0.00    +0.000 A 
ATOM      3  C   UNL     1      44.421   5.699  12.678  0.00  0.00    +0.000 A 
ATOM      4  C   UNL     1      44.589   7.080  12.552  0.00  0.00    +0.000 A 
ATOM      5  C   UNL     1      45.778   7.703  12.961  0.00  0.00    +0.000 A 
ATOM      6  C   UNL     1      46.849   6.934  13.502  0.00  0.00    +0.000 A 
ENDROOT
BRANCH   6   7
ATOM      7  N   UNL     1      48.017   7.626  13.925  0.00  0.00    +0.000 N 
ATOM      8  H   UNL     1      47.790   8.295  14.656  0.00  0.00    +0.000 HD
BRANCH   7   9
ATOM      9  C   UNL     1      49.243   7.854  13.217  0.00  0.00    +0.000 C 
ATOM     10  C   UNL     1      49.482   9.355  12.934  0.00  0.00    +0.000 C 
ATOM     11  N   UNL     1      49.777   9.050  11.524  0.00  0.00    +0.000 NA
ATOM     12  C   UNL     1      49.200   7.701  11.689  0.00  0.00    +0.000 C 
ATOM     13  H   UNL     1      50.775   9.032  11.315  0.00  0.00    +0.000 HD
ENDBRANCH   7   9
ENDBRANCH   6   7
BRANCH   1  14
ATOM     14  O   UNL     1      47.733   4.790  14.105  0.00  0.00    +0.000 OA
BRANCH  14  16
ATOM     15  C   UNL     1      47.496   4.282  16.441  0.00  0.00    +0.000 C 
ATOM     16  C   UNL     1      47.417   3.741  15.027  0.00  0.00    +0.000 C 
ENDBRANCH  14  16
ENDBRANCH   1  14
BRANCH   3  17
ATOM     17  C   UNL     1      43.110   5.067  12.236  0.00  0.00    +0.000 C 
BRANCH  17  18
ATOM     18  C   UNL     1      43.218   4.325  10.904  0.00  0.00    +0.000 C 
BRANCH  18  19
ATOM     19  N   UNL     1      44.073   4.990   9.922  0.00  0.00    +0.000 N 
ATOM     20  C   UNL     1      44.852   4.026   9.236  0.00  0.00    +0.000 A 
ATOM     21  C   UNL     1      45.735   4.455   8.251  0.00  0.00    +0.000 A 
ATOM     22  C   UNL     1      46.499   3.514   7.554  0.00  0.00    +0.000 A 
ATOM     23  C   UNL     1      46.363   2.160   7.857  0.00  0.00    +0.000 A 
ATOM     24  C   UNL     1      45.472   1.815   8.856  0.00  0.00    +0.000 A 
ATOM     25  N   UNL     1      44.721   2.715   9.529  0.00  0.00    +0.000 NA
ATOM     26  H   UNL     1      44.701   5.665  10.348  0.00  0.00    +0.000 HD
BRANCH  23  27
ATOM     27  C   UNL     1      47.125   1.081   7.198  0.00  0.00    +0.000 C 
ATOM     28  N   UNL     1      46.892  -0.198   7.619  0.00  0.00    +0.000 N 
ATOM     29  O   UNL     1      47.956   1.312   6.332  0.00  0.00    +0.000 OA
ATOM     30  H   UNL     1      46.420  -0.411   8.487  0.00  0.00    +0.000 HD
ATOM     31  H   UNL     1      47.502  -0.906   7.229  0.00  0.00    +0.000 HD
ENDBRANCH  23  27
ENDBRANCH  18  19
ENDBRANCH  17  18
ENDBRANCH   3  17
BRANCH   5  32
ATOM     32  O   UNL     1      45.988   9.064  12.892  0.00  0.00    +0.000 OA
BRANCH  32  33
ATOM     33  C   UNL     1      45.800   9.738  11.646  0.00  0.00    +0.000 C 
ATOM     34  C   UNL     1      44.645  10.727  11.702  0.00  0.00    +0.000 C 
ENDBRANCH  32  33
ENDBRANCH   5  32
TORSDOF 10
ENDMDL
MODEL 4
REMARK VINA RESULT:    -6.027      2.852      7.699
REMARK INTER + INTRA:         -10.841
REMARK INTER:                  -9.326
REMARK INTRA:                  -1.516
REMARK UNBOUND:                -1.291
REMARK  Name = 
REMARK  12 active torsions:
REMARK  status: ('A' for Active; 'I' for Inactive)
REMARK    1  A    between atoms: C_1  and  C_2
REMARK    2  A    between atoms: C_2  and  O_3
REMARK    3  A    between atoms: O_3  and  C_4
REMARK    4  A    between atoms: C_6  and  C_7
REMARK    5  A    between atoms: C_7  and  C_8
REMARK    6  A    between atoms: C_8  and  N_9
REMARK    7  A    between atoms: C_13  and  C_14
REMARK    8  A    between atoms: C_20  and  O_21
REMARK    9  A    between atoms: O_21  and  C_22
REMARK   10  A    between atoms: C_22  and  C_23
REMARK   11  A    between atoms: C_24  and  N_25
REMARK   12  A    between atoms: N_25  and  C_26
REMARK                            x       y       z     vdW  Elec       q    Type
REMARK                         _______ _______ _______ _____ _____    ______ ____
ROOT
ATOM      1  C   UNL     1      45.583   7.674  12.181  0.00  0.00    +0.000 A 
ATOM      2  C   UNL     1      46.906   8.131  12.201  0.00  0.00    +0.000 A 
ATOM      3  C   UNL     1      47.958   7.378  12.743  0.00  0.00    +0.000 A 
ATOM      4  C   UNL     1      47.655   6.131  13.293  0.00  0.00    +0.000 A 
ATOM      5  C   UNL     1      46.338   5.648  13.308  0.00  0.00    +0.000 A 
ATOM      6  C   UNL     1      45.279   6.418  12.743  0.00  0.00    +0.000 A 
ENDROOT
BRANCH   6   7
ATOM      7  N   UNL     1      43.961   5.889  12.814  0.00  0.00    +0.000 N 
ATOM      8  H   UNL     1      43.696   5.719  13.781  0.00  0.00    +0.000 HD
BRANCH   7   9
ATOM      9  C   UNL     1      43.215   5.174  11.819  0.00  0.00    +0.000 C 
ATOM     10  C   UNL     1      43.223   3.648  12.069  0.00  0.00    +0.000 C 
ATOM     11  N   UNL     1      43.595   3.412  10.664  0.00  0.00    +0.000 NA
ATOM     12  C   UNL     1      43.951   4.837  10.512  0.00  0.00    +0.000 C 
ATOM     13  H   UNL     1      42.807   3.135  10.079  0.00  0.00    +0.000 HD
ENDBRANCH   7   9
ENDBRANCH   6   7
BRANCH   1  14
ATOM     14  O   UNL     1      44.570   8.399  11.597  0.00  0.00    +0.000 OA
BRANCH  14  16
ATOM     15  C   UNL     1      43.950  10.405  10.428  0.00  0.00    +0.000 C 
ATOM     16  C   UNL     1      44.694   9.825  11.616  0.00  0.00    +0.000 C 
ENDBRANCH  14  16
ENDBRANCH   1  14
BRANCH   3  17
ATOM     17  C   UNL     1      49.398   7.868  12.762  0.00  0.00    +0.000 C 
BRANCH  17  18
ATOM     18  C   UNL     1      49.866   8.309  14.149  0.00  0.00    +0.000 C 
BRANCH  18  19
ATOM     19  N   UNL     1      50.852   7.415  14.754  0.00  0.00    +0.000 N 
ATOM     20  C   UNL     1      50.319   6.847  15.938  0.00  0.00    +0.000 A 
ATOM     21  C   UNL     1      51.104   5.959  16.667  0.00  0.00    +0.000 A 
ATOM     22  C   UNL     1      50.586   5.378  17.828  0.00  0.00    +0.000 A 
ATOM     23  C   UNL     1      49.291   5.696  18.236  0.00  0.00    +0.000 A 
ATOM     24  C   UNL     1      48.580   6.594  17.462  0.00  0.00    +0.000 A 
ATOM     25  N   UNL     1      49.066   7.155  16.333  0.00  0.00    +0.000 NA
ATOM     26  H   UNL     1      51.717   7.894  14.991  0.00  0.00    +0.000 HD
BRANCH  23  27
ATOM     27  C   UNL     1      48.645   5.155  19.448  0.00  0.00    +0.000 C 
ATOM     28  N   UNL     1      48.546   3.797  19.553  0.00  0.00    +0.000 N 
ATOM     29  O   UNL     1      48.186   5.884  20.316  0.00  0.00    +0.000 OA
ATOM     30  H   UNL     1      48.671   3.177  18.765  0.00  0.00    +0.000 HD
ATOM     31  H   UNL     1      48.004   3.456  20.338  0.00  0.00    +0.000 HD
ENDBRANCH  23  27
ENDBRANCH  18  19
ENDBRANCH  17  18
ENDBRANCH   3  17
BRANCH   5  32
ATOM     32  O   UNL     1      45.974   4.442  13.867  0.00  0.00    +0.000 OA
BRANCH  32  33
ATOM     33  C   UNL     1      46.991   3.514  14.250  0.00  0.00    +0.000 C 
ATOM     34  C   UNL     1      47.356   3.645  15.721  0.00  0.00    +0.000 C 
ENDBRANCH  32  33
ENDBRANCH   5  32
TORSDOF 10
ENDMDL
MODEL 5
REMARK VINA RESULT:    -6.026      2.902      8.416
REMARK INTER + INTRA:         -10.840
REMARK INTER:                  -9.268
REMARK INTRA:                  -1.572
REMARK UNBOUND:                -1.291
REMARK  Name = 
REMARK  12 active torsions:
REMARK  status: ('A' for Active; 'I' for Inactive)
REMARK    1  A    between atoms: C_1  and  C_2
REMARK    2  A    between atoms: C_2  and  O_3
REMARK    3  A    between atoms: O_3  and  C_4
REMARK    4  A    between atoms: C_6  and  C_7
REMARK    5  A    between atoms: C_7  and  C_8
REMARK    6  A    between atoms: C_8  and  N_9
REMARK    7  A    between atoms: C_13  and  C_14
REMARK    8  A    between atoms: C_20  and  O_21
REMARK    9  A    between atoms: O_21  and  C_22
REMARK   10  A    between atoms: C_22  and  C_23
REMARK   11  A    between atoms: C_24  and  N_25
REMARK   12  A    between atoms: N_25  and  C_26
REMARK                            x       y       z     vdW  Elec       q    Type
REMARK                         _______ _______ _______ _____ _____    ______ ____
ROOT
ATOM      1  C   UNL     1      46.332   5.504  13.365  0.00  0.00    +0.000 A 
ATOM      2  C   UNL     1      47.641   5.976  13.201  0.00  0.00    +0.000 A 
ATOM      3  C   UNL     1      47.932   7.190  12.562  0.00  0.00    +0.000 A 
ATOM      4  C   UNL     1      46.865   7.939  12.062  0.00  0.00    +0.000 A 
ATOM      5  C   UNL     1      45.543   7.488  12.190  0.00  0.00    +0.000 A 
ATOM      6  C   UNL     1      45.258   6.258  12.852  0.00  0.00    +0.000 A 
ENDROOT
BRANCH   6   7
ATOM      7  N   UNL     1      43.901   5.841  12.925  0.00  0.00    +0.000 N 
ATOM      8  H   UNL     1      43.590   5.807  13.892  0.00  0.00    +0.000 HD
BRANCH   7   9
ATOM      9  C   UNL     1      43.137   5.070  11.987  0.00  0.00    +0.000 C 
ATOM     10  C   UNL     1      43.274   3.550  12.233  0.00  0.00    +0.000 C 
ATOM     11  N   UNL     1      43.556   3.337  10.803  0.00  0.00    +0.000 NA
ATOM     12  C   UNL     1      43.794   4.783  10.628  0.00  0.00    +0.000 C 
ATOM     13  H   UNL     1      42.749   3.001  10.279  0.00  0.00    +0.000 HD
ENDBRANCH   7   9
ENDBRANCH   6   7
BRANCH   1  14
ATOM     14  O   UNL     1      46.058   4.339  14.043  0.00  0.00    +0.000 OA
BRANCH  14  16
ATOM     15  C   UNL     1      47.154   4.134  16.171  0.00  0.00    +0.000 C 
ATOM     16  C   UNL     1      47.149   3.703  14.717  0.00  0.00    +0.000 C 
ENDBRANCH  14  16
ENDBRANCH   1  14
BRANCH   3  17
ATOM     17  C   UNL     1      49.351   7.709  12.388  0.00  0.00    +0.000 C 
BRANCH  17  18
ATOM     18  C   UNL     1      49.931   8.320  13.664  0.00  0.00    +0.000 C 
BRANCH  18  19
ATOM     19  N   UNL     1      50.806   7.417  14.409  0.00  0.00    +0.000 N 
ATOM     20  C   UNL     1      50.241   7.146  15.680  0.00  0.00    +0.000 A 
ATOM     21  C   UNL     1      50.922   6.298  16.548  0.00  0.00    +0.000 A 
ATOM     22  C   UNL     1      50.369   6.008  17.799  0.00  0.00    +0.000 A 
ATOM     23  C   UNL     1      49.144   6.570  18.156  0.00  0.00    +0.000 A 
ATOM     24  C   UNL     1      48.536   7.409  17.241  0.00  0.00    +0.000 A 
ATOM     25  N   UNL     1      49.056   7.690  16.025  0.00  0.00    +0.000 NA
ATOM     26  H   UNL     1      51.735   7.805  14.549  0.00  0.00    +0.000 HD
BRANCH  23  27
ATOM     27  C   UNL     1      48.472   6.346  19.451  0.00  0.00    +0.000 C 
ATOM     28  N   UNL     1      48.036   5.080  19.720  0.00  0.00    +0.000 N 
ATOM     29  O   UNL     1      48.280   7.255  20.246  0.00  0.00    +0.000 OA
ATOM     30  H   UNL     1      47.940   4.371  19.006  0.00  0.00    +0.000 HD
ATOM     31  H   UNL     1      47.484   4.976  20.563  0.00  0.00    +0.000 HD
ENDBRANCH  23  27
ENDBRANCH  18  19
ENDBRANCH  17  18
ENDBRANCH   3  17
BRANCH   5  32
ATOM     32  O   UNL     1      44.454   8.167  11.685  0.00  0.00    +0.000 OA
BRANCH  32  33
ATOM     33  C   UNL     1      44.574   9.560  11.388  0.00  0.00    +0.000 C 
ATOM     34  C   UNL     1      43.473  10.040  10.454  0.00  0.00    +0.000 C 
ENDBRANCH  32  33
ENDBRANCH   5  32
TORSDOF 10
ENDMDL
MODEL 6
REMARK VINA RESULT:    -5.655      3.394      6.127
REMARK INTER + INTRA:         -10.252
REMARK INTER:                  -9.011
REMARK INTRA:                  -1.240
REMARK UNBOUND:                -1.291
REMARK  Name = 
REMARK  12 active torsions:
REMARK  status: ('A' for Active; 'I' for Inactive)
REMARK    1  A    between atoms: C_1  and  C_2
REMARK    2  A    between atoms: C_2  and  O_3
REMARK    3  A    between atoms: O_3  and  C_4
REMARK    4  A    between atoms: C_6  and  C_7
REMARK    5  A    between atoms: C_7  and  C_8
REMARK    6  A    between atoms: C_8  and  N_9
REMARK    7  A    between atoms: C_13  and  C_14
REMARK    8  A    between atoms: C_20  and  O_21
REMARK    9  A    between atoms: O_21  and  C_22
REMARK   10  A    between atoms: C_22  and  C_23
REMARK   11  A    between atoms: C_24  and  N_25
REMARK   12  A    between atoms: N_25  and  C_26
REMARK                            x       y       z     vdW  Elec       q    Type
REMARK                         _______ _______ _______ _____ _____    ______ ____
ROOT
ATOM      1  C   UNL     1      47.994   4.867  17.320  0.00  0.00    +0.000 A 
ATOM      2  C   UNL     1      48.256   5.409  16.056  0.00  0.00    +0.000 A 
ATOM      3  C   UNL     1      48.677   6.735  15.874  0.00  0.00    +0.000 A 
ATOM      4  C   UNL     1      48.821   7.537  17.008  0.00  0.00    +0.000 A 
ATOM      5  C   UNL     1      48.549   7.034  18.289  0.00  0.00    +0.000 A 
ATOM      6  C   UNL     1      48.133   5.681  18.462  0.00  0.00    +0.000 A 
ENDROOT
BRANCH   6   7
ATOM      7  N   UNL     1      47.845   5.237  19.781  0.00  0.00    +0.000 N 
ATOM      8  H   UNL     1      47.076   5.772  20.177  0.00  0.00    +0.000 HD
BRANCH   7   9
ATOM      9  C   UNL     1      48.696   4.563  20.719  0.00  0.00    +0.000 C 
ATOM     10  C   UNL     1      48.767   5.301  22.076  0.00  0.00    +0.000 C 
ATOM     11  N   UNL     1      50.237   5.213  22.054  0.00  0.00    +0.000 NA
ATOM     12  C   UNL     1      50.201   4.856  20.622  0.00  0.00    +0.000 C 
ATOM     13  H   UNL     1      50.605   4.465  22.641  0.00  0.00    +0.000 HD
ENDBRANCH   7   9
ENDBRANCH   6   7
BRANCH   1  14
ATOM     14  O   UNL     1      47.636   3.550  17.487  0.00  0.00    +0.000 OA
BRANCH  14  16
ATOM     15  C   UNL     1      49.875   2.680  17.457  0.00  0.00    +0.000 C 
ATOM     16  C   UNL     1      48.477   2.562  16.882  0.00  0.00    +0.000 C 
ENDBRANCH  14  16
ENDBRANCH   1  14
BRANCH   3  17
ATOM     17  C   UNL     1      48.968   7.326  14.503  0.00  0.00    +0.000 C 
BRANCH  17  18
ATOM     18  C   UNL     1      47.759   8.022  13.878  0.00  0.00    +0.000 C 
BRANCH  18  19
ATOM     19  N   UNL     1      47.589   7.749  12.451  0.00  0.00    +0.000 N 
ATOM     20  C   UNL     1      46.649   6.704  12.273  0.00  0.00    +0.000 A 
ATOM     21  C   UNL     1      46.341   6.294  10.981  0.00  0.00    +0.000 A 
ATOM     22  C   UNL     1      45.403   5.275  10.788  0.00  0.00    +0.000 A 
ATOM     23  C   UNL     1      44.791   4.688  11.894  0.00  0.00    +0.000 A 
ATOM     24  C   UNL     1      45.158   5.146  13.146  0.00  0.00    +0.000 A 
ATOM     25  N   UNL     1      46.056   6.136  13.344  0.00  0.00    +0.000 NA
ATOM     26  H   UNL     1      48.459   7.477  12.002  0.00  0.00    +0.000 HD
BRANCH  23  27
ATOM     27  C   UNL     1      43.798   3.598  11.814  0.00  0.00    +0.000 C 
ATOM     28  N   UNL     1      44.025   2.485  12.572  0.00  0.00    +0.000 N 
ATOM     29  O   UNL     1      42.823   3.665  11.078  0.00  0.00    +0.000 OA
ATOM     30  H   UNL     1      44.923   2.278  12.985  0.00  0.00    +0.000 HD
ATOM     31  H   UNL     1      43.390   1.712  12.417  0.00  0.00    +0.000 HD
ENDBRANCH  23  27
ENDBRANCH  18  19
ENDBRANCH  17  18
ENDBRANCH   3  17
BRANCH   5  32
ATOM     32  O   UNL     1      48.640   7.787  19.439  0.00  0.00    +0.000 OA
BRANCH  32  33
ATOM     33  C   UNL     1      47.672   8.810  19.684  0.00  0.00    +0.000 C 
ATOM     34  C   UNL     1      47.260   8.865  21.148  0.00  0.00    +0.000 C 
ENDBRANCH  32  33
ENDBRANCH   5  32
TORSDOF 10
ENDMDL
MODEL 7
REMARK VINA RESULT:    -5.491      4.107      8.033
REMARK INTER + INTRA:          -9.991
REMARK INTER:                  -8.547
REMARK INTRA:                  -1.445
REMARK UNBOUND:                -1.291
REMARK  Name = 
REMARK  12 active torsions:
REMARK  status: ('A' for Active; 'I' for Inactive)
REMARK    1  A    between atoms: C_1  and  C_2
REMARK    2  A    between atoms: C_2  and  O_3
REMARK    3  A    between atoms: O_3  and  C_4
REMARK    4  A    between atoms: C_6  and  C_7
REMARK    5  A    between atoms: C_7  and  C_8
REMARK    6  A    between atoms: C_8  and  N_9
REMARK    7  A    between atoms: C_13  and  C_14
REMARK    8  A    between atoms: C_20  and  O_21
REMARK    9  A    between atoms: O_21  and  C_22
REMARK   10  A    between atoms: C_22  and  C_23
REMARK   11  A    between atoms: C_24  and  N_25
REMARK   12  A    between atoms: N_25  and  C_26
REMARK                            x       y       z     vdW  Elec       q    Type
REMARK                         _______ _______ _______ _____ _____    ______ ____
ROOT
ATOM      1  C   UNL     1      45.671   8.509  12.301  0.00  0.00    +0.000 A 
ATOM      2  C   UNL     1      47.005   8.105  12.167  0.00  0.00    +0.000 A 
ATOM      3  C   UNL     1      48.048   9.011  11.920  0.00  0.00    +0.000 A 
ATOM      4  C   UNL     1      47.724  10.363  11.789  0.00  0.00    +0.000 A 
ATOM      5  C   UNL     1      46.395  10.801  11.897  0.00  0.00    +0.000 A 
ATOM      6  C   UNL     1      45.346   9.873  12.161  0.00  0.00    +0.000 A 
ENDROOT
BRANCH   6   7
ATOM      7  N   UNL     1      44.017  10.374  12.231  0.00  0.00    +0.000 N 
ATOM      8  H   UNL     1      43.649  10.278  13.174  0.00  0.00    +0.000 HD
BRANCH   7   9
ATOM      9  C   UNL     1      43.047  10.522  11.185  0.00  0.00    +0.000 C 
ATOM     10  C   UNL     1      41.656  10.919  11.733  0.00  0.00    +0.000 C 
ATOM     11  N   UNL     1      41.028   9.855  10.931  0.00  0.00    +0.000 NA
ATOM     12  C   UNL     1      42.350   9.240  10.700  0.00  0.00    +0.000 C 
ATOM     13  H   UNL     1      40.594  10.198  10.075  0.00  0.00    +0.000 HD
ENDBRANCH   7   9
ENDBRANCH   6   7
BRANCH   1  14
ATOM     14  O   UNL     1      44.667   7.617  12.598  0.00  0.00    +0.000 OA
BRANCH  14  16
ATOM     15  C   UNL     1      44.815   5.279  13.129  0.00  0.00    +0.000 C 
ATOM     16  C   UNL     1      44.760   6.311  12.020  0.00  0.00    +0.000 C 
ENDBRANCH  14  16
ENDBRANCH   1  14
BRANCH   3  17
ATOM     17  C   UNL     1      49.499   8.578  11.780  0.00  0.00    +0.000 C 
BRANCH  17  18
ATOM     18  C   UNL     1      49.840   7.337  12.605  0.00  0.00    +0.000 C 
BRANCH  18  19
ATOM     19  N   UNL     1      50.266   7.632  13.973  0.00  0.00    +0.000 N 
ATOM     20  C   UNL     1      49.523   6.843  14.885  0.00  0.00    +0.000 A 
ATOM     21  C   UNL     1      49.781   6.971  16.246  0.00  0.00    +0.000 A 
ATOM     22  C   UNL     1      49.068   6.187  17.158  0.00  0.00    +0.000 A 
ATOM     23  C   UNL     1      48.111   5.289  16.689  0.00  0.00    +0.000 A 
ATOM     24  C   UNL     1      47.907   5.227  15.323  0.00  0.00    +0.000 A 
ATOM     25  N   UNL     1      48.597   5.973  14.431  0.00  0.00    +0.000 NA
ATOM     26  H   UNL     1      50.137   8.610  14.217  0.00  0.00    +0.000 HD
BRANCH  23  27
ATOM     27  C   UNL     1      47.290   4.421  17.556  0.00  0.00    +0.000 C 
ATOM     28  N   UNL     1      47.399   4.599  18.906  0.00  0.00    +0.000 N 
ATOM     29  O   UNL     1      46.561   3.552  17.098  0.00  0.00    +0.000 OA
ATOM     30  H   UNL     1      48.160   5.110  19.330  0.00  0.00    +0.000 HD
ATOM     31  H   UNL     1      46.911   3.922  19.479  0.00  0.00    +0.000 HD
ENDBRANCH  23  27
ENDBRANCH  18  19
ENDBRANCH  17  18
ENDBRANCH   3  17
BRANCH   5  32
ATOM     32  O   UNL     1      46.012  12.116  11.743  0.00  0.00    +0.000 OA
BRANCH  32  33
ATOM     33  C   UNL     1      46.480  12.854  10.612  0.00  0.00    +0.000 C 
ATOM     34  C   UNL     1      45.712  12.503   9.346  0.00  0.00    +0.000 C 
ENDBRANCH  32  33
ENDBRANCH   5  32
TORSDOF 10
ENDMDL
MODEL 8
REMARK VINA RESULT:    -5.440      2.996      5.722
REMARK INTER + INTRA:          -9.912
REMARK INTER:                  -8.430
REMARK INTRA:                  -1.481
REMARK UNBOUND:                -1.291
REMARK  Name = 
REMARK  12 active torsions:
REMARK  status: ('A' for Active; 'I' for Inactive)
REMARK    1  A    between atoms: C_1  and  C_2
REMARK    2  A    between atoms: C_2  and  O_3
REMARK    3  A    between atoms: O_3  and  C_4
REMARK    4  A    between atoms: C_6  and  C_7
REMARK    5  A    between atoms: C_7  and  C_8
REMARK    6  A    between atoms: C_8  and  N_9
REMARK    7  A    between atoms: C_13  and  C_14
REMARK    8  A    between atoms: C_20  and  O_21
REMARK    9  A    between atoms: O_21  and  C_22
REMARK   10  A    between atoms: C_22  and  C_23
REMARK   11  A    between atoms: C_24  and  N_25
REMARK   12  A    between atoms: N_25  and  C_26
REMARK                            x       y       z     vdW  Elec       q    Type
REMARK                         _______ _______ _______ _____ _____    ______ ____
ROOT
ATOM      1  C   UNL     1      49.007   6.024  16.326  0.00  0.00    +0.000 A 
ATOM      2  C   UNL     1      48.587   6.695  15.170  0.00  0.00    +0.000 A 
ATOM      3  C   UNL     1      48.885   8.044  14.928  0.00  0.00    +0.000 A 
ATOM      4  C   UNL     1      49.617   8.736  15.895  0.00  0.00    +0.000 A 
ATOM      5  C   UNL     1      50.038   8.103  17.074  0.00  0.00    +0.000 A 
ATOM      6  C   UNL     1      49.739   6.728  17.303  0.00  0.00    +0.000 A 
ENDROOT
BRANCH   6   7
ATOM      7  N   UNL     1      50.167   6.149  18.529  0.00  0.00    +0.000 N 
ATOM      8  H   UNL     1      50.851   5.416  18.358  0.00  0.00    +0.000 HD
BRANCH   7   9
ATOM      9  C   UNL     1      49.495   6.105  19.795  0.00  0.00    +0.000 C 
ATOM     10  C   UNL     1      49.063   4.670  20.176  0.00  0.00    +0.000 C 
ATOM     11  N   UNL     1      47.709   5.154  20.493  0.00  0.00    +0.000 NA
ATOM     12  C   UNL     1      47.992   6.423  19.793  0.00  0.00    +0.000 C 
ATOM     13  H   UNL     1      47.548   5.279  21.492  0.00  0.00    +0.000 HD
ENDBRANCH   7   9
ENDBRANCH   6   7
BRANCH   1  14
ATOM     14  O   UNL     1      48.756   4.687  16.523  0.00  0.00    +0.000 OA
BRANCH  14  16
ATOM     15  C   UNL     1      47.341   2.991  17.471  0.00  0.00    +0.000 C 
ATOM     16  C   UNL     1      47.390   4.298  16.703  0.00  0.00    +0.000 C 
ENDBRANCH  14  16
ENDBRANCH   1  14
BRANCH   3  17
ATOM     17  C   UNL     1      48.436   8.774  13.672  0.00  0.00    +0.000 C 
BRANCH  17  18
ATOM     18  C   UNL     1      46.982   8.487  13.295  0.00  0.00    +0.000 C 
BRANCH  18  19
ATOM     19  N   UNL     1      46.806   8.021  11.921  0.00  0.00    +0.000 N 
ATOM     20  C   UNL     1      46.123   6.779  11.921  0.00  0.00    +0.000 A 
ATOM     21  C   UNL     1      45.851   6.164  10.704  0.00  0.00    +0.000 A 
ATOM     22  C   UNL     1      45.163   4.946  10.688  0.00  0.00    +0.000 A 
ATOM     23  C   UNL     1      44.759   4.370  11.892  0.00  0.00    +0.000 A 
ATOM     24  C   UNL     1      45.076   5.040  13.059  0.00  0.00    +0.000 A 
ATOM     25  N   UNL     1      45.732   6.222  13.086  0.00  0.00    +0.000 NA
ATOM     26  H   UNL     1      47.691   7.898  11.436  0.00  0.00    +0.000 HD
BRANCH  23  27
ATOM     27  C   UNL     1      44.040   3.086  11.998  0.00  0.00    +0.000 C 
ATOM     28  N   UNL     1      43.939   2.327  10.866  0.00  0.00    +0.000 N 
ATOM     29  O   UNL     1      43.523   2.719  13.044  0.00  0.00    +0.000 OA
ATOM     30  H   UNL     1      44.117   2.696   9.943  0.00  0.00    +0.000 HD
ATOM     31  H   UNL     1      43.350   1.507  10.939  0.00  0.00    +0.000 HD
ENDBRANCH  23  27
ENDBRANCH  18  19
ENDBRANCH  17  18
ENDBRANCH   3  17
BRANCH   5  32
ATOM     32  O   UNL     1      50.732   8.743  18.078  0.00  0.00    +0.000 OA
BRANCH  32  33
ATOM     33  C   UNL     1      50.467  10.123  18.341  0.00  0.00    +0.000 C 
ATOM     34  C   UNL     1      51.744  10.950  18.381  0.00  0.00    +0.000 C 
ENDBRANCH  32  33
ENDBRANCH   5  32
TORSDOF 10
ENDMDL
MODEL 9
REMARK VINA RESULT:    -5.433      3.266      5.529
REMARK INTER + INTRA:          -9.901
REMARK INTER:                  -8.637
REMARK INTRA:                  -1.263
REMARK UNBOUND:                -1.291
REMARK  Name = 
REMARK  12 active torsions:
REMARK  status: ('A' for Active; 'I' for Inactive)
REMARK    1  A    between atoms: C_1  and  C_2
REMARK    2  A    between atoms: C_2  and  O_3
REMARK    3  A    between atoms: O_3  and  C_4
REMARK    4  A    between atoms: C_6  and  C_7
REMARK    5  A    between atoms: C_7  and  C_8
REMARK    6  A    between atoms: C_8  and  N_9
REMARK    7  A    between atoms: C_13  and  C_14
REMARK    8  A    between atoms: C_20  and  O_21
REMARK    9  A    between atoms: O_21  and  C_22
REMARK   10  A    between atoms: C_22  and  C_23
REMARK   11  A    between atoms: C_24  and  N_25
REMARK   12  A    between atoms: N_25  and  C_26
REMARK                            x       y       z     vdW  Elec       q    Type
REMARK                         _______ _______ _______ _____ _____    ______ ____
ROOT
ATOM      1  C   UNL     1      49.455   8.202  18.072  0.00  0.00    +0.000 A 
ATOM      2  C   UNL     1      49.284   8.379  16.693  0.00  0.00    +0.000 A 
ATOM      3  C   UNL     1      49.342   7.314  15.781  0.00  0.00    +0.000 A 
ATOM      4  C   UNL     1      49.597   6.036  16.283  0.00  0.00    +0.000 A 
ATOM      5  C   UNL     1      49.793   5.824  17.656  0.00  0.00    +0.000 A 
ATOM      6  C   UNL     1      49.719   6.912  18.574  0.00  0.00    +0.000 A 
ENDROOT
BRANCH   6   7
ATOM      7  N   UNL     1      49.955   6.639  19.949  0.00  0.00    +0.000 N 
ATOM      8  H   UNL     1      50.881   6.239  20.080  0.00  0.00    +0.000 HD
BRANCH   7   9
ATOM      9  C   UNL     1      49.011   6.406  21.003  0.00  0.00    +0.000 C 
ATOM     10  C   UNL     1      49.131   4.979  21.588  0.00  0.00    +0.000 C 
ATOM     11  N   UNL     1      47.674   4.800  21.467  0.00  0.00    +0.000 NA
ATOM     12  C   UNL     1      47.595   5.980  20.583  0.00  0.00    +0.000 C 
ATOM     13  H   UNL     1      47.177   4.929  22.347  0.00  0.00    +0.000 HD
ENDBRANCH   7   9
ENDBRANCH   6   7
BRANCH   1  14
ATOM     14  O   UNL     1      49.340   9.246  18.960  0.00  0.00    +0.000 OA
BRANCH  14  16
ATOM     15  C   UNL     1      47.048   9.450  19.654  0.00  0.00    +0.000 C 
ATOM     16  C   UNL     1      48.175  10.071  18.851  0.00  0.00    +0.000 C 
ENDBRANCH  14  16
ENDBRANCH   1  14
BRANCH   3  17
ATOM     17  C   UNL     1      49.152   7.501  14.284  0.00  0.00    +0.000 C 
BRANCH  17  18
ATOM     18  C   UNL     1      47.700   7.328  13.836  0.00  0.00    +0.000 C 
BRANCH  18  19
ATOM     19  N   UNL     1      47.072   6.100  14.320  0.00  0.00    +0.000 N 
ATOM     20  C   UNL     1      46.360   5.478  13.264  0.00  0.00    +0.000 A 
ATOM     21  C   UNL     1      45.690   4.287  13.518  0.00  0.00    +0.000 A 
ATOM     22  C   UNL     1      44.997   3.653  12.482  0.00  0.00    +0.000 A 
ATOM     23  C   UNL     1      44.990   4.225  11.211  0.00  0.00    +0.000 A 
ATOM     24  C   UNL     1      45.673   5.415  11.042  0.00  0.00    +0.000 A 
ATOM     25  N   UNL     1      46.354   6.032  12.033  0.00  0.00    +0.000 NA
ATOM     26  H   UNL     1      46.425   6.270  15.085  0.00  0.00    +0.000 HD
BRANCH  23  27
ATOM     27  C   UNL     1      44.284   3.654  10.047  0.00  0.00    +0.000 C 
ATOM     28  N   UNL     1      44.008   4.495   9.007  0.00  0.00    +0.000 N 
ATOM     29  O   UNL     1      43.928   2.484  10.016  0.00  0.00    +0.000 OA
ATOM     30  H   UNL     1      44.048   5.501   9.091  0.00  0.00    +0.000 HD
ATOM     31  H   UNL     1      43.431   4.108   8.271  0.00  0.00    +0.000 HD
ENDBRANCH  23  27
ENDBRANCH  18  19
ENDBRANCH  17  18
ENDBRANCH   3  17
BRANCH   5  32
ATOM     32  O   UNL     1      50.082   4.592  18.203  0.00  0.00    +0.000 OA
BRANCH  32  33
ATOM     33  C   UNL     1      49.513   3.418  17.621  0.00  0.00    +0.000 C 
ATOM     34  C   UNL     1      48.091   3.174  18.105  0.00  0.00    +0.000 C 
ENDBRANCH  32  33
ENDBRANCH   5  32
TORSDOF 10
ENDMDL
