MODEL 1
REMARK VINA RESULT:    -7.801      0.000      0.000
REMARK INTER + INTRA:         -10.190
REMARK INTER:                  -9.625
REMARK INTRA:                  -0.565
REMARK UNBOUND:                -0.565
REMARK  Name = 
REMARK  4 active torsions:
REMARK  status: ('A' for Active; 'I' for Inactive)
REMARK    1  A    between atoms: C_2  and  C_4
REMARK    2  A    between atoms: N_8  and  C_9
REMARK    3  A    between atoms: C_9  and  C_10
REMARK    4  A    between atoms: C_11  and  C_12
REMARK                            x       y       z     vdW  Elec       q    Type
REMARK                         _______ _______ _______ _____ _____    ______ ____
ROOT
ATOM      1  C   UNL     1      46.986   5.825  13.546  0.00  0.00    +0.000 A 
ATOM      2  C   UNL     1      45.910   6.188  12.744  0.00  0.00    +0.000 A 
ATOM      3  C   UNL     1      45.016   5.207  12.320  0.00  0.00    +0.000 A 
ATOM      4  C   UNL     1      45.218   3.880  12.676  0.00  0.00    +0.000 A 
ATOM      5  N   UNL     1      44.344   2.867  12.340  0.00  0.00    +0.000 N 
ATOM      6  N   UNL     1      46.264   3.514  13.445  0.00  0.00    +0.000 NA
ATOM      7  C   UNL     1      47.127   4.482  13.858  0.00  0.00    +0.000 A 
ATOM      8  H   UNL     1      44.742   1.975  12.618  0.00  0.00    +0.000 HD
ENDROOT
BRANCH   1  10
ATOM      9  N   UNL     1      47.509   8.076  14.288  0.00  0.00    +0.000 N 
ATOM     10  C   UNL     1      47.965   6.807  14.050  0.00  0.00    +0.000 C 
ATOM     11  O   UNL     1      49.130   6.498  14.269  0.00  0.00    +0.000 OA
ATOM     12  H   UNL     1      48.163   8.723  14.711  0.00  0.00    +0.000 HD
ATOM     13  H   UNL     1      46.525   8.302  14.349  0.00  0.00    +0.000 HD
ENDBRANCH   1  10
BRANCH   5  14
ATOM     14  C   UNL     1      43.599   2.862  11.099  0.00  0.00    +0.000 C 
BRANCH  14  15
ATOM     15  C   UNL     1      44.460   2.321  10.001  0.00  0.00    +0.000 C 
ATOM     16  C   UNL     1      45.023   3.100   9.062  0.00  0.00    +0.000 C 
BRANCH  16  17
ATOM     17  C   UNL     1      45.848   2.624   7.942  0.00  0.00    +0.000 A 
ATOM     18  C   UNL     1      46.152   3.435   6.842  0.00  0.00    +0.000 A 
ATOM     19  C   UNL     1      47.014   2.983   5.839  0.00  0.00    +0.000 A 
ATOM     20  C   UNL     1      47.587   1.716   5.930  0.00  0.00    +0.000 A 
ATOM     21  C   UNL     1      47.293   0.898   7.019  0.00  0.00    +0.000 A 
ATOM     22  C   UNL     1      46.431   1.350   8.019  0.00  0.00    +0.000 A 
ENDBRANCH  16  17
ENDBRANCH  14  15
ENDBRANCH   5  14
TORSDOF 4
ENDMDL
MODEL 2
REMARK VINA RESULT:    -7.500      3.326      7.120
REMARK INTER + INTRA:          -9.819
REMARK INTER:                  -9.323
REMARK INTRA:                  -0.496
REMARK UNBOUND:                -0.565
REMARK  Name = 
REMARK  4 active torsions:
REMARK  status: ('A' for Active; 'I' for Inactive)
REMARK    1  A    between atoms: C_2  and  C_4
REMARK    2  A    between atoms: N_8  and  C_9
REMARK    3  A    between atoms: C_9  and  C_10
REMARK    4  A    between atoms: C_11  and  C_12
REMARK                            x       y       z     vdW  Elec       q    Type
REMARK                         _______ _______ _______ _____ _____    ______ ____
ROOT
ATOM      1  C   UNL     1      46.613   2.450   7.460  0.00  0.00    +0.000 A 
ATOM      2  C   UNL     1      45.845   1.800   8.420  0.00  0.00    +0.000 A 
ATOM      3  C   UNL     1      44.931   2.536   9.173  0.00  0.00    +0.000 A 
ATOM      4  C   UNL     1      44.813   3.906   8.979  0.00  0.00    +0.000 A 
ATOM      5  N   UNL     1      43.892   4.685   9.648  0.00  0.00    +0.000 N 
ATOM      6  N   UNL     1      45.560   4.549   8.059  0.00  0.00    +0.000 NA
ATOM      7  C   UNL     1      46.444   3.819   7.325  0.00  0.00    +0.000 A 
ATOM      8  H   UNL     1      44.054   5.662   9.422  0.00  0.00    +0.000 HD
ENDROOT
BRANCH   1  10
ATOM      9  N   UNL     1      48.760   2.386   6.330  0.00  0.00    +0.000 N 
ATOM     10  C   UNL     1      47.587   1.738   6.611  0.00  0.00    +0.000 C 
ATOM     11  O   UNL     1      47.369   0.608   6.192  0.00  0.00    +0.000 OA
ATOM     12  H   UNL     1      49.457   1.862   5.816  0.00  0.00    +0.000 HD
ATOM     13  H   UNL     1      49.073   3.200   6.843  0.00  0.00    +0.000 HD
ENDBRANCH   1  10
BRANCH   5  14
ATOM     14  C   UNL     1      43.487   4.414  11.010  0.00  0.00    +0.000 C 
BRANCH  14  15
ATOM     15  C   UNL     1      44.513   4.959  11.955  0.00  0.00    +0.000 C 
ATOM     16  C   UNL     1      45.083   6.165  11.800  0.00  0.00    +0.000 C 
BRANCH  16  17
ATOM     17  C   UNL     1      46.117   6.739  12.673  0.00  0.00    +0.000 A 
ATOM     18  C   UNL     1      47.175   5.973  13.179  0.00  0.00    +0.000 A 
ATOM     19  C   UNL     1      48.191   6.569  13.931  0.00  0.00    +0.000 A 
ATOM     20  C   UNL     1      48.164   7.940  14.178  0.00  0.00    +0.000 A 
ATOM     21  C   UNL     1      47.117   8.714  13.681  0.00  0.00    +0.000 A 
ATOM     22  C   UNL     1      46.102   8.117  12.932  0.00  0.00    +0.000 A 
ENDBRANCH  16  17
ENDBRANCH  14  15
ENDBRANCH   5  14
TORSDOF 4
ENDMDL
MODEL 3
REMARK VINA RESULT:    -7.278      1.820      2.092
REMARK INTER + INTRA:          -9.545
REMARK INTER:                  -9.270
REMARK INTRA:                  -0.275
REMARK UNBOUND:                -0.565
REMARK  Name = 
REMARK  4 active torsions:
REMARK  status: ('A' for Active; 'I' for Inactive)
REMARK    1  A    between atoms: C_2  and  C_4
REMARK    2  A    between atoms: N_8  and  C_9
REMARK    3  A    between atoms: C_9  and  C_10
REMARK    4  A    between atoms: C_11  and  C_12
REMARK                            x       y       z     vdW  Elec       q    Type
REMARK                         _______ _______ _______ _____ _____    ______ ____
ROOT
ATOM      1  C   UNL     1      46.600   4.607  14.109  0.00  0.00    +0.000 A 
ATOM      2  C   UNL     1      46.211   3.572  13.265  0.00  0.00    +0.000 A 
ATOM      3  C   UNL     1      45.581   3.879  12.059  0.00  0.00    +0.000 A 
ATOM      4  C   UNL     1      45.326   5.202  11.724  0.00  0.00    +0.000 A 
ATOM      5  N   UNL     1      44.759   5.579  10.525  0.00  0.00    +0.000 N 
ATOM      6  N   UNL     1      45.689   6.213  12.539  0.00  0.00    +0.000 NA
ATOM      7  C   UNL     1      46.309   5.901  13.711  0.00  0.00    +0.000 A 
ATOM      8  H   UNL     1      44.577   6.579  10.540  0.00  0.00    +0.000 HD
ENDROOT
BRANCH   1  10
ATOM      9  N   UNL     1      47.829   5.452  16.023  0.00  0.00    +0.000 N 
ATOM     10  C   UNL     1      47.288   4.365  15.392  0.00  0.00    +0.000 C 
ATOM     11  O   UNL     1      47.353   3.245  15.884  0.00  0.00    +0.000 OA
ATOM     12  H   UNL     1      48.227   5.293  16.941  0.00  0.00    +0.000 HD
ATOM     13  H   UNL     1      47.593   6.403  15.777  0.00  0.00    +0.000 HD
ENDBRANCH   1  10
BRANCH   5  14
ATOM     14  C   UNL     1      43.770   4.773   9.843  0.00  0.00    +0.000 C 
BRANCH  14  15
ATOM     15  C   UNL     1      44.456   3.722   9.028  0.00  0.00    +0.000 C 
ATOM     16  C   UNL     1      45.465   3.994   8.185  0.00  0.00    +0.000 C 
BRANCH  16  17
ATOM     17  C   UNL     1      46.154   3.012   7.334  0.00  0.00    +0.000 A 
ATOM     18  C   UNL     1      46.592   3.322   6.040  0.00  0.00    +0.000 A 
ATOM     19  C   UNL     1      47.323   2.394   5.294  0.00  0.00    +0.000 A 
ATOM     20  C   UNL     1      47.632   1.149   5.837  0.00  0.00    +0.000 A 
ATOM     21  C   UNL     1      47.204   0.827   7.124  0.00  0.00    +0.000 A 
ATOM     22  C   UNL     1      46.471   1.754   7.868  0.00  0.00    +0.000 A 
ENDBRANCH  16  17
ENDBRANCH  14  15
ENDBRANCH   5  14
TORSDOF 4
ENDMDL
MODEL 4
REMARK VINA RESULT:    -7.242      1.361      1.818
REMARK INTER + INTRA:          -9.501
REMARK INTER:                  -9.127
REMARK INTRA:                  -0.374
REMARK UNBOUND:                -0.565
REMARK  Name = 
REMARK  4 active torsions:
REMARK  status: ('A' for Active; 'I' for Inactive)
REMARK    1  A    between atoms: C_2  and  C_4
REMARK    2  A    between atoms: N_8  and  C_9
REMARK    3  A    between atoms: C_9  and  C_10
REMARK    4  A    between atoms: C_11  and  C_12
REMARK                            x       y       z     vdW  Elec       q    Type
REMARK                         _______ _______ _______ _____ _____    ______ ____
ROOT
ATOM      1  C   UNL     1      46.108   7.294  12.835  0.00  0.00    +0.000 A 
ATOM      2  C   UNL     1      44.921   7.175  12.120  0.00  0.00    +0.000 A 
ATOM      3  C   UNL     1      44.393   5.907  11.884  0.00  0.00    +0.000 A 
ATOM      4  C   UNL     1      45.063   4.779  12.339  0.00  0.00    +0.000 A 
ATOM      5  N   UNL     1      44.571   3.499  12.191  0.00  0.00    +0.000 N 
ATOM      6  N   UNL     1      46.220   4.881  13.025  0.00  0.00    +0.000 NA
ATOM      7  C   UNL     1      46.723   6.126  13.254  0.00  0.00    +0.000 A 
ATOM      8  H   UNL     1      45.269   2.833  12.508  0.00  0.00    +0.000 HD
ENDROOT
BRANCH   1  10
ATOM      9  N   UNL     1      47.085   8.831  14.440  0.00  0.00    +0.000 N 
ATOM     10  C   UNL     1      46.720   8.602  13.140  0.00  0.00    +0.000 C 
ATOM     11  O   UNL     1      46.916   9.439  12.267  0.00  0.00    +0.000 OA
ATOM     12  H   UNL     1      47.578   9.695  14.628  0.00  0.00    +0.000 HD
ATOM     13  H   UNL     1      47.160   8.092  15.126  0.00  0.00    +0.000 HD
ENDBRANCH   1  10
BRANCH   5  14
ATOM     14  C   UNL     1      43.792   3.093  11.042  0.00  0.00    +0.000 C 
BRANCH  14  15
ATOM     15  C   UNL     1      44.634   3.188   9.808  0.00  0.00    +0.000 C 
ATOM     16  C   UNL     1      45.176   2.115   9.207  0.00  0.00    +0.000 C 
BRANCH  16  17
ATOM     17  C   UNL     1      46.037   2.149   8.016  0.00  0.00    +0.000 A 
ATOM     18  C   UNL     1      46.793   1.042   7.610  0.00  0.00    +0.000 A 
ATOM     19  C   UNL     1      47.529   1.078   6.423  0.00  0.00    +0.000 A 
ATOM     20  C   UNL     1      47.510   2.219   5.624  0.00  0.00    +0.000 A 
ATOM     21  C   UNL     1      46.761   3.327   6.015  0.00  0.00    +0.000 A 
ATOM     22  C   UNL     1      46.028   3.291   7.203  0.00  0.00    +0.000 A 
ENDBRANCH  16  17
ENDBRANCH  14  15
ENDBRANCH   5  14
TORSDOF 4
ENDMDL
MODEL 5
REMARK VINA RESULT:    -5.956      4.585      8.114
REMARK INTER + INTRA:          -7.914
REMARK INTER:                  -7.529
REMARK INTRA:                  -0.384
REMARK UNBOUND:                -0.565
REMARK  Name = 
REMARK  4 active torsions:
REMARK  status: ('A' for Active; 'I' for Inactive)
REMARK    1  A    between atoms: C_2  and  C_4
REMARK    2  A    between atoms: N_8  and  C_9
REMARK    3  A    between atoms: C_9  and  C_10
REMARK    4  A    between atoms: C_11  and  C_12
REMARK                            x       y       z     vdW  Elec       q    Type
REMARK                         _______ _______ _______ _____ _____    ______ ____
ROOT
ATOM      1  C   UNL     1      45.811   5.357  12.126  0.00  0.00    +0.000 A 
ATOM      2  C   UNL     1      46.437   6.054  13.153  0.00  0.00    +0.000 A 
ATOM      3  C   UNL     1      46.952   5.347  14.239  0.00  0.00    +0.000 A 
ATOM      4  C   UNL     1      46.815   3.966  14.299  0.00  0.00    +0.000 A 
ATOM      5  N   UNL     1      47.349   3.199  15.313  0.00  0.00    +0.000 N 
ATOM      6  N   UNL     1      46.200   3.281  13.313  0.00  0.00    +0.000 NA
ATOM      7  C   UNL     1      45.707   3.982  12.255  0.00  0.00    +0.000 A 
ATOM      8  H   UNL     1      47.041   2.238  15.203  0.00  0.00    +0.000 HD
ENDROOT
BRANCH   1  10
ATOM      9  N   UNL     1      45.419   5.402   9.731  0.00  0.00    +0.000 N 
ATOM     10  C   UNL     1      45.257   6.031  10.936  0.00  0.00    +0.000 C 
ATOM     11  O   UNL     1      44.657   7.096  11.022  0.00  0.00    +0.000 OA
ATOM     12  H   UNL     1      44.966   5.827   8.931  0.00  0.00    +0.000 HD
ATOM     13  H   UNL     1      45.687   4.430   9.652  0.00  0.00    +0.000 HD
ENDBRANCH   1  10
BRANCH   5  14
ATOM     14  C   UNL     1      47.451   3.673  16.676  0.00  0.00    +0.000 C 
BRANCH  14  15
ATOM     15  C   UNL     1      48.873   3.582  17.134  0.00  0.00    +0.000 C 
ATOM     16  C   UNL     1      49.618   2.474  16.987  0.00  0.00    +0.000 C 
BRANCH  16  17
ATOM     17  C   UNL     1      51.006   2.313  17.446  0.00  0.00    +0.000 A 
ATOM     18  C   UNL     1      51.651   1.070  17.449  0.00  0.00    +0.000 A 
ATOM     19  C   UNL     1      52.999   0.967  17.805  0.00  0.00    +0.000 A 
ATOM     20  C   UNL     1      53.717   2.109  18.154  0.00  0.00    +0.000 A 
ATOM     21  C   UNL     1      53.088   3.352  18.155  0.00  0.00    +0.000 A 
ATOM     22  C   UNL     1      51.741   3.453  17.801  0.00  0.00    +0.000 A 
ENDBRANCH  16  17
ENDBRANCH  14  15
ENDBRANCH   5  14
TORSDOF 4
ENDMDL
MODEL 6
REMARK VINA RESULT:    -5.859      4.747      7.760
REMARK INTER + INTRA:          -7.795
REMARK INTER:                  -7.305
REMARK INTRA:                  -0.489
REMARK UNBOUND:                -0.565
REMARK  Name = 
REMARK  4 active torsions:
REMARK  status: ('A' for Active; 'I' for Inactive)
REMARK    1  A    between atoms: C_2  and  C_4
REMARK    2  A    between atoms: N_8  and  C_9
REMARK    3  A    between atoms: C_9  and  C_10
REMARK    4  A    between atoms: C_11  and  C_12
REMARK                            x       y       z     vdW  Elec       q    Type
REMARK                         _______ _______ _______ _____ _____    ______ ____
ROOT
ATOM      1  C   UNL     1      44.412   4.227  11.492  0.00  0.00    +0.000 A 
ATOM      2  C   UNL     1      45.350   4.963  10.777  0.00  0.00    +0.000 A 
ATOM      3  C   UNL     1      45.814   6.167  11.303  0.00  0.00    +0.000 A 
ATOM      4  C   UNL     1      45.323   6.632  12.516  0.00  0.00    +0.000 A 
ATOM      5  N   UNL     1      45.778   7.784  13.122  0.00  0.00    +0.000 N 
ATOM      6  N   UNL     1      44.406   5.931  13.214  0.00  0.00    +0.000 NA
ATOM      7  C   UNL     1      43.965   4.753  12.693  0.00  0.00    +0.000 A 
ATOM      8  H   UNL     1      45.211   7.978  13.942  0.00  0.00    +0.000 HD
ENDROOT
BRANCH   1  10
ATOM      9  N   UNL     1      44.571   2.322   9.996  0.00  0.00    +0.000 N 
ATOM     10  C   UNL     1      43.887   2.934  11.011  0.00  0.00    +0.000 C 
ATOM     11  O   UNL     1      42.894   2.418  11.511  0.00  0.00    +0.000 OA
ATOM     12  H   UNL     1      44.254   1.399   9.725  0.00  0.00    +0.000 HD
ATOM     13  H   UNL     1      45.508   2.590   9.727  0.00  0.00    +0.000 HD
ENDBRANCH   1  10
BRANCH   5  14
ATOM     14  C   UNL     1      46.206   8.943  12.369  0.00  0.00    +0.000 C 
BRANCH  14  15
ATOM     15  C   UNL     1      45.043   9.861  12.157  0.00  0.00    +0.000 C 
ATOM     16  C   UNL     1      44.109   9.651  11.215  0.00  0.00    +0.000 C 
BRANCH  16  17
ATOM     17  C   UNL     1      42.965  10.533  10.937  0.00  0.00    +0.000 A 
ATOM     18  C   UNL     1      43.111  11.916  10.778  0.00  0.00    +0.000 A 
ATOM     19  C   UNL     1      42.018  12.712  10.424  0.00  0.00    +0.000 A 
ATOM     20  C   UNL     1      40.769  12.131  10.218  0.00  0.00    +0.000 A 
ATOM     21  C   UNL     1      40.610  10.756  10.372  0.00  0.00    +0.000 A 
ATOM     22  C   UNL     1      41.702   9.961  10.727  0.00  0.00    +0.000 A 
ENDBRANCH  16  17
ENDBRANCH  14  15
ENDBRANCH   5  14
TORSDOF 4
ENDMDL
MODEL 7
REMARK VINA RESULT:    -5.541      4.115      8.980
REMARK INTER + INTRA:          -7.401
REMARK INTER:                  -6.944
REMARK INTRA:                  -0.458
REMARK UNBOUND:                -0.565
REMARK  Name = 
REMARK  4 active torsions:
REMARK  status: ('A' for Active; 'I' for Inactive)
REMARK    1  A    between atoms: C_2  and  C_4
REMARK    2  A    between atoms: N_8  and  C_9
REMARK    3  A    between atoms: C_9  and  C_10
REMARK    4  A    between atoms: C_11  and  C_12
REMARK                            x       y       z     vdW  Elec       q    Type
REMARK                         _______ _______ _______ _____ _____    ______ ____
ROOT
ATOM      1  C   UNL     1      45.105   3.993  11.928  0.00  0.00    +0.000 A 
ATOM      2  C   UNL     1      45.954   3.487  12.906  0.00  0.00    +0.000 A 
ATOM      3  C   UNL     1      46.721   4.371  13.663  0.00  0.00    +0.000 A 
ATOM      4  C   UNL     1      46.652   5.737  13.421  0.00  0.00    +0.000 A 
ATOM      5  N   UNL     1      47.340   6.670  14.168  0.00  0.00    +0.000 N 
ATOM      6  N   UNL     1      45.840   6.238  12.467  0.00  0.00    +0.000 NA
ATOM      7  C   UNL     1      45.091   5.365  11.738  0.00  0.00    +0.000 A 
ATOM      8  H   UNL     1      47.217   7.588  13.751  0.00  0.00    +0.000 HD
ENDROOT
BRANCH   1  10
ATOM      9  N   UNL     1      44.853   2.440  10.079  0.00  0.00    +0.000 N 
ATOM     10  C   UNL     1      44.247   3.124  11.098  0.00  0.00    +0.000 C 
ATOM     11  O   UNL     1      43.050   3.000  11.324  0.00  0.00    +0.000 OA
ATOM     12  H   UNL     1      44.277   1.784   9.565  0.00  0.00    +0.000 HD
ATOM     13  H   UNL     1      45.856   2.330  10.013  0.00  0.00    +0.000 HD
ENDBRANCH   1  10
BRANCH   5  14
ATOM     14  C   UNL     1      48.645   6.407  14.732  0.00  0.00    +0.000 C 
BRANCH  14  15
ATOM     15  C   UNL     1      48.572   6.490  16.225  0.00  0.00    +0.000 C 
ATOM     16  C   UNL     1      48.454   5.407  17.012  0.00  0.00    +0.000 C 
BRANCH  16  17
ATOM     17  C   UNL     1      48.343   5.428  18.478  0.00  0.00    +0.000 A 
ATOM     18  C   UNL     1      47.402   6.223  19.145  0.00  0.00    +0.000 A 
ATOM     19  C   UNL     1      47.263   6.149  20.533  0.00  0.00    +0.000 A 
ATOM     20  C   UNL     1      48.058   5.273  21.269  0.00  0.00    +0.000 A 
ATOM     21  C   UNL     1      48.997   4.475  20.619  0.00  0.00    +0.000 A 
ATOM     22  C   UNL     1      49.138   4.551  19.232  0.00  0.00    +0.000 A 
ENDBRANCH  16  17
ENDBRANCH  14  15
ENDBRANCH   5  14
TORSDOF 4
ENDMDL
MODEL 8
REMARK VINA RESULT:    -5.451      3.700      6.947
REMARK INTER + INTRA:          -7.291
REMARK INTER:                  -6.849
REMARK INTRA:                  -0.442
REMARK UNBOUND:                -0.565
REMARK  Name = 
REMARK  4 active torsions:
REMARK  status: ('A' for Active; 'I' for Inactive)
REMARK    1  A    between atoms: C_2  and  C_4
REMARK    2  A    between atoms: N_8  and  C_9
REMARK    3  A    between atoms: C_9  and  C_10
REMARK    4  A    between atoms: C_11  and  C_12
REMARK                            x       y       z     vdW  Elec       q    Type
REMARK                         _______ _______ _______ _____ _____    ______ ____
ROOT
ATOM      1  C   UNL     1      44.768   4.059  11.504  0.00  0.00    +0.000 A 
ATOM      2  C   UNL     1      45.159   5.193  10.800  0.00  0.00    +0.000 A 
ATOM      3  C   UNL     1      45.783   6.235  11.483  0.00  0.00    +0.000 A 
ATOM      4  C   UNL     1      45.986   6.146  12.855  0.00  0.00    +0.000 A 
ATOM      5  N   UNL     1      46.646   7.113  13.583  0.00  0.00    +0.000 N 
ATOM      6  N   UNL     1      45.601   5.056  13.549  0.00  0.00    +0.000 NA
ATOM      7  C   UNL     1      44.998   4.042  12.869  0.00  0.00    +0.000 A 
ATOM      8  H   UNL     1      46.588   6.885  14.571  0.00  0.00    +0.000 HD
ENDROOT
BRANCH   1  10
ATOM      9  N   UNL     1      43.353   2.092  11.638  0.00  0.00    +0.000 N 
ATOM     10  C   UNL     1      44.119   2.907  10.849  0.00  0.00    +0.000 C 
ATOM     11  O   UNL     1      44.239   2.699   9.647  0.00  0.00    +0.000 OA
ATOM     12  H   UNL     1      42.844   1.352  11.169  0.00  0.00    +0.000 HD
ATOM     13  H   UNL     1      43.039   2.360  12.561  0.00  0.00    +0.000 HD
ENDBRANCH   1  10
BRANCH   5  14
ATOM     14  C   UNL     1      46.568   8.521  13.259  0.00  0.00    +0.000 C 
BRANCH  14  15
ATOM     15  C   UNL     1      47.911   9.007  12.809  0.00  0.00    +0.000 C 
ATOM     16  C   UNL     1      48.666   8.346  11.916  0.00  0.00    +0.000 C 
BRANCH  16  17
ATOM     17  C   UNL     1      50.004   8.754  11.463  0.00  0.00    +0.000 A 
ATOM     18  C   UNL     1      50.991   7.823  11.118  0.00  0.00    +0.000 A 
ATOM     19  C   UNL     1      52.220   8.245  10.603  0.00  0.00    +0.000 A 
ATOM     20  C   UNL     1      52.472   9.603  10.421  0.00  0.00    +0.000 A 
ATOM     21  C   UNL     1      51.498  10.541  10.759  0.00  0.00    +0.000 A 
ATOM     22  C   UNL     1      50.271  10.118  11.275  0.00  0.00    +0.000 A 
ENDBRANCH  16  17
ENDBRANCH  14  15
ENDBRANCH   5  14
TORSDOF 4
ENDMDL
MODEL 9
REMARK VINA RESULT:    -5.363      2.341      3.606
REMARK INTER + INTRA:          -7.182
REMARK INTER:                  -6.665
REMARK INTRA:                  -0.517
REMARK UNBOUND:                -0.565
REMARK  Name = 
REMARK  4 active torsions:
REMARK  status: ('A' for Active; 'I' for Inactive)
REMARK    1  A    between atoms: C_2  and  C_4
REMARK    2  A    between atoms: N_8  and  C_9
REMARK    3  A    between atoms: C_9  and  C_10
REMARK    4  A    between atoms: C_11  and  C_12
REMARK                            x       y       z     vdW  Elec       q    Type
REMARK                         _______ _______ _______ _____ _____    ______ ____
ROOT
ATOM      1  C   UNL     1      49.859   8.293  13.104  0.00  0.00    +0.000 A 
ATOM      2  C   UNL     1      48.911   8.891  12.281  0.00  0.00    +0.000 A 
ATOM      3  C   UNL     1      47.590   8.448  12.331  0.00  0.00    +0.000 A 
ATOM      4  C   UNL     1      47.237   7.405  13.178  0.00  0.00    +0.000 A 
ATOM      5  N   UNL     1      45.942   6.955  13.320  0.00  0.00    +0.000 N 
ATOM      6  N   UNL     1      48.150   6.810  13.973  0.00  0.00    +0.000 NA
ATOM      7  C   UNL     1      49.436   7.256  13.919  0.00  0.00    +0.000 A 
ATOM      8  H   UNL     1      45.937   6.128  13.910  0.00  0.00    +0.000 HD
ENDROOT
BRANCH   1  10
ATOM      9  N   UNL     1      52.153   7.982  12.376  0.00  0.00    +0.000 N 
ATOM     10  C   UNL     1      51.272   8.718  13.121  0.00  0.00    +0.000 C 
ATOM     11  O   UNL     1      51.639   9.699  13.756  0.00  0.00    +0.000 OA
ATOM     12  H   UNL     1      53.104   8.326  12.326  0.00  0.00    +0.000 HD
ATOM     13  H   UNL     1      51.857   7.328  11.664  0.00  0.00    +0.000 HD
ENDBRANCH   1  10
BRANCH   5  14
ATOM     14  C   UNL     1      44.995   6.949  12.225  0.00  0.00    +0.000 C 
BRANCH  14  15
ATOM     15  C   UNL     1      45.159   5.692  11.428  0.00  0.00    +0.000 C 
ATOM     16  C   UNL     1      45.404   5.691  10.108  0.00  0.00    +0.000 C 
BRANCH  16  17
ATOM     17  C   UNL     1      45.540   4.493   9.267  0.00  0.00    +0.000 A 
ATOM     18  C   UNL     1      46.174   4.525   8.018  0.00  0.00    +0.000 A 
ATOM     19  C   UNL     1      46.368   3.350   7.287  0.00  0.00    +0.000 A 
ATOM     20  C   UNL     1      45.936   2.129   7.799  0.00  0.00    +0.000 A 
ATOM     21  C   UNL     1      45.304   2.082   9.040  0.00  0.00    +0.000 A 
ATOM     22  C   UNL     1      45.109   3.257   9.770  0.00  0.00    +0.000 A 
ENDBRANCH  16  17
ENDBRANCH  14  15
ENDBRANCH   5  14
TORSDOF 4
ENDMDL
