MODEL 1
REMARK VINA RESULT:    -8.830      0.000      0.000
REMARK INTER + INTRA:         -12.777
REMARK INTER:                 -11.927
REMARK INTRA:                  -0.850
REMARK UNBOUND:                -0.850
REMARK  Name = 
REMARK  6 active torsions:
REMARK  status: ('A' for Active; 'I' for Inactive)
REMARK    1  A    between atoms: C_2  and  C_25
REMARK    2  A    between atoms: N_3  and  C_4
REMARK    3  A    between atoms: C_4  and  C_5
REMARK    4  A    between atoms: C_9  and  C_10
REMARK    5  A    between atoms: C_10  and  N_11
REMARK    6  A    between atoms: C_12  and  C_14
REMARK                            x       y       z     vdW  Elec       q    Type
REMARK                         _______ _______ _______ _____ _____    ______ ____
ROOT
ATOM      1  C   UNL     1      45.376   5.296  11.105  0.00  0.00    +0.000 A 
ATOM      2  C   UNL     1      46.201   6.421  10.973  0.00  0.00    +0.000 A 
ATOM      3  C   UNL     1      47.047   6.802  12.014  0.00  0.00    +0.000 A 
ATOM      4  C   UNL     1      47.051   6.085  13.211  0.00  0.00    +0.000 A 
ATOM      5  C   UNL     1      46.197   4.989  13.386  0.00  0.00    +0.000 A 
ATOM      6  C   UNL     1      45.384   4.584  12.315  0.00  0.00    +0.000 A 
ENDROOT
BRANCH   1   7
ATOM      7  C   UNL     1      44.459   4.891   9.984  0.00  0.00    +0.000 C 
BRANCH   7  10
ATOM      8  O   UNL     1      45.067   2.177   9.709  0.00  0.00    +0.000 OA
ATOM      9  C   UNL     1      45.439   2.958   8.839  0.00  0.00    +0.000 C 
ATOM     10  N   UNL     1      45.188   4.313   8.883  0.00  0.00    +0.000 N 
ATOM     11  H   UNL     1      45.528   4.901   8.128  0.00  0.00    +0.000 HD
BRANCH   9  12
ATOM     12  C   UNL     1      46.190   2.464   7.651  0.00  0.00    +0.000 A 
ATOM     13  C   UNL     1      46.374   3.281   6.545  0.00  0.00    +0.000 A 
ATOM     14  C   UNL     1      47.081   2.770   5.463  0.00  0.00    +0.000 A 
ATOM     15  C   UNL     1      47.561   1.477   5.550  0.00  0.00    +0.000 A 
ATOM     16  N   UNL     1      47.367   0.700   6.639  0.00  0.00    +0.000 NA
ATOM     17  N   UNL     1      46.674   1.200   7.706  0.00  0.00    +0.000 NA
ENDBRANCH   9  12
ENDBRANCH   7  10
ENDBRANCH   1   7
BRANCH   5  18
ATOM     18  C   UNL     1      46.150   4.264  14.705  0.00  0.00    +0.000 C 
BRANCH  18  19
ATOM     19  N   UNL     1      47.324   4.515  15.499  0.00  0.00    +0.000 N 
ATOM     20  C   UNL     1      47.441   3.991  16.762  0.00  0.00    +0.000 C 
ATOM     21  O   UNL     1      46.587   3.250  17.240  0.00  0.00    +0.000 OA
ATOM     22  H   UNL     1      47.902   5.305  15.229  0.00  0.00    +0.000 HD
BRANCH  20  23
ATOM     23  C   UNL     1      48.676   4.305  17.492  0.00  0.00    +0.000 A 
ATOM     24  C   UNL     1      48.761   5.482  18.224  0.00  0.00    +0.000 A 
ATOM     25  S   UNL     1      50.233   5.656  19.067  0.00  0.00    +0.000 S 
ATOM     26  C   UNL     1      50.830   4.192  18.439  0.00  0.00    +0.000 A 
ATOM     27  N   UNL     1      52.075   3.749  18.759  0.00  0.00    +0.000 NA
ATOM     28  C   UNL     1      52.412   2.643  18.184  0.00  0.00    +0.000 A 
ATOM     29  N   UNL     1      51.616   1.939  17.319  0.00  0.00    +0.000 N 
ATOM     30  C   UNL     1      50.342   2.334  16.986  0.00  0.00    +0.000 A 
ATOM     31  O   UNL     1      49.644   1.665  16.231  0.00  0.00    +0.000 OA
ATOM     32  C   UNL     1      49.915   3.574  17.604  0.00  0.00    +0.000 A 
ATOM     33  H   UNL     1      51.937   1.077  16.904  0.00  0.00    +0.000 HD
ENDBRANCH  20  23
ENDBRANCH  18  19
ENDBRANCH   5  18
TORSDOF 6
ENDMDL
MODEL 2
REMARK VINA RESULT:    -8.492      1.979      2.865
REMARK INTER + INTRA:         -12.320
REMARK INTER:                 -11.146
REMARK INTRA:                  -1.174
REMARK UNBOUND:                -0.850
REMARK  Name = 
REMARK  6 active torsions:
REMARK  status: ('A' for Active; 'I' for Inactive)
REMARK    1  A    between atoms: C_2  and  C_25
REMARK    2  A    between atoms: N_3  and  C_4
REMARK    3  A    between atoms: C_4  and  C_5
REMARK    4  A    between atoms: C_9  and  C_10
REMARK    5  A    between atoms: C_10  and  N_11
REMARK    6  A    between atoms: C_12  and  C_14
REMARK                            x       y       z     vdW  Elec       q    Type
REMARK                         _______ _______ _______ _____ _____    ______ ____
ROOT
ATOM      1  C   UNL     1      45.099   6.315  11.143  0.00  0.00    +0.000 A 
ATOM      2  C   UNL     1      44.376   7.485  11.412  0.00  0.00    +0.000 A 
ATOM      3  C   UNL     1      45.024   8.616  11.909  0.00  0.00    +0.000 A 
ATOM      4  C   UNL     1      46.393   8.579  12.174  0.00  0.00    +0.000 A 
ATOM      5  C   UNL     1      47.127   7.405  11.963  0.00  0.00    +0.000 A 
ATOM      6  C   UNL     1      46.476   6.286  11.418  0.00  0.00    +0.000 A 
ENDROOT
BRANCH   1   7
ATOM      7  C   UNL     1      44.398   5.094  10.614  0.00  0.00    +0.000 C 
BRANCH   7  10
ATOM      8  O   UNL     1      44.292   2.371   9.997  0.00  0.00    +0.000 OA
ATOM      9  C   UNL     1      45.039   3.096   9.348  0.00  0.00    +0.000 C 
ATOM     10  N   UNL     1      45.162   4.451   9.574  0.00  0.00    +0.000 N 
ATOM     11  H   UNL     1      45.801   4.990   8.999  0.00  0.00    +0.000 HD
BRANCH   9  12
ATOM     12  C   UNL     1      45.865   2.534   8.242  0.00  0.00    +0.000 A 
ATOM     13  C   UNL     1      46.270   3.340   7.187  0.00  0.00    +0.000 A 
ATOM     14  C   UNL     1      47.037   2.766   6.182  0.00  0.00    +0.000 A 
ATOM     15  C   UNL     1      47.353   1.424   6.288  0.00  0.00    +0.000 A 
ATOM     16  N   UNL     1      46.945   0.660   7.325  0.00  0.00    +0.000 NA
ATOM     17  N   UNL     1      46.191   1.222   8.318  0.00  0.00    +0.000 NA
ENDBRANCH   9  12
ENDBRANCH   7  10
ENDBRANCH   1   7
BRANCH   5  18
ATOM     18  C   UNL     1      48.588   7.346  12.322  0.00  0.00    +0.000 C 
BRANCH  18  19
ATOM     19  N   UNL     1      48.815   6.608  13.536  0.00  0.00    +0.000 N 
ATOM     20  C   UNL     1      48.811   7.243  14.753  0.00  0.00    +0.000 C 
ATOM     21  O   UNL     1      48.564   8.441  14.861  0.00  0.00    +0.000 OA
ATOM     22  H   UNL     1      49.259   5.699  13.448  0.00  0.00    +0.000 HD
BRANCH  20  23
ATOM     23  C   UNL     1      49.052   6.403  15.933  0.00  0.00    +0.000 A 
ATOM     24  C   UNL     1      50.075   6.731  16.813  0.00  0.00    +0.000 A 
ATOM     25  S   UNL     1      50.172   5.697  18.165  0.00  0.00    +0.000 S 
ATOM     26  C   UNL     1      48.886   4.741  17.594  0.00  0.00    +0.000 A 
ATOM     27  N   UNL     1      48.461   3.652  18.289  0.00  0.00    +0.000 NA
ATOM     28  C   UNL     1      47.501   2.999  17.723  0.00  0.00    +0.000 A 
ATOM     29  N   UNL     1      46.927   3.337  16.526  0.00  0.00    +0.000 N 
ATOM     30  C   UNL     1      47.306   4.442  15.801  0.00  0.00    +0.000 A 
ATOM     31  O   UNL     1      46.751   4.733  14.746  0.00  0.00    +0.000 OA
ATOM     32  C   UNL     1      48.384   5.210  16.392  0.00  0.00    +0.000 A 
ATOM     33  H   UNL     1      46.177   2.785  16.137  0.00  0.00    +0.000 HD
ENDBRANCH  20  23
ENDBRANCH  18  19
ENDBRANCH   5  18
TORSDOF 6
ENDMDL
MODEL 3
REMARK VINA RESULT:    -8.263      2.125      2.609
REMARK INTER + INTRA:         -12.011
REMARK INTER:                 -11.330
REMARK INTRA:                  -0.681
REMARK UNBOUND:                -0.850
REMARK  Name = 
REMARK  6 active torsions:
REMARK  status: ('A' for Active; 'I' for Inactive)
REMARK    1  A    between atoms: C_2  and  C_25
REMARK    2  A    between atoms: N_3  and  C_4
REMARK    3  A    between atoms: C_4  and  C_5
REMARK    4  A    between atoms: C_9  and  C_10
REMARK    5  A    between atoms: C_10  and  N_11
REMARK    6  A    between atoms: C_12  and  C_14
REMARK                            x       y       z     vdW  Elec       q    Type
REMARK                         _______ _______ _______ _____ _____    ______ ____
ROOT
ATOM      1  C   UNL     1      44.825   4.888  11.798  0.00  0.00    +0.000 A 
ATOM      2  C   UNL     1      44.087   6.060  11.581  0.00  0.00    +0.000 A 
ATOM      3  C   UNL     1      44.636   7.305  11.885  0.00  0.00    +0.000 A 
ATOM      4  C   UNL     1      45.913   7.391  12.440  0.00  0.00    +0.000 A 
ATOM      5  C   UNL     1      46.648   6.231  12.715  0.00  0.00    +0.000 A 
ATOM      6  C   UNL     1      46.107   4.984  12.362  0.00  0.00    +0.000 A 
ENDROOT
BRANCH   1   7
ATOM      7  C   UNL     1      44.228   3.545  11.476  0.00  0.00    +0.000 C 
BRANCH   7  10
ATOM      8  O   UNL     1      44.257   4.139   8.746  0.00  0.00    +0.000 OA
ATOM      9  C   UNL     1      44.948   3.212   9.158  0.00  0.00    +0.000 C 
ATOM     10  N   UNL     1      45.003   2.842  10.485  0.00  0.00    +0.000 N 
ATOM     11  H   UNL     1      45.595   2.063  10.754  0.00  0.00    +0.000 HD
BRANCH   9  12
ATOM     12  C   UNL     1      45.796   2.426   8.218  0.00  0.00    +0.000 A 
ATOM     13  C   UNL     1      46.333   3.024   7.087  0.00  0.00    +0.000 A 
ATOM     14  C   UNL     1      47.115   2.247   6.243  0.00  0.00    +0.000 A 
ATOM     15  C   UNL     1      47.315   0.920   6.578  0.00  0.00    +0.000 A 
ATOM     16  N   UNL     1      46.780   0.360   7.685  0.00  0.00    +0.000 NA
ATOM     17  N   UNL     1      46.010   1.123   8.519  0.00  0.00    +0.000 NA
ENDBRANCH   9  12
ENDBRANCH   7  10
ENDBRANCH   1   7
BRANCH   5  18
ATOM     18  C   UNL     1      47.994   6.324  13.384  0.00  0.00    +0.000 C 
BRANCH  18  19
ATOM     19  N   UNL     1      47.877   6.470  14.810  0.00  0.00    +0.000 N 
ATOM     20  C   UNL     1      48.987   6.697  15.585  0.00  0.00    +0.000 C 
ATOM     21  O   UNL     1      50.104   6.838  15.095  0.00  0.00    +0.000 OA
ATOM     22  H   UNL     1      47.030   6.115  15.243  0.00  0.00    +0.000 HD
BRANCH  20  23
ATOM     23  C   UNL     1      48.764   6.833  17.030  0.00  0.00    +0.000 A 
ATOM     24  C   UNL     1      48.469   8.079  17.566  0.00  0.00    +0.000 A 
ATOM     25  S   UNL     1      48.167   8.048  19.244  0.00  0.00    +0.000 S 
ATOM     26  C   UNL     1      48.476   6.376  19.323  0.00  0.00    +0.000 A 
ATOM     27  N   UNL     1      48.404   5.707  20.505  0.00  0.00    +0.000 NA
ATOM     28  C   UNL     1      48.696   4.451  20.424  0.00  0.00    +0.000 A 
ATOM     29  N   UNL     1      49.051   3.805  19.270  0.00  0.00    +0.000 N 
ATOM     30  C   UNL     1      49.112   4.434  18.049  0.00  0.00    +0.000 A 
ATOM     31  O   UNL     1      49.406   3.819  17.029  0.00  0.00    +0.000 OA
ATOM     32  C   UNL     1      48.795   5.848  18.084  0.00  0.00    +0.000 A 
ATOM     33  H   UNL     1      49.265   2.819  19.273  0.00  0.00    +0.000 HD
ENDBRANCH  20  23
ENDBRANCH  18  19
ENDBRANCH   5  18
TORSDOF 6
ENDMDL
MODEL 4
REMARK VINA RESULT:    -7.883      3.766      9.040
REMARK INTER + INTRA:         -11.498
REMARK INTER:                 -10.542
REMARK INTRA:                  -0.956
REMARK UNBOUND:                -0.850
REMARK  Name = 
REMARK  6 active torsions:
REMARK  status: ('A' for Active; 'I' for Inactive)
REMARK    1  A    between atoms: C_2  and  C_25
REMARK    2  A    between atoms: N_3  and  C_4
REMARK    3  A    between atoms: C_4  and  C_5
REMARK    4  A    between atoms: C_9  and  C_10
REMARK    5  A    between atoms: C_10  and  N_11
REMARK    6  A    between atoms: C_12  and  C_14
REMARK                            x       y       z     vdW  Elec       q    Type
REMARK                         _______ _______ _______ _____ _____    ______ ____
ROOT
ATOM      1  C   UNL     1      48.973   5.048  17.854  0.00  0.00    +0.000 A 
ATOM      2  C   UNL     1      49.149   5.807  19.019  0.00  0.00    +0.000 A 
ATOM      3  C   UNL     1      49.166   7.199  18.959  0.00  0.00    +0.000 A 
ATOM      4  C   UNL     1      49.042   7.848  17.730  0.00  0.00    +0.000 A 
ATOM      5  C   UNL     1      48.918   7.111  16.546  0.00  0.00    +0.000 A 
ATOM      6  C   UNL     1      48.855   5.710  16.622  0.00  0.00    +0.000 A 
ENDROOT
BRANCH   1   7
ATOM      7  C   UNL     1      48.963   3.546  17.920  0.00  0.00    +0.000 C 
BRANCH   7  10
ATOM      8  O   UNL     1      50.350   1.679  16.372  0.00  0.00    +0.000 OA
ATOM      9  C   UNL     1      50.869   2.096  17.402  0.00  0.00    +0.000 C 
ATOM     10  N   UNL     1      50.267   3.017  18.232  0.00  0.00    +0.000 N 
ATOM     11  H   UNL     1      50.755   3.317  19.071  0.00  0.00    +0.000 HD
BRANCH   9  12
ATOM     12  C   UNL     1      52.222   1.623  17.812  0.00  0.00    +0.000 A 
ATOM     13  C   UNL     1      53.291   2.506  17.861  0.00  0.00    +0.000 A 
ATOM     14  C   UNL     1      54.530   2.013  18.249  0.00  0.00    +0.000 A 
ATOM     15  C   UNL     1      54.629   0.670  18.562  0.00  0.00    +0.000 A 
ATOM     16  N   UNL     1      53.573  -0.170  18.505  0.00  0.00    +0.000 NA
ATOM     17  N   UNL     1      52.350   0.312  18.126  0.00  0.00    +0.000 NA
ENDBRANCH   9  12
ENDBRANCH   7  10
ENDBRANCH   1   7
BRANCH   5  18
ATOM     18  C   UNL     1      48.861   7.813  15.214  0.00  0.00    +0.000 C 
BRANCH  18  19
ATOM     19  N   UNL     1      47.687   7.450  14.465  0.00  0.00    +0.000 N 
ATOM     20  C   UNL     1      47.777   6.604  13.388  0.00  0.00    +0.000 C 
ATOM     21  O   UNL     1      48.839   6.084  13.057  0.00  0.00    +0.000 OA
ATOM     22  H   UNL     1      46.873   8.049  14.564  0.00  0.00    +0.000 HD
BRANCH  20  23
ATOM     23  C   UNL     1      46.524   6.294  12.689  0.00  0.00    +0.000 A 
ATOM     24  C   UNL     1      45.819   7.311  12.060  0.00  0.00    +0.000 A 
ATOM     25  S   UNL     1      44.428   6.770  11.236  0.00  0.00    +0.000 S 
ATOM     26  C   UNL     1      44.688   5.165  11.738  0.00  0.00    +0.000 A 
ATOM     27  N   UNL     1      43.829   4.173  11.383  0.00  0.00    +0.000 NA
ATOM     28  C   UNL     1      44.128   3.011  11.862  0.00  0.00    +0.000 A 
ATOM     29  N   UNL     1      45.209   2.753  12.663  0.00  0.00    +0.000 N 
ATOM     30  C   UNL     1      46.118   3.718  13.028  0.00  0.00    +0.000 A 
ATOM     31  O   UNL     1      47.091   3.447  13.723  0.00  0.00    +0.000 OA
ATOM     32  C   UNL     1      45.826   5.043  12.517  0.00  0.00    +0.000 A 
ATOM     33  H   UNL     1      45.390   1.820  13.004  0.00  0.00    +0.000 HD
ENDBRANCH  20  23
ENDBRANCH  18  19
ENDBRANCH   5  18
TORSDOF 6
ENDMDL
MODEL 5
REMARK VINA RESULT:    -7.625      3.927      8.536
REMARK INTER + INTRA:         -11.150
REMARK INTER:                  -9.918
REMARK INTRA:                  -1.232
REMARK UNBOUND:                -0.850
REMARK  Name = 
REMARK  6 active torsions:
REMARK  status: ('A' for Active; 'I' for Inactive)
REMARK    1  A    between atoms: C_2  and  C_25
REMARK    2  A    between atoms: N_3  and  C_4
REMARK    3  A    between atoms: C_4  and  C_5
REMARK    4  A    between atoms: C_9  and  C_10
REMARK    5  A    between atoms: C_10  and  N_11
REMARK    6  A    between atoms: C_12  and  C_14
REMARK                            x       y       z     vdW  Elec       q    Type
REMARK                         _______ _______ _______ _____ _____    ______ ____
ROOT
ATOM      1  C   UNL     1      47.740   8.019  18.869  0.00  0.00    +0.000 A 
ATOM      2  C   UNL     1      47.776   9.201  19.621  0.00  0.00    +0.000 A 
ATOM      3  C   UNL     1      47.956  10.432  18.992  0.00  0.00    +0.000 A 
ATOM      4  C   UNL     1      48.137  10.493  17.611  0.00  0.00    +0.000 A 
ATOM      5  C   UNL     1      48.157   9.321  16.844  0.00  0.00    +0.000 A 
ATOM      6  C   UNL     1      47.927   8.090  17.479  0.00  0.00    +0.000 A 
ENDROOT
BRANCH   1   7
ATOM      7  C   UNL     1      47.552   6.691  19.549  0.00  0.00    +0.000 C 
BRANCH   7  10
ATOM      8  O   UNL     1      46.796   4.563  17.904  0.00  0.00    +0.000 OA
ATOM      9  C   UNL     1      47.976   4.677  18.219  0.00  0.00    +0.000 C 
ATOM     10  N   UNL     1      48.448   5.692  19.024  0.00  0.00    +0.000 N 
ATOM     11  H   UNL     1      49.439   5.724  19.245  0.00  0.00    +0.000 HD
BRANCH   9  12
ATOM     12  C   UNL     1      48.990   3.704  17.720  0.00  0.00    +0.000 A 
ATOM     13  C   UNL     1      50.299   3.757  18.175  0.00  0.00    +0.000 A 
ATOM     14  C   UNL     1      51.204   2.828  17.677  0.00  0.00    +0.000 A 
ATOM     15  C   UNL     1      50.748   1.904  16.756  0.00  0.00    +0.000 A 
ATOM     16  N   UNL     1      49.467   1.874  16.327  0.00  0.00    +0.000 NA
ATOM     17  N   UNL     1      48.573   2.786  16.816  0.00  0.00    +0.000 NA
ENDBRANCH   9  12
ENDBRANCH   7  10
ENDBRANCH   1   7
BRANCH   5  18
ATOM     18  C   UNL     1      48.428   9.384  15.364  0.00  0.00    +0.000 C 
BRANCH  18  19
ATOM     19  N   UNL     1      47.396   8.733  14.600  0.00  0.00    +0.000 N 
ATOM     20  C   UNL     1      47.706   7.727  13.719  0.00  0.00    +0.000 C 
ATOM     21  O   UNL     1      48.852   7.308  13.588  0.00  0.00    +0.000 OA
ATOM     22  H   UNL     1      46.511   9.222  14.510  0.00  0.00    +0.000 HD
BRANCH  20  23
ATOM     23  C   UNL     1      46.583   7.126  12.987  0.00  0.00    +0.000 A 
ATOM     24  C   UNL     1      45.730   7.937  12.251  0.00  0.00    +0.000 A 
ATOM     25  S   UNL     1      44.527   7.074  11.406  0.00  0.00    +0.000 S 
ATOM     26  C   UNL     1      45.070   5.591  12.039  0.00  0.00    +0.000 A 
ATOM     27  N   UNL     1      44.448   4.424  11.719  0.00  0.00    +0.000 NA
ATOM     28  C   UNL     1      44.942   3.381  12.297  0.00  0.00    +0.000 A 
ATOM     29  N   UNL     1      46.003   3.398  13.165  0.00  0.00    +0.000 N 
ATOM     30  C   UNL     1      46.678   4.548  13.498  0.00  0.00    +0.000 A 
ATOM     31  O   UNL     1      47.642   4.525  14.256  0.00  0.00    +0.000 OA
ATOM     32  C   UNL     1      46.160   5.751  12.877  0.00  0.00    +0.000 A 
ATOM     33  H   UNL     1      46.344   2.545  13.582  0.00  0.00    +0.000 HD
ENDBRANCH  20  23
ENDBRANCH  18  19
ENDBRANCH   5  18
TORSDOF 6
ENDMDL
MODEL 6
REMARK VINA RESULT:    -7.564      2.139      2.702
REMARK INTER + INTRA:         -11.067
REMARK INTER:                 -10.122
REMARK INTRA:                  -0.945
REMARK UNBOUND:                -0.850
REMARK  Name = 
REMARK  6 active torsions:
REMARK  status: ('A' for Active; 'I' for Inactive)
REMARK    1  A    between atoms: C_2  and  C_25
REMARK    2  A    between atoms: N_3  and  C_4
REMARK    3  A    between atoms: C_4  and  C_5
REMARK    4  A    between atoms: C_9  and  C_10
REMARK    5  A    between atoms: C_10  and  N_11
REMARK    6  A    between atoms: C_12  and  C_14
REMARK                            x       y       z     vdW  Elec       q    Type
REMARK                         _______ _______ _______ _____ _____    ______ ____
ROOT
ATOM      1  C   UNL     1      44.998   5.251  11.287  0.00  0.00    +0.000 A 
ATOM      2  C   UNL     1      44.741   4.457  12.413  0.00  0.00    +0.000 A 
ATOM      3  C   UNL     1      45.445   4.665  13.598  0.00  0.00    +0.000 A 
ATOM      4  C   UNL     1      46.438   5.643  13.660  0.00  0.00    +0.000 A 
ATOM      5  C   UNL     1      46.750   6.412  12.533  0.00  0.00    +0.000 A 
ATOM      6  C   UNL     1      46.002   6.229  11.358  0.00  0.00    +0.000 A 
ENDROOT
BRANCH   1   7
ATOM      7  C   UNL     1      44.242   5.021  10.008  0.00  0.00    +0.000 C 
BRANCH   7  10
ATOM      8  O   UNL     1      44.442   2.260   9.630  0.00  0.00    +0.000 OA
ATOM      9  C   UNL     1      45.094   3.005   8.906  0.00  0.00    +0.000 C 
ATOM     10  N   UNL     1      45.063   4.379   9.012  0.00  0.00    +0.000 N 
ATOM     11  H   UNL     1      45.630   4.934   8.379  0.00  0.00    +0.000 HD
BRANCH   9  12
ATOM     12  C   UNL     1      45.967   2.445   7.835  0.00  0.00    +0.000 A 
ATOM     13  C   UNL     1      46.260   3.192   6.704  0.00  0.00    +0.000 A 
ATOM     14  C   UNL     1      47.077   2.623   5.736  0.00  0.00    +0.000 A 
ATOM     15  C   UNL     1      47.552   1.343   5.954  0.00  0.00    +0.000 A 
ATOM     16  N   UNL     1      47.251   0.634   7.064  0.00  0.00    +0.000 NA
ATOM     17  N   UNL     1      46.448   1.192   8.021  0.00  0.00    +0.000 NA
ENDBRANCH   9  12
ENDBRANCH   7  10
ENDBRANCH   1   7
BRANCH   5  18
ATOM     18  C   UNL     1      47.873   7.415  12.582  0.00  0.00    +0.000 C 
BRANCH  18  19
ATOM     19  N   UNL     1      48.936   6.988  13.452  0.00  0.00    +0.000 N 
ATOM     20  C   UNL     1      49.118   7.580  14.677  0.00  0.00    +0.000 C 
ATOM     21  O   UNL     1      48.359   8.447  15.100  0.00  0.00    +0.000 OA
ATOM     22  H   UNL     1      49.700   6.471  13.028  0.00  0.00    +0.000 HD
BRANCH  20  23
ATOM     23  C   UNL     1      50.231   7.075  15.492  0.00  0.00    +0.000 A 
ATOM     24  C   UNL     1      51.513   7.565  15.283  0.00  0.00    +0.000 A 
ATOM     25  S   UNL     1      52.672   6.928  16.359  0.00  0.00    +0.000 S 
ATOM     26  C   UNL     1      51.511   5.933  17.106  0.00  0.00    +0.000 A 
ATOM     27  N   UNL     1      51.856   5.098  18.123  0.00  0.00    +0.000 NA
ATOM     28  C   UNL     1      50.884   4.376  18.572  0.00  0.00    +0.000 A 
ATOM     29  N   UNL     1      49.599   4.414  18.097  0.00  0.00    +0.000 N 
ATOM     30  C   UNL     1      49.199   5.259  17.089  0.00  0.00    +0.000 A 
ATOM     31  O   UNL     1      48.034   5.289  16.707  0.00  0.00    +0.000 OA
ATOM     32  C   UNL     1      50.255   6.091  16.547  0.00  0.00    +0.000 A 
ATOM     33  H   UNL     1      48.883   3.825  18.494  0.00  0.00    +0.000 HD
ENDBRANCH  20  23
ENDBRANCH  18  19
ENDBRANCH   5  18
TORSDOF 6
ENDMDL
MODEL 7
REMARK VINA RESULT:    -7.515      4.893      7.424
REMARK INTER + INTRA:         -11.001
REMARK INTER:                 -10.161
REMARK INTRA:                  -0.840
REMARK UNBOUND:                -0.850
REMARK  Name = 
REMARK  6 active torsions:
REMARK  status: ('A' for Active; 'I' for Inactive)
REMARK    1  A    between atoms: C_2  and  C_25
REMARK    2  A    between atoms: N_3  and  C_4
REMARK    3  A    between atoms: C_4  and  C_5
REMARK    4  A    between atoms: C_9  and  C_10
REMARK    5  A    between atoms: C_10  and  N_11
REMARK    6  A    between atoms: C_12  and  C_14
REMARK                            x       y       z     vdW  Elec       q    Type
REMARK                         _______ _______ _______ _____ _____    ______ ____
ROOT
ATOM      1  C   UNL     1      45.117   4.440  11.469  0.00  0.00    +0.000 A 
ATOM      2  C   UNL     1      45.423   3.352  12.297  0.00  0.00    +0.000 A 
ATOM      3  C   UNL     1      46.226   3.526  13.424  0.00  0.00    +0.000 A 
ATOM      4  C   UNL     1      46.760   4.782  13.715  0.00  0.00    +0.000 A 
ATOM      5  C   UNL     1      46.511   5.873  12.873  0.00  0.00    +0.000 A 
ATOM      6  C   UNL     1      45.663   5.698  11.768  0.00  0.00    +0.000 A 
ENDROOT
BRANCH   1   7
ATOM      7  C   UNL     1      44.257   4.248  10.250  0.00  0.00    +0.000 C 
BRANCH   7  10
ATOM      8  O   UNL     1      46.022   5.050   8.237  0.00  0.00    +0.000 OA
ATOM      9  C   UNL     1      45.735   3.860   8.335  0.00  0.00    +0.000 C 
ATOM     10  N   UNL     1      44.877   3.366   9.294  0.00  0.00    +0.000 N 
ATOM     11  H   UNL     1      44.684   2.370   9.315  0.00  0.00    +0.000 HD
BRANCH   9  12
ATOM     12  C   UNL     1      46.331   2.860   7.403  0.00  0.00    +0.000 A 
ATOM     13  C   UNL     1      46.657   3.217   6.103  0.00  0.00    +0.000 A 
ATOM     14  C   UNL     1      47.208   2.247   5.276  0.00  0.00    +0.000 A 
ATOM     15  C   UNL     1      47.398   0.980   5.794  0.00  0.00    +0.000 A 
ATOM     16  N   UNL     1      47.070   0.656   7.064  0.00  0.00    +0.000 NA
ATOM     17  N   UNL     1      46.530   1.609   7.883  0.00  0.00    +0.000 NA
ENDBRANCH   9  12
ENDBRANCH   7  10
ENDBRANCH   1   7
BRANCH   5  18
ATOM     18  C   UNL     1      47.150   7.208  13.150  0.00  0.00    +0.000 C 
BRANCH  18  19
ATOM     19  N   UNL     1      46.297   8.303  12.768  0.00  0.00    +0.000 N 
ATOM     20  C   UNL     1      46.813   9.409  12.141  0.00  0.00    +0.000 C 
ATOM     21  O   UNL     1      47.999   9.487  11.833  0.00  0.00    +0.000 OA
ATOM     22  H   UNL     1      45.393   8.364  13.228  0.00  0.00    +0.000 HD
BRANCH  20  23
ATOM     23  C   UNL     1      45.861  10.471  11.793  0.00  0.00    +0.000 A 
ATOM     24  C   UNL     1      46.227  11.801  11.952  0.00  0.00    +0.000 A 
ATOM     25  S   UNL     1      45.034  12.904  11.434  0.00  0.00    +0.000 S 
ATOM     26  C   UNL     1      43.965  11.644  11.032  0.00  0.00    +0.000 A 
ATOM     27  N   UNL     1      42.727  11.908  10.535  0.00  0.00    +0.000 NA
ATOM     28  C   UNL     1      42.009  10.859  10.307  0.00  0.00    +0.000 A 
ATOM     29  N   UNL     1      42.417   9.570  10.529  0.00  0.00    +0.000 N 
ATOM     30  C   UNL     1      43.667   9.254  11.005  0.00  0.00    +0.000 A 
ATOM     31  O   UNL     1      44.011   8.087  11.166  0.00  0.00    +0.000 OA
ATOM     32  C   UNL     1      44.514  10.398  11.281  0.00  0.00    +0.000 A 
ATOM     33  H   UNL     1      41.807   8.792  10.326  0.00  0.00    +0.000 HD
ENDBRANCH  20  23
ENDBRANCH  18  19
ENDBRANCH   5  18
TORSDOF 6
ENDMDL
MODEL 8
REMARK VINA RESULT:    -7.412      3.160      4.629
REMARK INTER + INTRA:         -10.862
REMARK INTER:                  -9.557
REMARK INTRA:                  -1.305
REMARK UNBOUND:                -0.850
REMARK  Name = 
REMARK  6 active torsions:
REMARK  status: ('A' for Active; 'I' for Inactive)
REMARK    1  A    between atoms: C_2  and  C_25
REMARK    2  A    between atoms: N_3  and  C_4
REMARK    3  A    between atoms: C_4  and  C_5
REMARK    4  A    between atoms: C_9  and  C_10
REMARK    5  A    between atoms: C_10  and  N_11
REMARK    6  A    between atoms: C_12  and  C_14
REMARK                            x       y       z     vdW  Elec       q    Type
REMARK                         _______ _______ _______ _____ _____    ______ ____
ROOT
ATOM      1  C   UNL     1      44.566   8.781  11.406  0.00  0.00    +0.000 A 
ATOM      2  C   UNL     1      43.962   9.833  10.705  0.00  0.00    +0.000 A 
ATOM      3  C   UNL     1      44.595  11.072  10.610  0.00  0.00    +0.000 A 
ATOM      4  C   UNL     1      45.819  11.283  11.244  0.00  0.00    +0.000 A 
ATOM      5  C   UNL     1      46.417  10.262  11.994  0.00  0.00    +0.000 A 
ATOM      6  C   UNL     1      45.796   9.004  12.044  0.00  0.00    +0.000 A 
ENDROOT
BRANCH   1   7
ATOM      7  C   UNL     1      43.879   7.447  11.513  0.00  0.00    +0.000 C 
BRANCH   7  10
ATOM      8  O   UNL     1      43.013   4.805  11.230  0.00  0.00    +0.000 OA
ATOM      9  C   UNL     1      43.994   5.178  10.594  0.00  0.00    +0.000 C 
ATOM     10  N   UNL     1      44.497   6.460  10.664  0.00  0.00    +0.000 N 
ATOM     11  H   UNL     1      45.314   6.698  10.110  0.00  0.00    +0.000 HD
BRANCH   9  12
ATOM     12  C   UNL     1      44.702   4.240   9.677  0.00  0.00    +0.000 A 
ATOM     13  C   UNL     1      44.561   2.868   9.827  0.00  0.00    +0.000 A 
ATOM     14  C   UNL     1      45.243   2.039   8.947  0.00  0.00    +0.000 A 
ATOM     15  C   UNL     1      46.026   2.627   7.971  0.00  0.00    +0.000 A 
ATOM     16  N   UNL     1      46.149   3.967   7.846  0.00  0.00    +0.000 NA
ATOM     17  N   UNL     1      45.477   4.787   8.710  0.00  0.00    +0.000 NA
ENDBRANCH   9  12
ENDBRANCH   7  10
ENDBRANCH   1   7
BRANCH   5  18
ATOM     18  C   UNL     1      47.701  10.517  12.738  0.00  0.00    +0.000 C 
BRANCH  18  19
ATOM     19  N   UNL     1      47.957   9.507  13.731  0.00  0.00    +0.000 N 
ATOM     20  C   UNL     1      48.793   8.453  13.460  0.00  0.00    +0.000 C 
ATOM     21  O   UNL     1      49.393   8.357  12.393  0.00  0.00    +0.000 OA
ATOM     22  H   UNL     1      47.294   9.436  14.497  0.00  0.00    +0.000 HD
BRANCH  20  23
ATOM     23  C   UNL     1      48.989   7.476  14.538  0.00  0.00    +0.000 A 
ATOM     24  C   UNL     1      49.976   7.691  15.490  0.00  0.00    +0.000 A 
ATOM     25  S   UNL     1      50.022   6.501  16.709  0.00  0.00    +0.000 S 
ATOM     26  C   UNL     1      48.760   5.625  15.977  0.00  0.00    +0.000 A 
ATOM     27  N   UNL     1      48.310   4.461  16.518  0.00  0.00    +0.000 NA
ATOM     28  C   UNL     1      47.375   3.885  15.840  0.00  0.00    +0.000 A 
ATOM     29  N   UNL     1      46.847   4.368  14.672  0.00  0.00    +0.000 N 
ATOM     30  C   UNL     1      47.252   5.551  14.101  0.00  0.00    +0.000 A 
ATOM     31  O   UNL     1      46.738   5.970  13.069  0.00  0.00    +0.000 OA
ATOM     32  C   UNL     1      48.305   6.238  14.823  0.00  0.00    +0.000 A 
ATOM     33  H   UNL     1      46.113   3.870  14.190  0.00  0.00    +0.000 HD
ENDBRANCH  20  23
ENDBRANCH  18  19
ENDBRANCH   5  18
TORSDOF 6
ENDMDL
MODEL 9
REMARK VINA RESULT:    -7.216      3.221      8.638
REMARK INTER + INTRA:         -10.597
REMARK INTER:                  -9.382
REMARK INTRA:                  -1.215
REMARK UNBOUND:                -0.850
REMARK  Name = 
REMARK  6 active torsions:
REMARK  status: ('A' for Active; 'I' for Inactive)
REMARK    1  A    between atoms: C_2  and  C_25
REMARK    2  A    between atoms: N_3  and  C_4
REMARK    3  A    between atoms: C_4  and  C_5
REMARK    4  A    between atoms: C_9  and  C_10
REMARK    5  A    between atoms: C_10  and  N_11
REMARK    6  A    between atoms: C_12  and  C_14
REMARK                            x       y       z     vdW  Elec       q    Type
REMARK                         _______ _______ _______ _____ _____    ______ ____
ROOT
ATOM      1  C   UNL     1      48.894   8.307  15.441  0.00  0.00    +0.000 A 
ATOM      2  C   UNL     1      50.030   9.127  15.420  0.00  0.00    +0.000 A 
ATOM      3  C   UNL     1      50.408   9.779  14.247  0.00  0.00    +0.000 A 
ATOM      4  C   UNL     1      49.675   9.592  13.075  0.00  0.00    +0.000 A 
ATOM      5  C   UNL     1      48.567   8.736  13.059  0.00  0.00    +0.000 A 
ATOM      6  C   UNL     1      48.166   8.121  14.255  0.00  0.00    +0.000 A 
ENDROOT
BRANCH   1   7
ATOM      7  C   UNL     1      48.492   7.598  16.706  0.00  0.00    +0.000 C 
BRANCH   7  10
ATOM      8  O   UNL     1      47.398   5.064  16.271  0.00  0.00    +0.000 OA
ATOM      9  C   UNL     1      48.569   5.151  16.628  0.00  0.00    +0.000 C 
ATOM     10  N   UNL     1      49.199   6.353  16.866  0.00  0.00    +0.000 N 
ATOM     11  H   UNL     1      50.171   6.349  17.161  0.00  0.00    +0.000 HD
BRANCH   9  12
ATOM     12  C   UNL     1      49.396   3.924  16.813  0.00  0.00    +0.000 A 
ATOM     13  C   UNL     1      50.570   3.971  17.550  0.00  0.00    +0.000 A 
ATOM     14  C   UNL     1      51.303   2.800  17.690  0.00  0.00    +0.000 A 
ATOM     15  C   UNL     1      50.822   1.653  17.087  0.00  0.00    +0.000 A 
ATOM     16  N   UNL     1      49.675   1.633  16.373  0.00  0.00    +0.000 NA
ATOM     17  N   UNL     1      48.950   2.784  16.234  0.00  0.00    +0.000 NA
ENDBRANCH   9  12
ENDBRANCH   7  10
ENDBRANCH   1   7
BRANCH   5  18
ATOM     18  C   UNL     1      47.823   8.478  11.774  0.00  0.00    +0.000 C 
BRANCH  18  19
ATOM     19  N   UNL     1      47.072   7.251  11.824  0.00  0.00    +0.000 N 
ATOM     20  C   UNL     1      45.702   7.266  11.758  0.00  0.00    +0.000 C 
ATOM     21  O   UNL     1      45.069   8.306  11.600  0.00  0.00    +0.000 OA
ATOM     22  H   UNL     1      47.546   6.435  12.199  0.00  0.00    +0.000 HD
BRANCH  20  23
ATOM     23  C   UNL     1      45.027   5.963  11.818  0.00  0.00    +0.000 A 
ATOM     24  C   UNL     1      44.344   5.594  12.969  0.00  0.00    +0.000 A 
ATOM     25  S   UNL     1      43.559   4.086  12.845  0.00  0.00    +0.000 S 
ATOM     26  C   UNL     1      44.150   3.847  11.268  0.00  0.00    +0.000 A 
ATOM     27  N   UNL     1      43.855   2.714  10.575  0.00  0.00    +0.000 NA
ATOM     28  C   UNL     1      44.398   2.649   9.405  0.00  0.00    +0.000 A 
ATOM     29  N   UNL     1      45.207   3.614   8.865  0.00  0.00    +0.000 N 
ATOM     30  C   UNL     1      45.512   4.785   9.517  0.00  0.00    +0.000 A 
ATOM     31  O   UNL     1      46.217   5.642   8.994  0.00  0.00    +0.000 OA
ATOM     32  C   UNL     1      44.929   4.907  10.839  0.00  0.00    +0.000 A 
ATOM     33  H   UNL     1      45.599   3.504   7.942  0.00  0.00    +0.000 HD
ENDBRANCH  20  23
ENDBRANCH  18  19
ENDBRANCH   5  18
TORSDOF 6
ENDMDL
