MODEL 1
REMARK VINA RESULT:    -8.269      0.000      0.000
REMARK INTER + INTRA:         -11.299
REMARK INTER:                 -10.686
REMARK INTRA:                  -0.613
REMARK UNBOUND:                -0.613
REMARK  Name = 
REMARK  5 active torsions:
REMARK  status: ('A' for Active; 'I' for Inactive)
REMARK    1  A    between atoms: C_2  and  C_4
REMARK    2  A    between atoms: C_8  and  O_9
REMARK    3  A    between atoms: O_9  and  C_10
REMARK    4  A    between atoms: C_10  and  C_11
REMARK    5  A    between atoms: C_15  and  N_16
REMARK                            x       y       z     vdW  Elec       q    Type
REMARK                         _______ _______ _______ _____ _____    ______ ____
ROOT
ATOM      1  C   UNL     1      43.647   4.417  10.989  0.00  0.00    +0.000 C 
ENDROOT
BRANCH   1   2
ATOM      2  C   UNL     1      44.815   4.466  11.928  0.00  0.00    +0.000 A 
ATOM      3  C   UNL     1      45.237   3.325  12.598  0.00  0.00    +0.000 A 
ATOM      4  N   UNL     1      46.302   3.288  13.422  0.00  0.00    +0.000 NA
ATOM      5  C   UNL     1      46.974   4.455  13.590  0.00  0.00    +0.000 A 
ATOM      6  C   UNL     1      46.654   5.673  12.986  0.00  0.00    +0.000 A 
ATOM      7  C   UNL     1      45.533   5.647  12.149  0.00  0.00    +0.000 A 
BRANCH   6   8
ATOM      8  N   UNL     1      47.398   6.827  13.146  0.00  0.00    +0.000 N 
ATOM      9  C   UNL     1      46.752   8.126  13.320  0.00  0.00    +0.000 C 
ATOM     10  C   UNL     1      47.022   9.024  12.119  0.00  0.00    +0.000 C 
ATOM     11  C   UNL     1      48.517   9.110  11.816  0.00  0.00    +0.000 C 
ATOM     12  C   UNL     1      49.125   7.717  11.656  0.00  0.00    +0.000 C 
ATOM     13  C   UNL     1      48.834   6.827  12.865  0.00  0.00    +0.000 C 
ENDBRANCH   6   8
ENDBRANCH   1   2
BRANCH   1  14
ATOM     14  O   UNL     1      43.693   3.203  10.243  0.00  0.00    +0.000 OA
BRANCH  14  19
ATOM     15  C   UNL     1      46.239   2.056   7.808  0.00  0.00    +0.000 A 
ATOM     16  C   UNL     1      46.530   3.301   7.272  0.00  0.00    +0.000 A 
ATOM     17  N   UNL     1      45.910   4.442   7.656  0.00  0.00    +0.000 NA
ATOM     18  C   UNL     1      44.982   4.321   8.638  0.00  0.00    +0.000 A 
ATOM     19  C   UNL     1      44.633   3.122   9.255  0.00  0.00    +0.000 A 
ATOM     20  C   UNL     1      45.277   1.967   8.819  0.00  0.00    +0.000 A 
BRANCH  15  22
ATOM     21  N   UNL     1      47.837   1.066   6.280  0.00  0.00    +0.000 N 
ATOM     22  C   UNL     1      46.983   0.874   7.330  0.00  0.00    +0.000 C 
ATOM     23  O   UNL     1      46.859  -0.217   7.863  0.00  0.00    +0.000 OA
ATOM     24  H   UNL     1      48.410   0.268   6.015  0.00  0.00    +0.000 HD
ATOM     25  H   UNL     1      48.163   1.981   5.999  0.00  0.00    +0.000 HD
ENDBRANCH  15  22
ENDBRANCH  14  19
ENDBRANCH   1  14
TORSDOF 5
ENDMDL
MODEL 2
REMARK VINA RESULT:    -7.654      2.887      6.978
REMARK INTER + INTRA:         -10.504
REMARK INTER:                  -9.794
REMARK INTRA:                  -0.710
REMARK UNBOUND:                -0.613
REMARK  Name = 
REMARK  5 active torsions:
REMARK  status: ('A' for Active; 'I' for Inactive)
REMARK    1  A    between atoms: C_2  and  C_4
REMARK    2  A    between atoms: C_8  and  O_9
REMARK    3  A    between atoms: O_9  and  C_10
REMARK    4  A    between atoms: C_10  and  C_11
REMARK    5  A    between atoms: C_15  and  N_16
REMARK                            x       y       z     vdW  Elec       q    Type
REMARK                         _______ _______ _______ _____ _____    ______ ____
ROOT
ATOM      1  C   UNL     1      45.449   6.335  12.770  0.00  0.00    +0.000 C 
ENDROOT
BRANCH   1   2
ATOM      2  C   UNL     1      44.854   5.062  12.244  0.00  0.00    +0.000 A 
ATOM      3  C   UNL     1      44.018   4.287  13.037  0.00  0.00    +0.000 A 
ATOM      4  N   UNL     1      43.416   3.158  12.616  0.00  0.00    +0.000 NA
ATOM      5  C   UNL     1      43.672   2.781  11.338  0.00  0.00    +0.000 A 
ATOM      6  C   UNL     1      44.497   3.460  10.437  0.00  0.00    +0.000 A 
ATOM      7  C   UNL     1      45.098   4.620  10.938  0.00  0.00    +0.000 A 
BRANCH   6   8
ATOM      8  N   UNL     1      44.688   3.067   9.127  0.00  0.00    +0.000 N 
ATOM      9  C   UNL     1      44.856   1.659   8.774  0.00  0.00    +0.000 C 
ATOM     10  C   UNL     1      46.268   1.400   8.261  0.00  0.00    +0.000 C 
ATOM     11  C   UNL     1      46.635   2.367   7.139  0.00  0.00    +0.000 C 
ATOM     12  C   UNL     1      46.426   3.817   7.573  0.00  0.00    +0.000 C 
ATOM     13  C   UNL     1      45.008   4.055   8.096  0.00  0.00    +0.000 C 
ENDBRANCH   6   8
ENDBRANCH   1   2
BRANCH   1  14
ATOM     14  O   UNL     1      46.869   6.212  12.803  0.00  0.00    +0.000 OA
BRANCH  14  19
ATOM     15  C   UNL     1      47.837   4.566  15.978  0.00  0.00    +0.000 A 
ATOM     16  C   UNL     1      48.688   5.564  16.431  0.00  0.00    +0.000 A 
ATOM     17  N   UNL     1      48.957   6.690  15.727  0.00  0.00    +0.000 NA
ATOM     18  C   UNL     1      48.321   6.823  14.537  0.00  0.00    +0.000 A 
ATOM     19  C   UNL     1      47.432   5.891  14.005  0.00  0.00    +0.000 A 
ATOM     20  C   UNL     1      47.196   4.736  14.747  0.00  0.00    +0.000 A 
BRANCH  15  22
ATOM     21  N   UNL     1      48.654   2.535  17.016  0.00  0.00    +0.000 N 
ATOM     22  C   UNL     1      47.598   3.383  16.828  0.00  0.00    +0.000 C 
ATOM     23  O   UNL     1      46.515   3.184  17.356  0.00  0.00    +0.000 OA
ATOM     24  H   UNL     1      48.505   1.772  17.671  0.00  0.00    +0.000 HD
ATOM     25  H   UNL     1      49.610   2.802  16.827  0.00  0.00    +0.000 HD
ENDBRANCH  15  22
ENDBRANCH  14  19
ENDBRANCH   1  14
TORSDOF 5
ENDMDL
MODEL 3
REMARK VINA RESULT:    -7.381      1.645      2.618
REMARK INTER + INTRA:         -10.152
REMARK INTER:                  -9.497
REMARK INTRA:                  -0.655
REMARK UNBOUND:                -0.613
REMARK  Name = 
REMARK  5 active torsions:
REMARK  status: ('A' for Active; 'I' for Inactive)
REMARK    1  A    between atoms: C_2  and  C_4
REMARK    2  A    between atoms: C_8  and  O_9
REMARK    3  A    between atoms: O_9  and  C_10
REMARK    4  A    between atoms: C_10  and  C_11
REMARK    5  A    between atoms: C_15  and  N_16
REMARK                            x       y       z     vdW  Elec       q    Type
REMARK                         _______ _______ _______ _____ _____    ______ ____
ROOT
ATOM      1  C   UNL     1      43.946   2.826  11.573  0.00  0.00    +0.000 C 
ENDROOT
BRANCH   1   2
ATOM      2  C   UNL     1      44.569   4.046  12.186  0.00  0.00    +0.000 A 
ATOM      3  C   UNL     1      43.974   5.293  12.048  0.00  0.00    +0.000 A 
ATOM      4  N   UNL     1      44.455   6.421  12.606  0.00  0.00    +0.000 NA
ATOM      5  C   UNL     1      45.594   6.294  13.333  0.00  0.00    +0.000 A 
ATOM      6  C   UNL     1      46.297   5.105  13.545  0.00  0.00    +0.000 A 
ATOM      7  C   UNL     1      45.751   3.972  12.932  0.00  0.00    +0.000 A 
BRANCH   6   8
ATOM      8  N   UNL     1      47.426   5.013  14.336  0.00  0.00    +0.000 N 
ATOM      9  C   UNL     1      47.535   4.001  15.386  0.00  0.00    +0.000 C 
ATOM     10  C   UNL     1      47.549   4.656  16.762  0.00  0.00    +0.000 C 
ATOM     11  C   UNL     1      48.611   5.750  16.843  0.00  0.00    +0.000 C 
ATOM     12  C   UNL     1      48.442   6.765  15.713  0.00  0.00    +0.000 C 
ATOM     13  C   UNL     1      48.418   6.088  14.341  0.00  0.00    +0.000 C 
ENDBRANCH   6   8
ENDBRANCH   1   2
BRANCH   1  14
ATOM     14  O   UNL     1      43.564   3.117  10.230  0.00  0.00    +0.000 OA
BRANCH  14  19
ATOM     15  C   UNL     1      46.254   2.079   7.902  0.00  0.00    +0.000 A 
ATOM     16  C   UNL     1      46.534   3.340   7.397  0.00  0.00    +0.000 A 
ATOM     17  N   UNL     1      45.862   4.457   7.768  0.00  0.00    +0.000 NA
ATOM     18  C   UNL     1      44.894   4.295   8.703  0.00  0.00    +0.000 A 
ATOM     19  C   UNL     1      44.551   3.077   9.287  0.00  0.00    +0.000 A 
ATOM     20  C   UNL     1      45.249   1.948   8.866  0.00  0.00    +0.000 A 
BRANCH  15  22
ATOM     21  N   UNL     1      48.071   1.190   6.569  0.00  0.00    +0.000 N 
ATOM     22  C   UNL     1      47.054   0.926   7.444  0.00  0.00    +0.000 C 
ATOM     23  O   UNL     1      46.832  -0.205   7.846  0.00  0.00    +0.000 OA
ATOM     24  H   UNL     1      48.670   0.405   6.328  0.00  0.00    +0.000 HD
ATOM     25  H   UNL     1      48.448   2.117   6.432  0.00  0.00    +0.000 HD
ENDBRANCH  15  22
ENDBRANCH  14  19
ENDBRANCH   1  14
TORSDOF 5
ENDMDL
MODEL 4
REMARK VINA RESULT:    -7.228      4.004      7.960
REMARK INTER + INTRA:          -9.954
REMARK INTER:                  -9.331
REMARK INTRA:                  -0.623
REMARK UNBOUND:                -0.613
REMARK  Name = 
REMARK  5 active torsions:
REMARK  status: ('A' for Active; 'I' for Inactive)
REMARK    1  A    between atoms: C_2  and  C_4
REMARK    2  A    between atoms: C_8  and  O_9
REMARK    3  A    between atoms: O_9  and  C_10
REMARK    4  A    between atoms: C_10  and  C_11
REMARK    5  A    between atoms: C_15  and  N_16
REMARK                            x       y       z     vdW  Elec       q    Type
REMARK                         _______ _______ _______ _____ _____    ______ ____
ROOT
ATOM      1  C   UNL     1      46.717   4.431  13.769  0.00  0.00    +0.000 C 
ENDROOT
BRANCH   1   2
ATOM      2  C   UNL     1      45.489   4.258  12.925  0.00  0.00    +0.000 A 
ATOM      3  C   UNL     1      44.235   4.589  13.420  0.00  0.00    +0.000 A 
ATOM      4  N   UNL     1      43.097   4.499  12.704  0.00  0.00    +0.000 NA
ATOM      5  C   UNL     1      43.221   4.048  11.431  0.00  0.00    +0.000 A 
ATOM      6  C   UNL     1      44.416   3.674  10.812  0.00  0.00    +0.000 A 
ATOM      7  C   UNL     1      45.560   3.782  11.610  0.00  0.00    +0.000 A 
BRANCH   6   8
ATOM      8  N   UNL     1      44.503   3.269   9.494  0.00  0.00    +0.000 N 
ATOM      9  C   UNL     1      44.609   1.854   9.142  0.00  0.00    +0.000 C 
ATOM     10  C   UNL     1      45.973   1.555   8.531  0.00  0.00    +0.000 C 
ATOM     11  C   UNL     1      46.284   2.506   7.378  0.00  0.00    +0.000 C 
ATOM     12  C   UNL     1      46.144   3.964   7.815  0.00  0.00    +0.000 C 
ATOM     13  C   UNL     1      44.774   4.242   8.436  0.00  0.00    +0.000 C 
ENDBRANCH   6   8
ENDBRANCH   1   2
BRANCH   1  14
ATOM     14  O   UNL     1      46.373   4.261  15.142  0.00  0.00    +0.000 OA
BRANCH  14  19
ATOM     15  C   UNL     1      48.754   3.750  17.935  0.00  0.00    +0.000 A 
ATOM     16  C   UNL     1      49.435   2.678  17.380  0.00  0.00    +0.000 A 
ATOM     17  N   UNL     1      49.116   2.131  16.182  0.00  0.00    +0.000 NA
ATOM     18  C   UNL     1      48.089   2.709  15.511  0.00  0.00    +0.000 A 
ATOM     19  C   UNL     1      47.356   3.802  15.971  0.00  0.00    +0.000 A 
ATOM     20  C   UNL     1      47.700   4.323  17.216  0.00  0.00    +0.000 A 
BRANCH  15  22
ATOM     21  N   UNL     1      48.542   3.809  20.348  0.00  0.00    +0.000 N 
ATOM     22  C   UNL     1      49.190   4.282  19.241  0.00  0.00    +0.000 C 
ATOM     23  O   UNL     1      50.103   5.089  19.329  0.00  0.00    +0.000 OA
ATOM     24  H   UNL     1      48.907   4.114  21.246  0.00  0.00    +0.000 HD
ATOM     25  H   UNL     1      47.987   2.965  20.338  0.00  0.00    +0.000 HD
ENDBRANCH  15  22
ENDBRANCH  14  19
ENDBRANCH   1  14
TORSDOF 5
ENDMDL
MODEL 5
REMARK VINA RESULT:    -7.067      2.821      6.948
REMARK INTER + INTRA:          -9.746
REMARK INTER:                  -8.893
REMARK INTRA:                  -0.853
REMARK UNBOUND:                -0.613
REMARK  Name = 
REMARK  5 active torsions:
REMARK  status: ('A' for Active; 'I' for Inactive)
REMARK    1  A    between atoms: C_2  and  C_4
REMARK    2  A    between atoms: C_8  and  O_9
REMARK    3  A    between atoms: O_9  and  C_10
REMARK    4  A    between atoms: C_10  and  C_11
REMARK    5  A    between atoms: C_15  and  N_16
REMARK                            x       y       z     vdW  Elec       q    Type
REMARK                         _______ _______ _______ _____ _____    ______ ____
ROOT
ATOM      1  C   UNL     1      46.392   5.568  13.190  0.00  0.00    +0.000 C 
ENDROOT
BRANCH   1   2
ATOM      2  C   UNL     1      45.415   4.618  12.563  0.00  0.00    +0.000 A 
ATOM      3  C   UNL     1      44.342   4.120  13.289  0.00  0.00    +0.000 A 
ATOM      4  N   UNL     1      43.405   3.298  12.778  0.00  0.00    +0.000 NA
ATOM      5  C   UNL     1      43.554   2.952  11.475  0.00  0.00    +0.000 A 
ATOM      6  C   UNL     1      44.587   3.373  10.634  0.00  0.00    +0.000 A 
ATOM      7  C   UNL     1      45.532   4.218  11.227  0.00  0.00    +0.000 A 
BRANCH   6   8
ATOM      8  N   UNL     1      44.672   3.036   9.297  0.00  0.00    +0.000 N 
ATOM      9  C   UNL     1      44.869   1.651   8.875  0.00  0.00    +0.000 C 
ATOM     10  C   UNL     1      46.236   1.478   8.224  0.00  0.00    +0.000 C 
ATOM     11  C   UNL     1      46.453   2.502   7.112  0.00  0.00    +0.000 C 
ATOM     12  C   UNL     1      46.222   3.924   7.621  0.00  0.00    +0.000 C 
ATOM     13  C   UNL     1      44.850   4.075   8.281  0.00  0.00    +0.000 C 
ENDBRANCH   6   8
ENDBRANCH   1   2
BRANCH   1  14
ATOM     14  O   UNL     1      47.000   6.359  12.171  0.00  0.00    +0.000 OA
BRANCH  14  19
ATOM     15  C   UNL     1      45.133   9.529  11.733  0.00  0.00    +0.000 A 
ATOM     16  C   UNL     1      46.195  10.385  11.986  0.00  0.00    +0.000 A 
ATOM     17  N   UNL     1      47.438   9.955  12.314  0.00  0.00    +0.000 NA
ATOM     18  C   UNL     1      47.617   8.612  12.359  0.00  0.00    +0.000 A 
ATOM     19  C   UNL     1      46.623   7.669  12.101  0.00  0.00    +0.000 A 
ATOM     20  C   UNL     1      45.354   8.149  11.788  0.00  0.00    +0.000 A 
BRANCH  15  22
ATOM     21  N   UNL     1      43.101   9.429  10.419  0.00  0.00    +0.000 N 
ATOM     22  C   UNL     1      43.821  10.099  11.369  0.00  0.00    +0.000 C 
ATOM     23  O   UNL     1      43.391  11.107  11.907  0.00  0.00    +0.000 OA
ATOM     24  H   UNL     1      42.163   9.779  10.239  0.00  0.00    +0.000 HD
ATOM     25  H   UNL     1      43.295   8.472  10.159  0.00  0.00    +0.000 HD
ENDBRANCH  15  22
ENDBRANCH  14  19
ENDBRANCH   1  14
TORSDOF 5
ENDMDL
MODEL 6
REMARK VINA RESULT:    -6.951      2.798      6.973
REMARK INTER + INTRA:          -9.596
REMARK INTER:                  -8.806
REMARK INTRA:                  -0.790
REMARK UNBOUND:                -0.613
REMARK  Name = 
REMARK  5 active torsions:
REMARK  status: ('A' for Active; 'I' for Inactive)
REMARK    1  A    between atoms: C_2  and  C_4
REMARK    2  A    between atoms: C_8  and  O_9
REMARK    3  A    between atoms: O_9  and  C_10
REMARK    4  A    between atoms: C_10  and  C_11
REMARK    5  A    between atoms: C_15  and  N_16
REMARK                            x       y       z     vdW  Elec       q    Type
REMARK                         _______ _______ _______ _____ _____    ______ ____
ROOT
ATOM      1  C   UNL     1      45.165   6.738  12.436  0.00  0.00    +0.000 C 
ENDROOT
BRANCH   1   2
ATOM      2  C   UNL     1      44.727   5.351  12.067  0.00  0.00    +0.000 A 
ATOM      3  C   UNL     1      44.085   4.539  12.992  0.00  0.00    +0.000 A 
ATOM      4  N   UNL     1      43.628   3.302  12.717  0.00  0.00    +0.000 NA
ATOM      5  C   UNL     1      43.832   2.853  11.453  0.00  0.00    +0.000 A 
ATOM      6  C   UNL     1      44.468   3.559  10.430  0.00  0.00    +0.000 A 
ATOM      7  C   UNL     1      44.927   4.834  10.782  0.00  0.00    +0.000 A 
BRANCH   6   8
ATOM      8  N   UNL     1      44.608   3.083   9.141  0.00  0.00    +0.000 N 
ATOM      9  C   UNL     1      44.800   1.658   8.876  0.00  0.00    +0.000 C 
ATOM     10  C   UNL     1      46.193   1.401   8.313  0.00  0.00    +0.000 C 
ATOM     11  C   UNL     1      46.477   2.298   7.111  0.00  0.00    +0.000 C 
ATOM     12  C   UNL     1      46.248   3.769   7.456  0.00  0.00    +0.000 C 
ATOM     13  C   UNL     1      44.850   4.005   8.032  0.00  0.00    +0.000 C 
ENDBRANCH   6   8
ENDBRANCH   1   2
BRANCH   1  14
ATOM     14  O   UNL     1      46.418   7.017  11.815  0.00  0.00    +0.000 OA
BRANCH  14  19
ATOM     15  C   UNL     1      48.848   6.862  14.607  0.00  0.00    +0.000 A 
ATOM     16  C   UNL     1      49.739   7.798  14.105  0.00  0.00    +0.000 A 
ATOM     17  N   UNL     1      49.576   8.418  12.911  0.00  0.00    +0.000 NA
ATOM     18  C   UNL     1      48.457   8.099  12.216  0.00  0.00    +0.000 A 
ATOM     19  C   UNL     1      47.491   7.189  12.642  0.00  0.00    +0.000 A 
ATOM     20  C   UNL     1      47.704   6.557  13.864  0.00  0.00    +0.000 A 
BRANCH  15  22
ATOM     21  N   UNL     1      48.018   5.912  16.675  0.00  0.00    +0.000 N 
ATOM     22  C   UNL     1      49.110   6.254  15.927  0.00  0.00    +0.000 C 
ATOM     23  O   UNL     1      50.247   6.047  16.320  0.00  0.00    +0.000 OA
ATOM     24  H   UNL     1      48.207   5.415  17.542  0.00  0.00    +0.000 HD
ATOM     25  H   UNL     1      47.092   5.817  16.281  0.00  0.00    +0.000 HD
ENDBRANCH  15  22
ENDBRANCH  14  19
ENDBRANCH   1  14
TORSDOF 5
ENDMDL
MODEL 7
REMARK VINA RESULT:    -6.568      2.814      5.159
REMARK INTER + INTRA:          -9.101
REMARK INTER:                  -8.371
REMARK INTRA:                  -0.730
REMARK UNBOUND:                -0.613
REMARK  Name = 
REMARK  5 active torsions:
REMARK  status: ('A' for Active; 'I' for Inactive)
REMARK    1  A    between atoms: C_2  and  C_4
REMARK    2  A    between atoms: C_8  and  O_9
REMARK    3  A    between atoms: O_9  and  C_10
REMARK    4  A    between atoms: C_10  and  C_11
REMARK    5  A    between atoms: C_15  and  N_16
REMARK                            x       y       z     vdW  Elec       q    Type
REMARK                         _______ _______ _______ _____ _____    ______ ____
ROOT
ATOM      1  C   UNL     1      46.816   7.119  12.170  0.00  0.00    +0.000 C 
ENDROOT
BRANCH   1   2
ATOM      2  C   UNL     1      47.867   7.065  13.240  0.00  0.00    +0.000 A 
ATOM      3  C   UNL     1      48.992   7.877  13.172  0.00  0.00    +0.000 A 
ATOM      4  N   UNL     1      49.952   7.911  14.117  0.00  0.00    +0.000 NA
ATOM      5  C   UNL     1      49.780   7.085  15.179  0.00  0.00    +0.000 A 
ATOM      6  C   UNL     1      48.704   6.214  15.369  0.00  0.00    +0.000 A 
ATOM      7  C   UNL     1      47.746   6.220  14.349  0.00  0.00    +0.000 A 
BRANCH   6   8
ATOM      8  N   UNL     1      48.544   5.427  16.493  0.00  0.00    +0.000 N 
ATOM      9  C   UNL     1      49.571   5.370  17.531  0.00  0.00    +0.000 C 
ATOM     10  C   UNL     1      50.206   3.985  17.581  0.00  0.00    +0.000 C 
ATOM     11  C   UNL     1      49.145   2.894  17.699  0.00  0.00    +0.000 C 
ATOM     12  C   UNL     1      48.102   3.020  16.589  0.00  0.00    +0.000 C 
ATOM     13  C   UNL     1      47.484   4.420  16.547  0.00  0.00    +0.000 C 
ENDBRANCH   6   8
ENDBRANCH   1   2
BRANCH   1  14
ATOM     14  O   UNL     1      45.551   6.780  12.736  0.00  0.00    +0.000 OA
BRANCH  14  19
ATOM     15  C   UNL     1      44.381   3.843  10.805  0.00  0.00    +0.000 A 
ATOM     16  C   UNL     1      43.730   3.205  11.850  0.00  0.00    +0.000 A 
ATOM     17  N   UNL     1      43.703   3.685  13.116  0.00  0.00    +0.000 NA
ATOM     18  C   UNL     1      44.333   4.867  13.325  0.00  0.00    +0.000 A 
ATOM     19  C   UNL     1      44.997   5.597  12.339  0.00  0.00    +0.000 A 
ATOM     20  C   UNL     1      45.020   5.061  11.055  0.00  0.00    +0.000 A 
BRANCH  15  22
ATOM     21  N   UNL     1      44.209   4.105   8.402  0.00  0.00    +0.000 N 
ATOM     22  C   UNL     1      44.338   3.244   9.457  0.00  0.00    +0.000 C 
ATOM     23  O   UNL     1      44.435   2.038   9.290  0.00  0.00    +0.000 OA
ATOM     24  H   UNL     1      44.269   3.691   7.475  0.00  0.00    +0.000 HD
ATOM     25  H   UNL     1      44.396   5.095   8.479  0.00  0.00    +0.000 HD
ENDBRANCH  15  22
ENDBRANCH  14  19
ENDBRANCH   1  14
TORSDOF 5
ENDMDL
MODEL 8
REMARK VINA RESULT:    -6.540      2.886      6.839
REMARK INTER + INTRA:          -9.065
REMARK INTER:                  -8.386
REMARK INTRA:                  -0.679
REMARK UNBOUND:                -0.613
REMARK  Name = 
REMARK  5 active torsions:
REMARK  status: ('A' for Active; 'I' for Inactive)
REMARK    1  A    between atoms: C_2  and  C_4
REMARK    2  A    between atoms: C_8  and  O_9
REMARK    3  A    between atoms: O_9  and  C_10
REMARK    4  A    between atoms: C_10  and  C_11
REMARK    5  A    between atoms: C_15  and  N_16
REMARK                            x       y       z     vdW  Elec       q    Type
REMARK                         _______ _______ _______ _____ _____    ______ ____
ROOT
ATOM      1  C   UNL     1      45.520   6.444  12.656  0.00  0.00    +0.000 C 
ENDROOT
BRANCH   1   2
ATOM      2  C   UNL     1      44.941   5.141  12.189  0.00  0.00    +0.000 A 
ATOM      3  C   UNL     1      44.164   4.363  13.037  0.00  0.00    +0.000 A 
ATOM      4  N   UNL     1      43.580   3.206  12.671  0.00  0.00    +0.000 NA
ATOM      5  C   UNL     1      43.792   2.803  11.393  0.00  0.00    +0.000 A 
ATOM      6  C   UNL     1      44.556   3.482  10.440  0.00  0.00    +0.000 A 
ATOM      7  C   UNL     1      45.142   4.672  10.885  0.00  0.00    +0.000 A 
BRANCH   6   8
ATOM      8  N   UNL     1      44.703   3.061   9.133  0.00  0.00    +0.000 N 
ATOM      9  C   UNL     1      44.938   1.654   8.812  0.00  0.00    +0.000 C 
ATOM     10  C   UNL     1      46.334   1.464   8.231  0.00  0.00    +0.000 C 
ATOM     11  C   UNL     1      46.583   2.416   7.064  0.00  0.00    +0.000 C 
ATOM     12  C   UNL     1      46.309   3.864   7.468  0.00  0.00    +0.000 C 
ATOM     13  C   UNL     1      44.908   4.033   8.060  0.00  0.00    +0.000 C 
ENDBRANCH   6   8
ENDBRANCH   1   2
BRANCH   1  14
ATOM     14  O   UNL     1      46.929   6.302  12.820  0.00  0.00    +0.000 OA
BRANCH  14  19
ATOM     15  C   UNL     1      49.635   8.683  11.962  0.00  0.00    +0.000 A 
ATOM     16  C   UNL     1      48.978   9.835  12.368  0.00  0.00    +0.000 A 
ATOM     17  N   UNL     1      47.716   9.840  12.861  0.00  0.00    +0.000 NA
ATOM     18  C   UNL     1      47.109   8.633  12.971  0.00  0.00    +0.000 A 
ATOM     19  C   UNL     1      47.688   7.418  12.612  0.00  0.00    +0.000 A 
ATOM     20  C   UNL     1      48.979   7.455  12.091  0.00  0.00    +0.000 A 
BRANCH  15  22
ATOM     21  N   UNL     1      51.950   7.976  12.040  0.00  0.00    +0.000 N 
ATOM     22  C   UNL     1      51.016   8.783  11.453  0.00  0.00    +0.000 C 
ATOM     23  O   UNL     1      51.306   9.536  10.536  0.00  0.00    +0.000 OA
ATOM     24  H   UNL     1      52.879   7.988  11.625  0.00  0.00    +0.000 HD
ATOM     25  H   UNL     1      51.704   7.169  12.596  0.00  0.00    +0.000 HD
ENDBRANCH  15  22
ENDBRANCH  14  19
ENDBRANCH   1  14
TORSDOF 5
ENDMDL
MODEL 9
REMARK VINA RESULT:    -6.364      3.790      7.678
REMARK INTER + INTRA:          -8.838
REMARK INTER:                  -7.962
REMARK INTRA:                  -0.876
REMARK UNBOUND:                -0.613
REMARK  Name = 
REMARK  5 active torsions:
REMARK  status: ('A' for Active; 'I' for Inactive)
REMARK    1  A    between atoms: C_2  and  C_4
REMARK    2  A    between atoms: C_8  and  O_9
REMARK    3  A    between atoms: O_9  and  C_10
REMARK    4  A    between atoms: C_10  and  C_11
REMARK    5  A    between atoms: C_15  and  N_16
REMARK                            x       y       z     vdW  Elec       q    Type
REMARK                         _______ _______ _______ _____ _____    ______ ____
ROOT
ATOM      1  C   UNL     1      48.602   6.830  13.142  0.00  0.00    +0.000 C 
ENDROOT
BRANCH   1   2
ATOM      2  C   UNL     1      47.247   7.178  12.600  0.00  0.00    +0.000 A 
ATOM      3  C   UNL     1      46.870   8.502  12.425  0.00  0.00    +0.000 A 
ATOM      4  N   UNL     1      45.688   8.885  11.905  0.00  0.00    +0.000 NA
ATOM      5  C   UNL     1      44.837   7.891  11.549  0.00  0.00    +0.000 A 
ATOM      6  C   UNL     1      45.085   6.522  11.677  0.00  0.00    +0.000 A 
ATOM      7  C   UNL     1      46.326   6.190  12.231  0.00  0.00    +0.000 A 
BRANCH   6   8
ATOM      8  N   UNL     1      44.209   5.541  11.252  0.00  0.00    +0.000 N 
ATOM      9  C   UNL     1      43.070   5.136  12.073  0.00  0.00    +0.000 C 
ATOM     10  C   UNL     1      43.244   3.704  12.563  0.00  0.00    +0.000 C 
ATOM     11  C   UNL     1      43.541   2.755  11.403  0.00  0.00    +0.000 C 
ATOM     12  C   UNL     1      44.735   3.244  10.585  0.00  0.00    +0.000 C 
ATOM     13  C   UNL     1      44.548   4.688  10.113  0.00  0.00    +0.000 C 
ENDBRANCH   6   8
ENDBRANCH   1   2
BRANCH   1  14
ATOM     14  O   UNL     1      48.765   7.431  14.424  0.00  0.00    +0.000 OA
BRANCH  14  19
ATOM     15  C   UNL     1      48.490   4.818  17.036  0.00  0.00    +0.000 A 
ATOM     16  C   UNL     1      49.692   5.091  17.673  0.00  0.00    +0.000 A 
ATOM     17  N   UNL     1      50.557   6.046  17.255  0.00  0.00    +0.000 NA
ATOM     18  C   UNL     1      50.178   6.769  16.172  0.00  0.00    +0.000 A 
ATOM     19  C   UNL     1      48.984   6.589  15.476  0.00  0.00    +0.000 A 
ATOM     20  C   UNL     1      48.130   5.584  15.923  0.00  0.00    +0.000 A 
BRANCH  15  22
ATOM     21  N   UNL     1      48.018   3.155  18.734  0.00  0.00    +0.000 N 
ATOM     22  C   UNL     1      47.610   3.765  17.580  0.00  0.00    +0.000 C 
ATOM     23  O   UNL     1      46.558   3.469  17.037  0.00  0.00    +0.000 OA
ATOM     24  H   UNL     1      47.365   2.495  19.148  0.00  0.00    +0.000 HD
ATOM     25  H   UNL     1      48.722   3.550  19.342  0.00  0.00    +0.000 HD
ENDBRANCH  15  22
ENDBRANCH  14  19
ENDBRANCH   1  14
TORSDOF 5
ENDMDL
