MODEL 1
REMARK VINA RESULT:    -8.033      0.000      0.000
REMARK INTER + INTRA:         -11.175
REMARK INTER:                 -10.381
REMARK INTRA:                  -0.794
REMARK UNBOUND:                -0.794
REMARK  Name = 
REMARK  5 active torsions:
REMARK  status: ('A' for Active; 'I' for Inactive)
REMARK    1  A    between atoms: C_2  and  C_4
REMARK    2  A    between atoms: C_7  and  C_8
REMARK    3  A    between atoms: C_8  and  N_9
REMARK    4  A    between atoms: N_9  and  C_10
REMARK    5  A    between atoms: C_15  and  C_16
REMARK                            x       y       z     vdW  Elec       q    Type
REMARK                         _______ _______ _______ _____ _____    ______ ____
ROOT
ATOM      1  N   UNL     1      44.499   5.591  10.655  0.00  0.00    +0.000 N 
ATOM      2  H   UNL     1      43.770   6.290  10.774  0.00  0.00    +0.000 HD
ENDROOT
BRANCH   1   3
ATOM      3  C   UNL     1      45.448   5.653  11.681  0.00  0.00    +0.000 A 
ATOM      4  C   UNL     1      45.503   4.767  12.755  0.00  0.00    +0.000 A 
ATOM      5  C   UNL     1      46.548   4.845  13.670  0.00  0.00    +0.000 A 
ATOM      6  F   UNL     1      46.592   3.975  14.689  0.00  0.00    +0.000 F 
ATOM      7  C   UNL     1      47.559   5.795  13.546  0.00  0.00    +0.000 A 
ATOM      8  C   UNL     1      47.547   6.701  12.478  0.00  0.00    +0.000 A 
ATOM      9  C   UNL     1      46.503   6.576  11.543  0.00  0.00    +0.000 A 
BRANCH   8  10
ATOM     10  C   UNL     1      48.675   7.725  12.337  0.00  0.00    +0.000 C 
ATOM     11  C   UNL     1      49.339   8.081  13.684  0.00  0.00    +0.000 C 
ATOM     12  C   UNL     1      48.494   9.053  14.508  0.00  0.00    +0.000 C 
ATOM     13  N   UNL     1      48.206  10.288  13.775  0.00  0.00    +0.000 NA
ATOM     14  C   UNL     1      47.524  10.009  12.513  0.00  0.00    +0.000 C 
ATOM     15  C   UNL     1      48.317   9.046  11.622  0.00  0.00    +0.000 C 
ATOM     16  H   UNL     1      49.081  10.775  13.582  0.00  0.00    +0.000 HD
ENDBRANCH   8  10
ENDBRANCH   1   3
BRANCH   1  17
ATOM     17  C   UNL     1      43.953   4.304  10.246  0.00  0.00    +0.000 C 
BRANCH  17  21
ATOM     18  C   UNL     1      46.613   2.418   7.516  0.00  0.00    +0.000 A 
ATOM     19  C   UNL     1      46.467   3.796   7.429  0.00  0.00    +0.000 A 
ATOM     20  C   UNL     1      45.590   4.417   8.313  0.00  0.00    +0.000 A 
ATOM     21  C   UNL     1      44.889   3.656   9.257  0.00  0.00    +0.000 A 
ATOM     22  C   UNL     1      45.105   2.280   9.257  0.00  0.00    +0.000 A 
ATOM     23  N   UNL     1      45.943   1.638   8.413  0.00  0.00    +0.000 NA
BRANCH  18  25
ATOM     24  N   UNL     1      48.710   2.396   6.293  0.00  0.00    +0.000 N 
ATOM     25  C   UNL     1      47.558   1.715   6.588  0.00  0.00    +0.000 C 
ATOM     26  O   UNL     1      47.327   0.607   6.118  0.00  0.00    +0.000 OA
ATOM     27  H   UNL     1      49.387   1.983   5.669  0.00  0.00    +0.000 HD
ATOM     28  H   UNL     1      48.866   3.311   6.698  0.00  0.00    +0.000 HD
ENDBRANCH  18  25
ENDBRANCH  17  21
ENDBRANCH   1  17
TORSDOF 5
ENDMDL
MODEL 2
REMARK VINA RESULT:    -7.824      5.098      7.907
REMARK INTER + INTRA:         -10.905
REMARK INTER:                 -10.548
REMARK INTRA:                  -0.357
REMARK UNBOUND:                -0.794
REMARK  Name = 
REMARK  5 active torsions:
REMARK  status: ('A' for Active; 'I' for Inactive)
REMARK    1  A    between atoms: C_2  and  C_4
REMARK    2  A    between atoms: C_7  and  C_8
REMARK    3  A    between atoms: C_8  and  N_9
REMARK    4  A    between atoms: N_9  and  C_10
REMARK    5  A    between atoms: C_15  and  C_16
REMARK                            x       y       z     vdW  Elec       q    Type
REMARK                         _______ _______ _______ _____ _____    ______ ____
ROOT
ATOM      1  N   UNL     1      46.717   4.012  15.134  0.00  0.00    +0.000 N 
ATOM      2  H   UNL     1      45.841   3.520  15.291  0.00  0.00    +0.000 HD
ENDROOT
BRANCH   1   3
ATOM      3  C   UNL     1      46.648   4.847  14.015  0.00  0.00    +0.000 A 
ATOM      4  C   UNL     1      47.598   5.816  13.697  0.00  0.00    +0.000 A 
ATOM      5  C   UNL     1      47.498   6.527  12.505  0.00  0.00    +0.000 A 
ATOM      6  F   UNL     1      48.428   7.445  12.210  0.00  0.00    +0.000 F 
ATOM      7  C   UNL     1      46.463   6.296  11.602  0.00  0.00    +0.000 A 
ATOM      8  C   UNL     1      45.490   5.326  11.877  0.00  0.00    +0.000 A 
ATOM      9  C   UNL     1      45.636   4.593  13.068  0.00  0.00    +0.000 A 
BRANCH   8  10
ATOM     10  C   UNL     1      44.371   5.065  10.867  0.00  0.00    +0.000 C 
ATOM     11  C   UNL     1      43.156   4.343  11.486  0.00  0.00    +0.000 C 
ATOM     12  C   UNL     1      43.403   2.847  11.673  0.00  0.00    +0.000 C 
ATOM     13  N   UNL     1      43.761   2.188  10.414  0.00  0.00    +0.000 NA
ATOM     14  C   UNL     1      44.944   2.799   9.813  0.00  0.00    +0.000 C 
ATOM     15  C   UNL     1      44.769   4.305   9.584  0.00  0.00    +0.000 C 
ATOM     16  H   UNL     1      42.979   2.261   9.763  0.00  0.00    +0.000 HD
ENDBRANCH   8  10
ENDBRANCH   1   3
BRANCH   1  17
ATOM     17  C   UNL     1      47.289   4.508  16.379  0.00  0.00    +0.000 C 
BRANCH  17  21
ATOM     18  C   UNL     1      50.766   2.233  17.286  0.00  0.00    +0.000 A 
ATOM     19  C   UNL     1      50.681   3.520  17.802  0.00  0.00    +0.000 A 
ATOM     20  C   UNL     1      49.551   4.272  17.500  0.00  0.00    +0.000 A 
ATOM     21  C   UNL     1      48.539   3.726  16.700  0.00  0.00    +0.000 A 
ATOM     22  C   UNL     1      48.725   2.429  16.229  0.00  0.00    +0.000 A 
ATOM     23  N   UNL     1      49.809   1.668  16.495  0.00  0.00    +0.000 NA
BRANCH  18  25
ATOM     24  N   UNL     1      51.694   0.149  18.115  0.00  0.00    +0.000 N 
ATOM     25  C   UNL     1      51.964   1.389  17.599  0.00  0.00    +0.000 C 
ATOM     26  O   UNL     1      53.114   1.771  17.413  0.00  0.00    +0.000 OA
ATOM     27  H   UNL     1      52.454  -0.469  18.354  0.00  0.00    +0.000 HD
ATOM     28  H   UNL     1      50.731  -0.132  18.258  0.00  0.00    +0.000 HD
ENDBRANCH  18  25
ENDBRANCH  17  21
ENDBRANCH   1  17
TORSDOF 5
ENDMDL
MODEL 3
REMARK VINA RESULT:    -6.546      4.266      7.447
REMARK INTER + INTRA:          -9.253
REMARK INTER:                  -8.917
REMARK INTRA:                  -0.337
REMARK UNBOUND:                -0.794
REMARK  Name = 
REMARK  5 active torsions:
REMARK  status: ('A' for Active; 'I' for Inactive)
REMARK    1  A    between atoms: C_2  and  C_4
REMARK    2  A    between atoms: C_7  and  C_8
REMARK    3  A    between atoms: C_8  and  N_9
REMARK    4  A    between atoms: N_9  and  C_10
REMARK    5  A    between atoms: C_15  and  C_16
REMARK                            x       y       z     vdW  Elec       q    Type
REMARK                         _______ _______ _______ _____ _____    ______ ____
ROOT
ATOM      1  N   UNL     1      47.224   8.125  13.802  0.00  0.00    +0.000 N 
ATOM      2  H   UNL     1      47.698   9.012  13.961  0.00  0.00    +0.000 HD
ENDROOT
BRANCH   1   3
ATOM      3  C   UNL     1      46.126   8.271  12.949  0.00  0.00    +0.000 A 
ATOM      4  C   UNL     1      45.681   9.491  12.443  0.00  0.00    +0.000 A 
ATOM      5  C   UNL     1      44.644   9.524  11.515  0.00  0.00    +0.000 A 
ATOM      6  F   UNL     1      44.238  10.706  11.029  0.00  0.00    +0.000 F 
ATOM      7  C   UNL     1      44.027   8.359  11.066  0.00  0.00    +0.000 A 
ATOM      8  C   UNL     1      44.447   7.110  11.543  0.00  0.00    +0.000 A 
ATOM      9  C   UNL     1      45.524   7.100  12.448  0.00  0.00    +0.000 A 
BRANCH   8  10
ATOM     10  C   UNL     1      43.778   5.836  11.026  0.00  0.00    +0.000 C 
ATOM     11  C   UNL     1      42.573   5.396  11.883  0.00  0.00    +0.000 C 
ATOM     12  C   UNL     1      43.002   4.704  13.176  0.00  0.00    +0.000 C 
ATOM     13  N   UNL     1      43.856   3.542  12.920  0.00  0.00    +0.000 NA
ATOM     14  C   UNL     1      45.045   3.916  12.158  0.00  0.00    +0.000 C 
ATOM     15  C   UNL     1      44.696   4.609  10.836  0.00  0.00    +0.000 C 
ATOM     16  H   UNL     1      43.327   2.846  12.396  0.00  0.00    +0.000 HD
ENDBRANCH   8  10
ENDBRANCH   1   3
BRANCH   1  17
ATOM     17  C   UNL     1      48.169   7.037  13.593  0.00  0.00    +0.000 C 
BRANCH  17  21
ATOM     18  C   UNL     1      47.717   4.208  16.736  0.00  0.00    +0.000 A 
ATOM     19  C   UNL     1      48.572   5.281  16.949  0.00  0.00    +0.000 A 
ATOM     20  C   UNL     1      48.732   6.204  15.921  0.00  0.00    +0.000 A 
ATOM     21  C   UNL     1      48.037   6.038  14.716  0.00  0.00    +0.000 A 
ATOM     22  C   UNL     1      47.209   4.925  14.603  0.00  0.00    +0.000 A 
ATOM     23  N   UNL     1      47.030   4.004  15.576  0.00  0.00    +0.000 NA
BRANCH  18  25
ATOM     24  N   UNL     1      48.387   3.279  18.877  0.00  0.00    +0.000 N 
ATOM     25  C   UNL     1      47.511   3.200  17.826  0.00  0.00    +0.000 C 
ATOM     26  O   UNL     1      46.624   2.355  17.791  0.00  0.00    +0.000 OA
ATOM     27  H   UNL     1      48.309   2.627  19.642  0.00  0.00    +0.000 HD
ATOM     28  H   UNL     1      49.110   3.989  18.871  0.00  0.00    +0.000 HD
ENDBRANCH  18  25
ENDBRANCH  17  21
ENDBRANCH   1  17
TORSDOF 5
ENDMDL
MODEL 4
REMARK VINA RESULT:    -6.479      5.267      8.835
REMARK INTER + INTRA:          -9.167
REMARK INTER:                  -8.786
REMARK INTRA:                  -0.381
REMARK UNBOUND:                -0.794
REMARK  Name = 
REMARK  5 active torsions:
REMARK  status: ('A' for Active; 'I' for Inactive)
REMARK    1  A    between atoms: C_2  and  C_4
REMARK    2  A    between atoms: C_7  and  C_8
REMARK    3  A    between atoms: C_8  and  N_9
REMARK    4  A    between atoms: N_9  and  C_10
REMARK    5  A    between atoms: C_15  and  C_16
REMARK                            x       y       z     vdW  Elec       q    Type
REMARK                         _______ _______ _______ _____ _____    ______ ____
ROOT
ATOM      1  N   UNL     1      46.528   4.356  15.182  0.00  0.00    +0.000 N 
ATOM      2  H   UNL     1      46.200   4.927  15.958  0.00  0.00    +0.000 HD
ENDROOT
BRANCH   1   3
ATOM      3  C   UNL     1      46.526   5.069  13.978  0.00  0.00    +0.000 A 
ATOM      4  C   UNL     1      47.533   5.948  13.584  0.00  0.00    +0.000 A 
ATOM      5  C   UNL     1      47.494   6.531  12.321  0.00  0.00    +0.000 A 
ATOM      6  F   UNL     1      48.479   7.364  11.954  0.00  0.00    +0.000 F 
ATOM      7  C   UNL     1      46.467   6.259  11.422  0.00  0.00    +0.000 A 
ATOM      8  C   UNL     1      45.437   5.376  11.773  0.00  0.00    +0.000 A 
ATOM      9  C   UNL     1      45.521   4.768  13.039  0.00  0.00    +0.000 A 
BRANCH   8  10
ATOM     10  C   UNL     1      44.326   5.065  10.770  0.00  0.00    +0.000 C 
ATOM     11  C   UNL     1      43.131   4.322  11.402  0.00  0.00    +0.000 C 
ATOM     12  C   UNL     1      43.419   2.837  11.615  0.00  0.00    +0.000 C 
ATOM     13  N   UNL     1      43.794   2.166  10.369  0.00  0.00    +0.000 NA
ATOM     14  C   UNL     1      44.960   2.798   9.756  0.00  0.00    +0.000 C 
ATOM     15  C   UNL     1      44.744   4.294   9.500  0.00  0.00    +0.000 C 
ATOM     16  H   UNL     1      43.011   2.205   9.717  0.00  0.00    +0.000 HD
ENDBRANCH   8  10
ENDBRANCH   1   3
BRANCH   1  17
ATOM     17  C   UNL     1      47.688   3.557  15.552  0.00  0.00    +0.000 C 
BRANCH  17  21
ATOM     18  C   UNL     1      49.089   4.673  19.409  0.00  0.00    +0.000 A 
ATOM     19  C   UNL     1      47.830   5.116  19.024  0.00  0.00    +0.000 A 
ATOM     20  C   UNL     1      47.371   4.762  17.759  0.00  0.00    +0.000 A 
ATOM     21  C   UNL     1      48.170   3.978  16.917  0.00  0.00    +0.000 A 
ATOM     22  C   UNL     1      49.418   3.592  17.398  0.00  0.00    +0.000 A 
ATOM     23  N   UNL     1      49.903   3.918  18.617  0.00  0.00    +0.000 NA
BRANCH  18  25
ATOM     24  N   UNL     1      48.683   5.029  21.776  0.00  0.00    +0.000 N 
ATOM     25  C   UNL     1      49.612   5.025  20.769  0.00  0.00    +0.000 C 
ATOM     26  O   UNL     1      50.789   5.294  20.979  0.00  0.00    +0.000 OA
ATOM     27  H   UNL     1      48.966   5.263  22.715  0.00  0.00    +0.000 HD
ATOM     28  H   UNL     1      47.718   4.804  21.565  0.00  0.00    +0.000 HD
ENDBRANCH  18  25
ENDBRANCH  17  21
ENDBRANCH   1  17
TORSDOF 5
ENDMDL
MODEL 5
REMARK VINA RESULT:    -6.477      4.263      6.239
REMARK INTER + INTRA:          -9.164
REMARK INTER:                  -8.496
REMARK INTRA:                  -0.668
REMARK UNBOUND:                -0.794
REMARK  Name = 
REMARK  5 active torsions:
REMARK  status: ('A' for Active; 'I' for Inactive)
REMARK    1  A    between atoms: C_2  and  C_4
REMARK    2  A    between atoms: C_7  and  C_8
REMARK    3  A    between atoms: C_8  and  N_9
REMARK    4  A    between atoms: N_9  and  C_10
REMARK    5  A    between atoms: C_15  and  C_16
REMARK                            x       y       z     vdW  Elec       q    Type
REMARK                         _______ _______ _______ _____ _____    ______ ____
ROOT
ATOM      1  N   UNL     1      47.748   7.300  14.530  0.00  0.00    +0.000 N 
ATOM      2  H   UNL     1      46.975   6.789  14.951  0.00  0.00    +0.000 HD
ENDROOT
BRANCH   1   3
ATOM      3  C   UNL     1      48.965   6.999  15.151  0.00  0.00    +0.000 A 
ATOM      4  C   UNL     1      50.188   7.563  14.795  0.00  0.00    +0.000 A 
ATOM      5  C   UNL     1      51.329   7.282  15.542  0.00  0.00    +0.000 A 
ATOM      6  F   UNL     1      52.494   7.844  15.193  0.00  0.00    +0.000 F 
ATOM      7  C   UNL     1      51.287   6.442  16.652  0.00  0.00    +0.000 A 
ATOM      8  C   UNL     1      50.076   5.859  17.050  0.00  0.00    +0.000 A 
ATOM      9  C   UNL     1      48.930   6.192  16.304  0.00  0.00    +0.000 A 
BRANCH   8  10
ATOM     10  C   UNL     1      50.037   4.957  18.284  0.00  0.00    +0.000 C 
ATOM     11  C   UNL     1      51.372   4.228  18.542  0.00  0.00    +0.000 C 
ATOM     12  C   UNL     1      51.566   3.029  17.614  0.00  0.00    +0.000 C 
ATOM     13  N   UNL     1      50.466   2.068  17.721  0.00  0.00    +0.000 NA
ATOM     14  C   UNL     1      49.181   2.697  17.429  0.00  0.00    +0.000 C 
ATOM     15  C   UNL     1      48.907   3.907  18.331  0.00  0.00    +0.000 C 
ATOM     16  H   UNL     1      50.445   1.686  18.666  0.00  0.00    +0.000 HD
ENDBRANCH   8  10
ENDBRANCH   1   3
BRANCH   1  17
ATOM     17  C   UNL     1      47.657   7.318  13.077  0.00  0.00    +0.000 C 
BRANCH  17  21
ATOM     18  C   UNL     1      44.992   4.240  11.847  0.00  0.00    +0.000 A 
ATOM     19  C   UNL     1      45.305   5.231  10.926  0.00  0.00    +0.000 A 
ATOM     20  C   UNL     1      46.169   6.246  11.326  0.00  0.00    +0.000 A 
ATOM     21  C   UNL     1      46.697   6.246  12.623  0.00  0.00    +0.000 A 
ATOM     22  C   UNL     1      46.314   5.209  13.470  0.00  0.00    +0.000 A 
ATOM     23  N   UNL     1      45.475   4.208  13.122  0.00  0.00    +0.000 NA
BRANCH  18  25
ATOM     24  N   UNL     1      43.691   2.285  12.461  0.00  0.00    +0.000 N 
ATOM     25  C   UNL     1      44.074   3.124  11.448  0.00  0.00    +0.000 C 
ATOM     26  O   UNL     1      43.685   2.962  10.297  0.00  0.00    +0.000 OA
ATOM     27  H   UNL     1      43.078   1.508  12.261  0.00  0.00    +0.000 HD
ATOM     28  H   UNL     1      44.034   2.447  13.400  0.00  0.00    +0.000 HD
ENDBRANCH  18  25
ENDBRANCH  17  21
ENDBRANCH   1  17
TORSDOF 5
ENDMDL
MODEL 6
REMARK VINA RESULT:    -6.428      5.415      8.007
REMARK INTER + INTRA:          -9.101
REMARK INTER:                  -8.433
REMARK INTRA:                  -0.668
REMARK UNBOUND:                -0.794
REMARK  Name = 
REMARK  5 active torsions:
REMARK  status: ('A' for Active; 'I' for Inactive)
REMARK    1  A    between atoms: C_2  and  C_4
REMARK    2  A    between atoms: C_7  and  C_8
REMARK    3  A    between atoms: C_8  and  N_9
REMARK    4  A    between atoms: N_9  and  C_10
REMARK    5  A    between atoms: C_15  and  C_16
REMARK                            x       y       z     vdW  Elec       q    Type
REMARK                         _______ _______ _______ _____ _____    ______ ____
ROOT
ATOM      1  N   UNL     1      47.038   3.865  16.000  0.00  0.00    +0.000 N 
ATOM      2  H   UNL     1      46.120   3.478  16.207  0.00  0.00    +0.000 HD
ENDROOT
BRANCH   1   3
ATOM      3  C   UNL     1      47.013   4.670  14.857  0.00  0.00    +0.000 A 
ATOM      4  C   UNL     1      47.920   5.696  14.599  0.00  0.00    +0.000 A 
ATOM      5  C   UNL     1      47.879   6.373  13.384  0.00  0.00    +0.000 A 
ATOM      6  F   UNL     1      48.768   7.349  13.148  0.00  0.00    +0.000 F 
ATOM      7  C   UNL     1      46.948   6.052  12.399  0.00  0.00    +0.000 A 
ATOM      8  C   UNL     1      46.022   5.022  12.613  0.00  0.00    +0.000 A 
ATOM      9  C   UNL     1      46.110   4.326  13.832  0.00  0.00    +0.000 A 
BRANCH   8  10
ATOM     10  C   UNL     1      45.019   4.662  11.515  0.00  0.00    +0.000 C 
ATOM     11  C   UNL     1      44.648   5.862  10.619  0.00  0.00    +0.000 C 
ATOM     12  C   UNL     1      43.647   6.801  11.293  0.00  0.00    +0.000 C 
ATOM     13  N   UNL     1      42.422   6.104  11.691  0.00  0.00    +0.000 NA
ATOM     14  C   UNL     1      42.715   4.989  12.589  0.00  0.00    +0.000 C 
ATOM     15  C   UNL     1      43.707   3.993  11.978  0.00  0.00    +0.000 C 
ATOM     16  H   UNL     1      41.953   5.749  10.858  0.00  0.00    +0.000 HD
ENDBRANCH   8  10
ENDBRANCH   1   3
BRANCH   1  17
ATOM     17  C   UNL     1      47.713   4.330  17.204  0.00  0.00    +0.000 C 
BRANCH  17  21
ATOM     18  C   UNL     1      51.487   2.406  17.574  0.00  0.00    +0.000 A 
ATOM     19  C   UNL     1      50.453   1.694  16.981  0.00  0.00    +0.000 A 
ATOM     20  C   UNL     1      49.213   2.314  16.867  0.00  0.00    +0.000 A 
ATOM     21  C   UNL     1      49.037   3.621  17.339  0.00  0.00    +0.000 A 
ATOM     22  C   UNL     1      50.137   4.245  17.922  0.00  0.00    +0.000 A 
ATOM     23  N   UNL     1      51.356   3.676  18.056  0.00  0.00    +0.000 NA
BRANCH  18  25
ATOM     24  N   UNL     1      52.873   0.413  17.557  0.00  0.00    +0.000 N 
ATOM     25  C   UNL     1      52.841   1.775  17.704  0.00  0.00    +0.000 C 
ATOM     26  O   UNL     1      53.858   2.421  17.929  0.00  0.00    +0.000 OA
ATOM     27  H   UNL     1      53.750  -0.077  17.638  0.00  0.00    +0.000 HD
ATOM     28  H   UNL     1      52.012  -0.089  17.374  0.00  0.00    +0.000 HD
ENDBRANCH  18  25
ENDBRANCH  17  21
ENDBRANCH   1  17
TORSDOF 5
ENDMDL
MODEL 7
REMARK VINA RESULT:    -6.370      5.315      7.203
REMARK INTER + INTRA:          -9.025
REMARK INTER:                  -8.291
REMARK INTRA:                  -0.734
REMARK UNBOUND:                -0.794
REMARK  Name = 
REMARK  5 active torsions:
REMARK  status: ('A' for Active; 'I' for Inactive)
REMARK    1  A    between atoms: C_2  and  C_4
REMARK    2  A    between atoms: C_7  and  C_8
REMARK    3  A    between atoms: C_8  and  N_9
REMARK    4  A    between atoms: N_9  and  C_10
REMARK    5  A    between atoms: C_15  and  C_16
REMARK                            x       y       z     vdW  Elec       q    Type
REMARK                         _______ _______ _______ _____ _____    ______ ____
ROOT
ATOM      1  N   UNL     1      46.920   3.859  15.571  0.00  0.00    +0.000 N 
ATOM      2  H   UNL     1      46.034   3.437  15.839  0.00  0.00    +0.000 HD
ENDROOT
BRANCH   1   3
ATOM      3  C   UNL     1      46.811   4.575  14.375  0.00  0.00    +0.000 A 
ATOM      4  C   UNL     1      46.036   4.176  13.288  0.00  0.00    +0.000 A 
ATOM      5  C   UNL     1      45.907   5.009  12.180  0.00  0.00    +0.000 A 
ATOM      6  F   UNL     1      45.146   4.613  11.150  0.00  0.00    +0.000 F 
ATOM      7  C   UNL     1      46.535   6.250  12.122  0.00  0.00    +0.000 A 
ATOM      8  C   UNL     1      47.318   6.695  13.196  0.00  0.00    +0.000 A 
ATOM      9  C   UNL     1      47.400   5.854  14.320  0.00  0.00    +0.000 A 
BRANCH   8  10
ATOM     10  C   UNL     1      47.984   8.070  13.131  0.00  0.00    +0.000 C 
ATOM     11  C   UNL     1      48.715   8.326  11.797  0.00  0.00    +0.000 C 
ATOM     12  C   UNL     1      50.066   7.615  11.731  0.00  0.00    +0.000 C 
ATOM     13  N   UNL     1      50.944   7.999  12.839  0.00  0.00    +0.000 NA
ATOM     14  C   UNL     1      50.319   7.725  14.131  0.00  0.00    +0.000 C 
ATOM     15  C   UNL     1      48.958   8.415  14.278  0.00  0.00    +0.000 C 
ATOM     16  H   UNL     1      51.151   8.995  12.772  0.00  0.00    +0.000 HD
ENDBRANCH   8  10
ENDBRANCH   1   3
BRANCH   1  17
ATOM     17  C   UNL     1      47.606   4.449  16.713  0.00  0.00    +0.000 C 
BRANCH  17  21
ATOM     18  C   UNL     1      51.161   2.240  17.467  0.00  0.00    +0.000 A 
ATOM     19  C   UNL     1      51.149   3.585  17.812  0.00  0.00    +0.000 A 
ATOM     20  C   UNL     1      49.992   4.315  17.558  0.00  0.00    +0.000 A 
ATOM     21  C   UNL     1      48.883   3.690  16.975  0.00  0.00    +0.000 A 
ATOM     22  C   UNL     1      49.001   2.338  16.662  0.00  0.00    +0.000 A 
ATOM     23  N   UNL     1      50.107   1.595  16.888  0.00  0.00    +0.000 NA
BRANCH  18  25
ATOM     24  N   UNL     1      52.569   0.344  16.907  0.00  0.00    +0.000 N 
ATOM     25  C   UNL     1      52.386   1.419  17.736  0.00  0.00    +0.000 C 
ATOM     26  O   UNL     1      53.177   1.680  18.635  0.00  0.00    +0.000 OA
ATOM     27  H   UNL     1      53.371  -0.255  17.036  0.00  0.00    +0.000 HD
ATOM     28  H   UNL     1      51.894   0.157  16.176  0.00  0.00    +0.000 HD
ENDBRANCH  18  25
ENDBRANCH  17  21
ENDBRANCH   1  17
TORSDOF 5
ENDMDL
MODEL 8
REMARK VINA RESULT:    -6.279      4.356      6.380
REMARK INTER + INTRA:          -8.909
REMARK INTER:                  -8.237
REMARK INTRA:                  -0.672
REMARK UNBOUND:                -0.794
REMARK  Name = 
REMARK  5 active torsions:
REMARK  status: ('A' for Active; 'I' for Inactive)
REMARK    1  A    between atoms: C_2  and  C_4
REMARK    2  A    between atoms: C_7  and  C_8
REMARK    3  A    between atoms: C_8  and  N_9
REMARK    4  A    between atoms: N_9  and  C_10
REMARK    5  A    between atoms: C_15  and  C_16
REMARK                            x       y       z     vdW  Elec       q    Type
REMARK                         _______ _______ _______ _____ _____    ______ ____
ROOT
ATOM      1  N   UNL     1      47.759   7.517  14.567  0.00  0.00    +0.000 N 
ATOM      2  H   UNL     1      46.773   7.341  14.751  0.00  0.00    +0.000 HD
ENDROOT
BRANCH   1   3
ATOM      3  C   UNL     1      48.500   7.595  15.750  0.00  0.00    +0.000 A 
ATOM      4  C   UNL     1      48.636   8.751  16.516  0.00  0.00    +0.000 A 
ATOM      5  C   UNL     1      49.308   8.704  17.735  0.00  0.00    +0.000 A 
ATOM      6  F   UNL     1      49.417   9.823  18.465  0.00  0.00    +0.000 F 
ATOM      7  C   UNL     1      49.856   7.520  18.222  0.00  0.00    +0.000 A 
ATOM      8  C   UNL     1      49.736   6.333  17.488  0.00  0.00    +0.000 A 
ATOM      9  C   UNL     1      49.018   6.397  16.280  0.00  0.00    +0.000 A 
BRANCH   8  10
ATOM     10  C   UNL     1      50.321   5.033  18.043  0.00  0.00    +0.000 C 
ATOM     11  C   UNL     1      49.591   3.775  17.529  0.00  0.00    +0.000 C 
ATOM     12  C   UNL     1      48.263   3.541  18.248  0.00  0.00    +0.000 C 
ATOM     13  N   UNL     1      48.435   3.435  19.698  0.00  0.00    +0.000 NA
ATOM     14  C   UNL     1      49.072   4.631  20.245  0.00  0.00    +0.000 C 
ATOM     15  C   UNL     1      50.421   4.928  19.580  0.00  0.00    +0.000 C 
ATOM     16  H   UNL     1      49.011   2.622  19.910  0.00  0.00    +0.000 HD
ENDBRANCH   8  10
ENDBRANCH   1   3
BRANCH   1  17
ATOM     17  C   UNL     1      48.250   6.721  13.450  0.00  0.00    +0.000 C 
BRANCH  17  21
ATOM     18  C   UNL     1      45.168   4.145  12.053  0.00  0.00    +0.000 A 
ATOM     19  C   UNL     1      45.412   5.310  11.337  0.00  0.00    +0.000 A 
ATOM     20  C   UNL     1      46.412   6.162  11.796  0.00  0.00    +0.000 A 
ATOM     21  C   UNL     1      47.142   5.831  12.945  0.00  0.00    +0.000 A 
ATOM     22  C   UNL     1      46.814   4.643  13.592  0.00  0.00    +0.000 A 
ATOM     23  N   UNL     1      45.847   3.791  13.182  0.00  0.00    +0.000 NA
BRANCH  18  25
ATOM     24  N   UNL     1      43.668   2.293  12.513  0.00  0.00    +0.000 N 
ATOM     25  C   UNL     1      44.105   3.198  11.583  0.00  0.00    +0.000 C 
ATOM     26  O   UNL     1      43.651   3.220  10.445  0.00  0.00    +0.000 OA
ATOM     27  H   UNL     1      42.958   1.622  12.262  0.00  0.00    +0.000 HD
ATOM     28  H   UNL     1      44.068   2.302  13.444  0.00  0.00    +0.000 HD
ENDBRANCH  18  25
ENDBRANCH  17  21
ENDBRANCH   1  17
TORSDOF 5
ENDMDL
MODEL 9
REMARK VINA RESULT:    -6.036      4.456      6.456
REMARK INTER + INTRA:          -8.595
REMARK INTER:                  -8.122
REMARK INTRA:                  -0.472
REMARK UNBOUND:                -0.794
REMARK  Name = 
REMARK  5 active torsions:
REMARK  status: ('A' for Active; 'I' for Inactive)
REMARK    1  A    between atoms: C_2  and  C_4
REMARK    2  A    between atoms: C_7  and  C_8
REMARK    3  A    between atoms: C_8  and  N_9
REMARK    4  A    between atoms: N_9  and  C_10
REMARK    5  A    between atoms: C_15  and  C_16
REMARK                            x       y       z     vdW  Elec       q    Type
REMARK                         _______ _______ _______ _____ _____    ______ ____
ROOT
ATOM      1  N   UNL     1      47.978   6.462  15.445  0.00  0.00    +0.000 N 
ATOM      2  H   UNL     1      47.090   6.915  15.653  0.00  0.00    +0.000 HD
ENDROOT
BRANCH   1   3
ATOM      3  C   UNL     1      48.253   5.428  16.345  0.00  0.00    +0.000 A 
ATOM      4  C   UNL     1      47.362   4.405  16.663  0.00  0.00    +0.000 A 
ATOM      5  C   UNL     1      47.765   3.361  17.490  0.00  0.00    +0.000 A 
ATOM      6  F   UNL     1      46.898   2.379  17.774  0.00  0.00    +0.000 F 
ATOM      7  C   UNL     1      49.053   3.301  18.017  0.00  0.00    +0.000 A 
ATOM      8  C   UNL     1      49.985   4.305  17.717  0.00  0.00    +0.000 A 
ATOM      9  C   UNL     1      49.565   5.327  16.847  0.00  0.00    +0.000 A 
BRANCH   8  10
ATOM     10  C   UNL     1      51.403   4.218  18.281  0.00  0.00    +0.000 C 
ATOM     11  C   UNL     1      51.491   4.646  19.761  0.00  0.00    +0.000 C 
ATOM     12  C   UNL     1      51.467   6.165  19.928  0.00  0.00    +0.000 C 
ATOM     13  N   UNL     1      52.541   6.817  19.176  0.00  0.00    +0.000 NA
ATOM     14  C   UNL     1      52.468   6.488  17.754  0.00  0.00    +0.000 C 
ATOM     15  C   UNL     1      52.499   4.977  17.503  0.00  0.00    +0.000 C 
ATOM     16  H   UNL     1      53.442   6.513  19.544  0.00  0.00    +0.000 HD
ENDBRANCH   8  10
ENDBRANCH   1   3
BRANCH   1  17
ATOM     17  C   UNL     1      48.154   6.250  14.015  0.00  0.00    +0.000 C 
BRANCH  17  21
ATOM     18  C   UNL     1      44.383   5.268  12.312  0.00  0.00    +0.000 A 
ATOM     19  C   UNL     1      45.231   4.222  12.654  0.00  0.00    +0.000 A 
ATOM     20  C   UNL     1      46.470   4.538  13.202  0.00  0.00    +0.000 A 
ATOM     21  C   UNL     1      46.829   5.878  13.398  0.00  0.00    +0.000 A 
ATOM     22  C   UNL     1      45.909   6.850  13.015  0.00  0.00    +0.000 A 
ATOM     23  N   UNL     1      44.698   6.585  12.476  0.00  0.00    +0.000 NA
BRANCH  18  25
ATOM     24  N   UNL     1      42.147   6.009  11.725  0.00  0.00    +0.000 N 
ATOM     25  C   UNL     1      43.035   4.966  11.730  0.00  0.00    +0.000 C 
ATOM     26  O   UNL     1      42.735   3.864  11.285  0.00  0.00    +0.000 OA
ATOM     27  H   UNL     1      41.220   5.873  11.353  0.00  0.00    +0.000 HD
ATOM     28  H   UNL     1      42.429   6.906  12.103  0.00  0.00    +0.000 HD
ENDBRANCH  18  25
ENDBRANCH  17  21
ENDBRANCH   1  17
TORSDOF 5
ENDMDL
