MODEL 1
REMARK VINA RESULT:    -8.836      0.000      0.000
REMARK INTER + INTRA:         -12.479
REMARK INTER:                 -11.418
REMARK INTRA:                  -1.060
REMARK UNBOUND:                -1.060
REMARK  Name = 
REMARK  8 active torsions:
REMARK  status: ('A' for Active; 'I' for Inactive)
REMARK    1  A    between atoms: C_1  and  C_2
REMARK    2  A    between atoms: C_4  and  N_5
REMARK    3  A    between atoms: N_5  and  C_6
REMARK    4  A    between atoms: C_6  and  C_7
REMARK    5  A    between atoms: C_11  and  C_12
REMARK    6  A    between atoms: C_20  and  C_21
REMARK    7  A    between atoms: N_23  and  C_24
REMARK    8  A    between atoms: N_23  and  C_25
REMARK                            x       y       z     vdW  Elec       q    Type
REMARK                         _______ _______ _______ _____ _____    ______ ____
ROOT
ATOM      1  N   UNL     1      44.401   7.029  12.366  0.00  0.00    +0.000 N 
ATOM      2  H   UNL     1      43.985   7.678  13.019  0.00  0.00    +0.000 HD
ENDROOT
BRANCH   1   6
ATOM      3  C   UNL     1      49.275   7.738  11.822  0.00  0.00    +0.000 C 
ATOM      4  C   UNL     1      48.091   7.036  12.414  0.00  0.00    +0.000 A 
ATOM      5  C   UNL     1      46.786   7.417  12.093  0.00  0.00    +0.000 A 
ATOM      6  C   UNL     1      45.705   6.726  12.638  0.00  0.00    +0.000 A 
ATOM      7  N   UNL     1      45.876   5.691  13.480  0.00  0.00    +0.000 NA
ATOM      8  C   UNL     1      47.142   5.337  13.814  0.00  0.00    +0.000 A 
ATOM      9  C   UNL     1      48.268   5.970  13.290  0.00  0.00    +0.000 A 
BRANCH   8  10
ATOM     10  C   UNL     1      47.360   4.177  14.739  0.00  0.00    +0.000 C 
ATOM     11  O   UNL     1      47.212   3.047  14.251  0.00  0.00    +0.000 OA
ATOM     12  N   UNL     1      47.726   4.336  16.083  0.00  0.00    +0.000 N 
ATOM     13  C   UNL     1      48.055   5.585  16.754  0.00  0.00    +0.000 C 
ATOM     14  C   UNL     1      47.882   3.142  16.901  0.00  0.00    +0.000 C 
ENDBRANCH   8  10
ENDBRANCH   1   6
BRANCH   1  15
ATOM     15  C   UNL     1      43.602   6.538  11.268  0.00  0.00    +0.000 C 
BRANCH  15  16
ATOM     16  C   UNL     1      43.738   5.051  11.026  0.00  0.00    +0.000 A 
ATOM     17  C   UNL     1      43.059   4.079  11.770  0.00  0.00    +0.000 A 
ATOM     18  C   UNL     1      43.249   2.725  11.505  0.00  0.00    +0.000 A 
ATOM     19  C   UNL     1      44.110   2.324  10.480  0.00  0.00    +0.000 A 
ATOM     20  C   UNL     1      44.785   3.262   9.682  0.00  0.00    +0.000 A 
ATOM     21  C   UNL     1      44.605   4.622   9.999  0.00  0.00    +0.000 A 
BRANCH  20  22
ATOM     22  C   UNL     1      45.579   2.848   8.501  0.00  0.00    +0.000 A 
ATOM     23  C   UNL     1      45.911   3.781   7.501  0.00  0.00    +0.000 A 
ATOM     24  C   UNL     1      46.731   3.440   6.421  0.00  0.00    +0.000 A 
ATOM     25  C   UNL     1      47.246   2.152   6.320  0.00  0.00    +0.000 A 
ATOM     26  C   UNL     1      46.924   1.203   7.287  0.00  0.00    +0.000 A 
ATOM     27  C   UNL     1      46.092   1.545   8.360  0.00  0.00    +0.000 A 
ENDBRANCH  20  22
ENDBRANCH  15  16
ENDBRANCH   1  15
TORSDOF 5
ENDMDL
MODEL 2
REMARK VINA RESULT:    -7.697      1.650      1.908
REMARK INTER + INTRA:         -11.008
REMARK INTER:                 -10.056
REMARK INTRA:                  -0.951
REMARK UNBOUND:                -1.060
REMARK  Name = 
REMARK  8 active torsions:
REMARK  status: ('A' for Active; 'I' for Inactive)
REMARK    1  A    between atoms: C_1  and  C_2
REMARK    2  A    between atoms: C_4  and  N_5
REMARK    3  A    between atoms: N_5  and  C_6
REMARK    4  A    between atoms: C_6  and  C_7
REMARK    5  A    between atoms: C_11  and  C_12
REMARK    6  A    between atoms: C_20  and  C_21
REMARK    7  A    between atoms: N_23  and  C_24
REMARK    8  A    between atoms: N_23  and  C_25
REMARK                            x       y       z     vdW  Elec       q    Type
REMARK                         _______ _______ _______ _____ _____    ______ ____
ROOT
ATOM      1  N   UNL     1      45.674   6.818  12.340  0.00  0.00    +0.000 N 
ATOM      2  H   UNL     1      45.034   6.840  13.122  0.00  0.00    +0.000 HD
ENDROOT
BRANCH   1   6
ATOM      3  C   UNL     1      50.389   7.916  11.283  0.00  0.00    +0.000 C 
ATOM      4  C   UNL     1      49.295   7.518  12.227  0.00  0.00    +0.000 A 
ATOM      5  C   UNL     1      47.974   7.383  11.792  0.00  0.00    +0.000 A 
ATOM      6  C   UNL     1      46.984   6.983  12.687  0.00  0.00    +0.000 A 
ATOM      7  N   UNL     1      47.258   6.724  13.979  0.00  0.00    +0.000 NA
ATOM      8  C   UNL     1      48.534   6.881  14.409  0.00  0.00    +0.000 A 
ATOM      9  C   UNL     1      49.577   7.256  13.564  0.00  0.00    +0.000 A 
BRANCH   8  10
ATOM     10  C   UNL     1      48.869   6.584  15.841  0.00  0.00    +0.000 C 
ATOM     11  O   UNL     1      49.234   5.426  16.092  0.00  0.00    +0.000 OA
ATOM     12  N   UNL     1      48.794   7.549  16.854  0.00  0.00    +0.000 N 
ATOM     13  C   UNL     1      48.506   8.966  16.687  0.00  0.00    +0.000 C 
ATOM     14  C   UNL     1      49.112   7.145  18.216  0.00  0.00    +0.000 C 
ENDBRANCH   8  10
ENDBRANCH   1   6
BRANCH   1  15
ATOM     15  C   UNL     1      45.139   6.638  11.010  0.00  0.00    +0.000 C 
BRANCH  15  16
ATOM     16  C   UNL     1      44.810   5.201  10.670  0.00  0.00    +0.000 A 
ATOM     17  C   UNL     1      43.832   4.451  11.334  0.00  0.00    +0.000 A 
ATOM     18  C   UNL     1      43.597   3.125  10.980  0.00  0.00    +0.000 A 
ATOM     19  C   UNL     1      44.327   2.534   9.946  0.00  0.00    +0.000 A 
ATOM     20  C   UNL     1      45.294   3.255   9.227  0.00  0.00    +0.000 A 
ATOM     21  C   UNL     1      45.538   4.581   9.632  0.00  0.00    +0.000 A 
BRANCH  20  22
ATOM     22  C   UNL     1      45.963   2.681   8.035  0.00  0.00    +0.000 A 
ATOM     23  C   UNL     1      46.200   3.476   6.897  0.00  0.00    +0.000 A 
ATOM     24  C   UNL     1      46.905   2.987   5.794  0.00  0.00    +0.000 A 
ATOM     25  C   UNL     1      47.398   1.687   5.806  0.00  0.00    +0.000 A 
ATOM     26  C   UNL     1      47.168   0.872   6.911  0.00  0.00    +0.000 A 
ATOM     27  C   UNL     1      46.450   1.361   8.009  0.00  0.00    +0.000 A 
ENDBRANCH  20  22
ENDBRANCH  15  16
ENDBRANCH   1  15
TORSDOF 5
ENDMDL
MODEL 3
REMARK VINA RESULT:    -7.217      4.150      6.136
REMARK INTER + INTRA:         -10.387
REMARK INTER:                  -9.703
REMARK INTRA:                  -0.684
REMARK UNBOUND:                -1.060
REMARK  Name = 
REMARK  8 active torsions:
REMARK  status: ('A' for Active; 'I' for Inactive)
REMARK    1  A    between atoms: C_1  and  C_2
REMARK    2  A    between atoms: C_4  and  N_5
REMARK    3  A    between atoms: N_5  and  C_6
REMARK    4  A    between atoms: C_6  and  C_7
REMARK    5  A    between atoms: C_11  and  C_12
REMARK    6  A    between atoms: C_20  and  C_21
REMARK    7  A    between atoms: N_23  and  C_24
REMARK    8  A    between atoms: N_23  and  C_25
REMARK                            x       y       z     vdW  Elec       q    Type
REMARK                         _______ _______ _______ _____ _____    ______ ____
ROOT
ATOM      1  N   UNL     1      43.876   7.862  11.248  0.00  0.00    +0.000 N 
ATOM      2  H   UNL     1      42.936   7.490  11.245  0.00  0.00    +0.000 HD
ENDROOT
BRANCH   1   6
ATOM      3  C   UNL     1      46.184  12.214  11.785  0.00  0.00    +0.000 C 
ATOM      4  C   UNL     1      45.021  11.368  11.364  0.00  0.00    +0.000 A 
ATOM      5  C   UNL     1      45.044   9.978  11.505  0.00  0.00    +0.000 A 
ATOM      6  C   UNL     1      43.936   9.221  11.131  0.00  0.00    +0.000 A 
ATOM      7  N   UNL     1      42.827   9.790  10.625  0.00  0.00    +0.000 NA
ATOM      8  C   UNL     1      42.812  11.136  10.462  0.00  0.00    +0.000 A 
ATOM      9  C   UNL     1      43.876  11.955  10.834  0.00  0.00    +0.000 A 
BRANCH   8  10
ATOM     10  C   UNL     1      41.581  11.796   9.913  0.00  0.00    +0.000 C 
ATOM     11  O   UNL     1      41.657  12.222   8.751  0.00  0.00    +0.000 OA
ATOM     12  N   UNL     1      40.396  11.925  10.649  0.00  0.00    +0.000 N 
ATOM     13  C   UNL     1      40.124  11.365  11.966  0.00  0.00    +0.000 C 
ATOM     14  C   UNL     1      39.272  12.611  10.031  0.00  0.00    +0.000 C 
ENDBRANCH   8  10
ENDBRANCH   1   6
BRANCH   1  15
ATOM     15  C   UNL     1      44.987   6.944  11.352  0.00  0.00    +0.000 C 
BRANCH  15  16
ATOM     16  C   UNL     1      44.634   5.513  11.010  0.00  0.00    +0.000 A 
ATOM     17  C   UNL     1      43.633   4.784  11.663  0.00  0.00    +0.000 A 
ATOM     18  C   UNL     1      43.377   3.462  11.308  0.00  0.00    +0.000 A 
ATOM     19  C   UNL     1      44.109   2.854  10.286  0.00  0.00    +0.000 A 
ATOM     20  C   UNL     1      45.099   3.555   9.577  0.00  0.00    +0.000 A 
ATOM     21  C   UNL     1      45.364   4.877   9.984  0.00  0.00    +0.000 A 
BRANCH  20  22
ATOM     22  C   UNL     1      45.773   2.966   8.396  0.00  0.00    +0.000 A 
ATOM     23  C   UNL     1      46.125   3.774   7.298  0.00  0.00    +0.000 A 
ATOM     24  C   UNL     1      46.838   3.264   6.210  0.00  0.00    +0.000 A 
ATOM     25  C   UNL     1      47.222   1.927   6.196  0.00  0.00    +0.000 A 
ATOM     26  C   UNL     1      46.876   1.099   7.261  0.00  0.00    +0.000 A 
ATOM     27  C   UNL     1      46.150   1.611   8.344  0.00  0.00    +0.000 A 
ENDBRANCH  20  22
ENDBRANCH  15  16
ENDBRANCH   1  15
TORSDOF 5
ENDMDL
MODEL 4
REMARK VINA RESULT:    -7.139      2.285      4.888
REMARK INTER + INTRA:         -10.287
REMARK INTER:                  -9.610
REMARK INTRA:                  -0.677
REMARK UNBOUND:                -1.060
REMARK  Name = 
REMARK  8 active torsions:
REMARK  status: ('A' for Active; 'I' for Inactive)
REMARK    1  A    between atoms: C_1  and  C_2
REMARK    2  A    between atoms: C_4  and  N_5
REMARK    3  A    between atoms: N_5  and  C_6
REMARK    4  A    between atoms: C_6  and  C_7
REMARK    5  A    between atoms: C_11  and  C_12
REMARK    6  A    between atoms: C_20  and  C_21
REMARK    7  A    between atoms: N_23  and  C_24
REMARK    8  A    between atoms: N_23  and  C_25
REMARK                            x       y       z     vdW  Elec       q    Type
REMARK                         _______ _______ _______ _____ _____    ______ ____
ROOT
ATOM      1  N   UNL     1      48.269   6.850  15.618  0.00  0.00    +0.000 N 
ATOM      2  H   UNL     1      47.956   7.781  15.855  0.00  0.00    +0.000 HD
ENDROOT
BRANCH   1   6
ATOM      3  C   UNL     1      47.894   5.797  20.446  0.00  0.00    +0.000 C 
ATOM      4  C   UNL     1      48.301   5.471  19.041  0.00  0.00    +0.000 A 
ATOM      5  C   UNL     1      48.050   6.355  17.989  0.00  0.00    +0.000 A 
ATOM      6  C   UNL     1      48.466   6.037  16.698  0.00  0.00    +0.000 A 
ATOM      7  N   UNL     1      49.108   4.886  16.422  0.00  0.00    +0.000 NA
ATOM      8  C   UNL     1      49.329   4.016  17.438  0.00  0.00    +0.000 A 
ATOM      9  C   UNL     1      48.959   4.279  18.756  0.00  0.00    +0.000 A 
BRANCH   8  10
ATOM     10  C   UNL     1      50.056   2.733  17.160  0.00  0.00    +0.000 C 
ATOM     11  O   UNL     1      49.451   1.893  16.479  0.00  0.00    +0.000 OA
ATOM     12  N   UNL     1      51.354   2.480  17.625  0.00  0.00    +0.000 N 
ATOM     13  C   UNL     1      52.227   3.414  18.322  0.00  0.00    +0.000 C 
ATOM     14  C   UNL     1      51.955   1.189  17.324  0.00  0.00    +0.000 C 
ENDBRANCH   8  10
ENDBRANCH   1   6
BRANCH   1  15
ATOM     15  C   UNL     1      48.475   6.519  14.227  0.00  0.00    +0.000 C 
BRANCH  15  16
ATOM     16  C   UNL     1      47.300   6.857  13.335  0.00  0.00    +0.000 A 
ATOM     17  C   UNL     1      46.697   8.119  13.292  0.00  0.00    +0.000 A 
ATOM     18  C   UNL     1      45.604   8.352  12.461  0.00  0.00    +0.000 A 
ATOM     19  C   UNL     1      45.108   7.329  11.650  0.00  0.00    +0.000 A 
ATOM     20  C   UNL     1      45.701   6.056  11.631  0.00  0.00    +0.000 A 
ATOM     21  C   UNL     1      46.778   5.837  12.511  0.00  0.00    +0.000 A 
BRANCH  20  22
ATOM     22  C   UNL     1      45.274   5.015  10.666  0.00  0.00    +0.000 A 
ATOM     23  C   UNL     1      45.641   5.104   9.311  0.00  0.00    +0.000 A 
ATOM     24  C   UNL     1      45.328   4.095   8.396  0.00  0.00    +0.000 A 
ATOM     25  C   UNL     1      44.642   2.962   8.821  0.00  0.00    +0.000 A 
ATOM     26  C   UNL     1      44.253   2.851  10.153  0.00  0.00    +0.000 A 
ATOM     27  C   UNL     1      44.557   3.870  11.063  0.00  0.00    +0.000 A 
ENDBRANCH  20  22
ENDBRANCH  15  16
ENDBRANCH   1  15
TORSDOF 5
ENDMDL
MODEL 5
REMARK VINA RESULT:    -7.134      2.706      3.363
REMARK INTER + INTRA:         -10.280
REMARK INTER:                  -9.402
REMARK INTRA:                  -0.877
REMARK UNBOUND:                -1.060
REMARK  Name = 
REMARK  8 active torsions:
REMARK  status: ('A' for Active; 'I' for Inactive)
REMARK    1  A    between atoms: C_1  and  C_2
REMARK    2  A    between atoms: C_4  and  N_5
REMARK    3  A    between atoms: N_5  and  C_6
REMARK    4  A    between atoms: C_6  and  C_7
REMARK    5  A    between atoms: C_11  and  C_12
REMARK    6  A    between atoms: C_20  and  C_21
REMARK    7  A    between atoms: N_23  and  C_24
REMARK    8  A    between atoms: N_23  and  C_25
REMARK                            x       y       z     vdW  Elec       q    Type
REMARK                         _______ _______ _______ _____ _____    ______ ____
ROOT
ATOM      1  N   UNL     1      44.575   7.038  12.438  0.00  0.00    +0.000 N 
ATOM      2  H   UNL     1      44.611   6.538  13.316  0.00  0.00    +0.000 HD
ENDROOT
BRANCH   1   6
ATOM      3  C   UNL     1      45.639  11.658  10.995  0.00  0.00    +0.000 C 
ATOM      4  C   UNL     1      45.957  10.383  11.717  0.00  0.00    +0.000 A 
ATOM      5  C   UNL     1      45.057   9.314  11.732  0.00  0.00    +0.000 A 
ATOM      6  C   UNL     1      45.392   8.131  12.386  0.00  0.00    +0.000 A 
ATOM      7  N   UNL     1      46.570   7.980  13.020  0.00  0.00    +0.000 NA
ATOM      8  C   UNL     1      47.433   9.025  13.029  0.00  0.00    +0.000 A 
ATOM      9  C   UNL     1      47.171  10.229  12.377  0.00  0.00    +0.000 A 
BRANCH   8  10
ATOM     10  C   UNL     1      48.759   8.878  13.716  0.00  0.00    +0.000 C 
ATOM     11  O   UNL     1      48.811   9.249  14.898  0.00  0.00    +0.000 OA
ATOM     12  N   UNL     1      49.887   8.342  13.082  0.00  0.00    +0.000 N 
ATOM     13  C   UNL     1      49.941   7.754  11.751  0.00  0.00    +0.000 C 
ATOM     14  C   UNL     1      51.132   8.273  13.832  0.00  0.00    +0.000 C 
ENDBRANCH   8  10
ENDBRANCH   1   6
BRANCH   1  15
ATOM     15  C   UNL     1      43.688   6.562  11.403  0.00  0.00    +0.000 C 
BRANCH  15  16
ATOM     16  C   UNL     1      43.813   5.080  11.120  0.00  0.00    +0.000 A 
ATOM     17  C   UNL     1      43.111   4.095  11.824  0.00  0.00    +0.000 A 
ATOM     18  C   UNL     1      43.292   2.747  11.522  0.00  0.00    +0.000 A 
ATOM     19  C   UNL     1      44.168   2.367  10.503  0.00  0.00    +0.000 A 
ATOM     20  C   UNL     1      44.868   3.320   9.745  0.00  0.00    +0.000 A 
ATOM     21  C   UNL     1      44.696   4.673  10.098  0.00  0.00    +0.000 A 
BRANCH  20  22
ATOM     22  C   UNL     1      45.680   2.932   8.567  0.00  0.00    +0.000 A 
ATOM     23  C   UNL     1      46.110   1.602   8.404  0.00  0.00    +0.000 A 
ATOM     24  C   UNL     1      46.802   1.189   7.262  0.00  0.00    +0.000 A 
ATOM     25  C   UNL     1      47.076   2.101   6.248  0.00  0.00    +0.000 A 
ATOM     26  C   UNL     1      46.676   3.427   6.387  0.00  0.00    +0.000 A 
ATOM     27  C   UNL     1      45.994   3.840   7.539  0.00  0.00    +0.000 A 
ENDBRANCH  20  22
ENDBRANCH  15  16
ENDBRANCH   1  15
TORSDOF 5
ENDMDL
MODEL 6
REMARK VINA RESULT:    -7.001      2.307      3.965
REMARK INTER + INTRA:         -10.108
REMARK INTER:                  -9.380
REMARK INTRA:                  -0.728
REMARK UNBOUND:                -1.060
REMARK  Name = 
REMARK  8 active torsions:
REMARK  status: ('A' for Active; 'I' for Inactive)
REMARK    1  A    between atoms: C_1  and  C_2
REMARK    2  A    between atoms: C_4  and  N_5
REMARK    3  A    between atoms: N_5  and  C_6
REMARK    4  A    between atoms: C_6  and  C_7
REMARK    5  A    between atoms: C_11  and  C_12
REMARK    6  A    between atoms: C_20  and  C_21
REMARK    7  A    between atoms: N_23  and  C_24
REMARK    8  A    between atoms: N_23  and  C_25
REMARK                            x       y       z     vdW  Elec       q    Type
REMARK                         _______ _______ _______ _____ _____    ______ ____
ROOT
ATOM      1  N   UNL     1      46.577   3.937  14.782  0.00  0.00    +0.000 N 
ATOM      2  H   UNL     1      46.231   3.033  14.495  0.00  0.00    +0.000 HD
ENDROOT
BRANCH   1   6
ATOM      3  C   UNL     1      50.264   1.892  17.385  0.00  0.00    +0.000 C 
ATOM      4  C   UNL     1      49.221   2.943  17.156  0.00  0.00    +0.000 A 
ATOM      5  C   UNL     1      48.403   2.920  16.024  0.00  0.00    +0.000 A 
ATOM      6  C   UNL     1      47.423   3.896  15.854  0.00  0.00    +0.000 A 
ATOM      7  N   UNL     1      47.236   4.879  16.753  0.00  0.00    +0.000 NA
ATOM      8  C   UNL     1      48.047   4.918  17.839  0.00  0.00    +0.000 A 
ATOM      9  C   UNL     1      49.033   3.964  18.083  0.00  0.00    +0.000 A 
BRANCH   8  10
ATOM     10  C   UNL     1      47.850   5.996  18.864  0.00  0.00    +0.000 C 
ATOM     11  O   UNL     1      46.995   5.778  19.735  0.00  0.00    +0.000 OA
ATOM     12  N   UNL     1      48.590   7.186  18.867  0.00  0.00    +0.000 N 
ATOM     13  C   UNL     1      49.704   7.520  17.991  0.00  0.00    +0.000 C 
ATOM     14  C   UNL     1      48.297   8.178  19.890  0.00  0.00    +0.000 C 
ENDBRANCH   8  10
ENDBRANCH   1   6
BRANCH   1  15
ATOM     15  C   UNL     1      46.135   5.111  14.064  0.00  0.00    +0.000 C 
BRANCH  15  16
ATOM     16  C   UNL     1      45.135   4.818  12.966  0.00  0.00    +0.000 A 
ATOM     17  C   UNL     1      43.769   5.103  13.066  0.00  0.00    +0.000 A 
ATOM     18  C   UNL     1      42.903   4.787  12.022  0.00  0.00    +0.000 A 
ATOM     19  C   UNL     1      43.395   4.193  10.857  0.00  0.00    +0.000 A 
ATOM     20  C   UNL     1      44.763   3.921  10.695  0.00  0.00    +0.000 A 
ATOM     21  C   UNL     1      45.609   4.214  11.782  0.00  0.00    +0.000 A 
BRANCH  20  22
ATOM     22  C   UNL     1      45.311   3.431   9.407  0.00  0.00    +0.000 A 
ATOM     23  C   UNL     1      45.783   4.339   8.442  0.00  0.00    +0.000 A 
ATOM     24  C   UNL     1      46.383   3.905   7.257  0.00  0.00    +0.000 A 
ATOM     25  C   UNL     1      46.532   2.544   7.012  0.00  0.00    +0.000 A 
ATOM     26  C   UNL     1      46.062   1.621   7.942  0.00  0.00    +0.000 A 
ATOM     27  C   UNL     1      45.449   2.060   9.122  0.00  0.00    +0.000 A 
ENDBRANCH  20  22
ENDBRANCH  15  16
ENDBRANCH   1  15
TORSDOF 5
ENDMDL
MODEL 7
REMARK VINA RESULT:    -6.971      4.049      6.233
REMARK INTER + INTRA:         -10.069
REMARK INTER:                  -9.322
REMARK INTRA:                  -0.747
REMARK UNBOUND:                -1.060
REMARK  Name = 
REMARK  8 active torsions:
REMARK  status: ('A' for Active; 'I' for Inactive)
REMARK    1  A    between atoms: C_1  and  C_2
REMARK    2  A    between atoms: C_4  and  N_5
REMARK    3  A    between atoms: N_5  and  C_6
REMARK    4  A    between atoms: C_6  and  C_7
REMARK    5  A    between atoms: C_11  and  C_12
REMARK    6  A    between atoms: C_20  and  C_21
REMARK    7  A    between atoms: N_23  and  C_24
REMARK    8  A    between atoms: N_23  and  C_25
REMARK                            x       y       z     vdW  Elec       q    Type
REMARK                         _______ _______ _______ _____ _____    ______ ____
ROOT
ATOM      1  N   UNL     1      42.969   7.932  11.041  0.00  0.00    +0.000 N 
ATOM      2  H   UNL     1      42.088   7.438  11.049  0.00  0.00    +0.000 HD
ENDROOT
BRANCH   1   6
ATOM      3  C   UNL     1      40.356  12.072  10.276  0.00  0.00    +0.000 C 
ATOM      4  C   UNL     1      41.639  11.300  10.330  0.00  0.00    +0.000 A 
ATOM      5  C   UNL     1      41.660   9.951  10.694  0.00  0.00    +0.000 A 
ATOM      6  C   UNL     1      42.865   9.252  10.707  0.00  0.00    +0.000 A 
ATOM      7  N   UNL     1      44.031   9.841  10.381  0.00  0.00    +0.000 NA
ATOM      8  C   UNL     1      44.016  11.156  10.053  0.00  0.00    +0.000 A 
ATOM      9  C   UNL     1      42.844  11.910   9.999  0.00  0.00    +0.000 A 
BRANCH   8  10
ATOM     10  C   UNL     1      45.299  11.833   9.671  0.00  0.00    +0.000 C 
ATOM     11  O   UNL     1      46.038  12.179  10.605  0.00  0.00    +0.000 OA
ATOM     12  N   UNL     1      45.670  12.062   8.340  0.00  0.00    +0.000 N 
ATOM     13  C   UNL     1      44.969  11.602   7.150  0.00  0.00    +0.000 C 
ATOM     14  C   UNL     1      46.923  12.755   8.082  0.00  0.00    +0.000 C 
ENDBRANCH   8  10
ENDBRANCH   1   6
BRANCH   1  15
ATOM     15  C   UNL     1      44.177   7.203  11.353  0.00  0.00    +0.000 C 
BRANCH  15  16
ATOM     16  C   UNL     1      44.058   5.707  11.162  0.00  0.00    +0.000 A 
ATOM     17  C   UNL     1      43.217   4.892  11.929  0.00  0.00    +0.000 A 
ATOM     18  C   UNL     1      43.174   3.517  11.710  0.00  0.00    +0.000 A 
ATOM     19  C   UNL     1      43.961   2.940  10.710  0.00  0.00    +0.000 A 
ATOM     20  C   UNL     1      44.793   3.721   9.891  0.00  0.00    +0.000 A 
ATOM     21  C   UNL     1      44.846   5.102  10.161  0.00  0.00    +0.000 A 
BRANCH  20  22
ATOM     22  C   UNL     1      45.513   3.136   8.734  0.00  0.00    +0.000 A 
ATOM     23  C   UNL     1      45.957   3.957   7.681  0.00  0.00    +0.000 A 
ATOM     24  C   UNL     1      46.712   3.448   6.621  0.00  0.00    +0.000 A 
ATOM     25  C   UNL     1      47.049   2.099   6.594  0.00  0.00    +0.000 A 
ATOM     26  C   UNL     1      46.613   1.259   7.614  0.00  0.00    +0.000 A 
ATOM     27  C   UNL     1      45.844   1.770   8.668  0.00  0.00    +0.000 A 
ENDBRANCH  20  22
ENDBRANCH  15  16
ENDBRANCH   1  15
TORSDOF 5
ENDMDL
MODEL 8
REMARK VINA RESULT:    -6.968      1.733      2.529
REMARK INTER + INTRA:         -10.066
REMARK INTER:                  -9.694
REMARK INTRA:                  -0.371
REMARK UNBOUND:                -1.060
REMARK  Name = 
REMARK  8 active torsions:
REMARK  status: ('A' for Active; 'I' for Inactive)
REMARK    1  A    between atoms: C_1  and  C_2
REMARK    2  A    between atoms: C_4  and  N_5
REMARK    3  A    between atoms: N_5  and  C_6
REMARK    4  A    between atoms: C_6  and  C_7
REMARK    5  A    between atoms: C_11  and  C_12
REMARK    6  A    between atoms: C_20  and  C_21
REMARK    7  A    between atoms: N_23  and  C_24
REMARK    8  A    between atoms: N_23  and  C_25
REMARK                            x       y       z     vdW  Elec       q    Type
REMARK                         _______ _______ _______ _____ _____    ______ ____
ROOT
ATOM      1  N   UNL     1      46.365   3.219  13.260  0.00  0.00    +0.000 N 
ATOM      2  H   UNL     1      46.957   2.400  13.246  0.00  0.00    +0.000 HD
ENDROOT
BRANCH   1   6
ATOM      3  C   UNL     1      48.167   7.790  12.622  0.00  0.00    +0.000 C 
ATOM      4  C   UNL     1      47.873   6.581  13.456  0.00  0.00    +0.000 A 
ATOM      5  C   UNL     1      47.220   5.469  12.919  0.00  0.00    +0.000 A 
ATOM      6  C   UNL     1      46.986   4.348  13.712  0.00  0.00    +0.000 A 
ATOM      7  N   UNL     1      47.369   4.299  15.001  0.00  0.00    +0.000 NA
ATOM      8  C   UNL     1      47.979   5.386  15.532  0.00  0.00    +0.000 A 
ATOM      9  C   UNL     1      48.264   6.533  14.791  0.00  0.00    +0.000 A 
BRANCH   8  10
ATOM     10  C   UNL     1      48.430   5.352  16.963  0.00  0.00    +0.000 C 
ATOM     11  O   UNL     1      48.588   6.449  17.517  0.00  0.00    +0.000 OA
ATOM     12  N   UNL     1      48.653   4.157  17.660  0.00  0.00    +0.000 N 
ATOM     13  C   UNL     1      48.388   2.808  17.182  0.00  0.00    +0.000 C 
ATOM     14  C   UNL     1      49.118   4.238  19.036  0.00  0.00    +0.000 C 
ENDBRANCH   8  10
ENDBRANCH   1   6
BRANCH   1  15
ATOM     15  C   UNL     1      44.990   3.090  12.835  0.00  0.00    +0.000 C 
BRANCH  15  16
ATOM     16  C   UNL     1      44.736   3.573  11.424  0.00  0.00    +0.000 A 
ATOM     17  C   UNL     1      43.891   4.643  11.111  0.00  0.00    +0.000 A 
ATOM     18  C   UNL     1      43.689   5.020   9.785  0.00  0.00    +0.000 A 
ATOM     19  C   UNL     1      44.342   4.341   8.754  0.00  0.00    +0.000 A 
ATOM     20  C   UNL     1      45.228   3.284   9.020  0.00  0.00    +0.000 A 
ATOM     21  C   UNL     1      45.382   2.898  10.366  0.00  0.00    +0.000 A 
BRANCH  20  22
ATOM     22  C   UNL     1      46.037   2.659   7.946  0.00  0.00    +0.000 A 
ATOM     23  C   UNL     1      46.415   1.307   8.031  0.00  0.00    +0.000 A 
ATOM     24  C   UNL     1      47.102   0.669   6.995  0.00  0.00    +0.000 A 
ATOM     25  C   UNL     1      47.422   1.372   5.839  0.00  0.00    +0.000 A 
ATOM     26  C   UNL     1      47.074   2.715   5.730  0.00  0.00    +0.000 A 
ATOM     27  C   UNL     1      46.397   3.355   6.776  0.00  0.00    +0.000 A 
ENDBRANCH  20  22
ENDBRANCH  15  16
ENDBRANCH   1  15
TORSDOF 5
ENDMDL
MODEL 9
REMARK VINA RESULT:    -6.862      1.908      2.572
REMARK INTER + INTRA:          -9.928
REMARK INTER:                  -9.173
REMARK INTRA:                  -0.755
REMARK UNBOUND:                -1.060
REMARK  Name = 
REMARK  8 active torsions:
REMARK  status: ('A' for Active; 'I' for Inactive)
REMARK    1  A    between atoms: C_1  and  C_2
REMARK    2  A    between atoms: C_4  and  N_5
REMARK    3  A    between atoms: N_5  and  C_6
REMARK    4  A    between atoms: C_6  and  C_7
REMARK    5  A    between atoms: C_11  and  C_12
REMARK    6  A    between atoms: C_20  and  C_21
REMARK    7  A    between atoms: N_23  and  C_24
REMARK    8  A    between atoms: N_23  and  C_25
REMARK                            x       y       z     vdW  Elec       q    Type
REMARK                         _______ _______ _______ _____ _____    ______ ____
ROOT
ATOM      1  N   UNL     1      47.511   6.670  12.766  0.00  0.00    +0.000 N 
ATOM      2  H   UNL     1      47.834   6.097  12.000  0.00  0.00    +0.000 HD
ENDROOT
BRANCH   1   6
ATOM      3  C   UNL     1      51.544   8.908  14.577  0.00  0.00    +0.000 C 
ATOM      4  C   UNL     1      50.402   7.943  14.674  0.00  0.00    +0.000 A 
ATOM      5  C   UNL     1      49.480   7.802  13.634  0.00  0.00    +0.000 A 
ATOM      6  C   UNL     1      48.445   6.876  13.741  0.00  0.00    +0.000 A 
ATOM      7  N   UNL     1      48.296   6.102  14.832  0.00  0.00    +0.000 NA
ATOM      8  C   UNL     1      49.174   6.255  15.853  0.00  0.00    +0.000 A 
ATOM      9  C   UNL     1      50.245   7.147  15.804  0.00  0.00    +0.000 A 
BRANCH   8  10
ATOM     10  C   UNL     1      49.039   5.394  17.074  0.00  0.00    +0.000 C 
ATOM     11  O   UNL     1      49.473   4.236  16.982  0.00  0.00    +0.000 OA
ATOM     12  N   UNL     1      48.471   5.855  18.269  0.00  0.00    +0.000 N 
ATOM     13  C   UNL     1      48.040   7.215  18.561  0.00  0.00    +0.000 C 
ATOM     14  C   UNL     1      48.361   4.926  19.384  0.00  0.00    +0.000 C 
ENDBRANCH   8  10
ENDBRANCH   1   6
BRANCH   1  15
ATOM     15  C   UNL     1      46.153   7.162  12.741  0.00  0.00    +0.000 C 
BRANCH  15  16
ATOM     16  C   UNL     1      45.182   6.249  12.026  0.00  0.00    +0.000 A 
ATOM     17  C   UNL     1      43.805   6.233  12.275  0.00  0.00    +0.000 A 
ATOM     18  C   UNL     1      42.974   5.349  11.591  0.00  0.00    +0.000 A 
ATOM     19  C   UNL     1      43.506   4.478  10.637  0.00  0.00    +0.000 A 
ATOM     20  C   UNL     1      44.876   4.482  10.327  0.00  0.00    +0.000 A 
ATOM     21  C   UNL     1      45.698   5.357  11.062  0.00  0.00    +0.000 A 
BRANCH  20  22
ATOM     22  C   UNL     1      45.422   3.669   9.213  0.00  0.00    +0.000 A 
ATOM     23  C   UNL     1      46.038   4.291   8.111  0.00  0.00    +0.000 A 
ATOM     24  C   UNL     1      46.638   3.549   7.090  0.00  0.00    +0.000 A 
ATOM     25  C   UNL     1      46.641   2.159   7.152  0.00  0.00    +0.000 A 
ATOM     26  C   UNL     1      46.027   1.515   8.222  0.00  0.00    +0.000 A 
ATOM     27  C   UNL     1      45.416   2.262   9.237  0.00  0.00    +0.000 A 
ENDBRANCH  20  22
ENDBRANCH  15  16
ENDBRANCH   1  15
TORSDOF 5
ENDMDL
