MODEL 1
REMARK VINA RESULT:    -6.944      0.000      0.000
REMARK INTER + INTRA:          -9.812
REMARK INTER:                  -9.176
REMARK INTRA:                  -0.635
REMARK UNBOUND:                -0.635
REMARK  Name = 
REMARK  6 active torsions:
REMARK  status: ('A' for Active; 'I' for Inactive)
REMARK    1  A    between atoms: N_1  and  C_2
REMARK    2  A    between atoms: C_2  and  C_3
REMARK    3  A    between atoms: C_7  and  O_8
REMARK    4  A    between atoms: O_8  and  C_9
REMARK    5  A    between atoms: C_9  and  C_10
REMARK    6  A    between atoms: C_10  and  C_11
REMARK                            x       y       z     vdW  Elec       q    Type
REMARK                         _______ _______ _______ _____ _____    ______ ____
ROOT
ATOM      1  C   UNL     1      46.475   5.025  13.338  0.00  0.00    +0.000 A 
ATOM      2  C   UNL     1      47.101   6.111  12.712  0.00  0.00    +0.000 A 
ATOM      3  C   UNL     1      46.645   6.576  11.480  0.00  0.00    +0.000 A 
ATOM      4  C   UNL     1      45.565   5.955  10.853  0.00  0.00    +0.000 A 
ATOM      5  C   UNL     1      44.931   4.863  11.453  0.00  0.00    +0.000 A 
ATOM      6  C   UNL     1      45.386   4.408  12.695  0.00  0.00    +0.000 A 
ENDROOT
BRANCH   1   7
ATOM      7  C   UNL     1      46.992   4.523  14.662  0.00  0.00    +0.000 C 
BRANCH   7   8
ATOM      8  N   UNL     1      47.428   3.133  14.577  0.00  0.00    +0.000 NA
ATOM      9  H   UNL     1      47.252   2.783  13.638  0.00  0.00    +0.000 HD
ATOM     10  H   UNL     1      46.854   2.574  15.207  0.00  0.00    +0.000 HD
ENDBRANCH   7   8
ENDBRANCH   1   7
BRANCH   5  11
ATOM     11  O   UNL     1      43.870   4.172  10.918  0.00  0.00    +0.000 OA
BRANCH  11  12
ATOM     12  C   UNL     1      44.015   3.766   9.551  0.00  0.00    +0.000 C 
BRANCH  12  13
ATOM     13  C   UNL     1      44.753   2.428   9.478  0.00  0.00    +0.000 C 
BRANCH  13  14
ATOM     14  C   UNL     1      45.718   2.395   8.316  0.00  0.00    +0.000 A 
ATOM     15  C   UNL     1      46.449   1.235   8.027  0.00  0.00    +0.000 A 
ATOM     16  C   UNL     1      47.363   1.218   6.968  0.00  0.00    +0.000 A 
ATOM     17  C   UNL     1      47.557   2.361   6.195  0.00  0.00    +0.000 A 
ATOM     18  C   UNL     1      46.843   3.522   6.481  0.00  0.00    +0.000 A 
ATOM     19  C   UNL     1      45.929   3.541   7.536  0.00  0.00    +0.000 A 
ENDBRANCH  13  14
ENDBRANCH  12  13
ENDBRANCH  11  12
ENDBRANCH   5  11
TORSDOF 6
ENDMDL
MODEL 2
REMARK VINA RESULT:    -6.589      1.662      2.268
REMARK INTER + INTRA:          -9.343
REMARK INTER:                  -8.856
REMARK INTRA:                  -0.487
REMARK UNBOUND:                -0.635
REMARK  Name = 
REMARK  6 active torsions:
REMARK  status: ('A' for Active; 'I' for Inactive)
REMARK    1  A    between atoms: N_1  and  C_2
REMARK    2  A    between atoms: C_2  and  C_3
REMARK    3  A    between atoms: C_7  and  O_8
REMARK    4  A    between atoms: O_8  and  C_9
REMARK    5  A    between atoms: C_9  and  C_10
REMARK    6  A    between atoms: C_10  and  C_11
REMARK                            x       y       z     vdW  Elec       q    Type
REMARK                         _______ _______ _______ _____ _____    ______ ____
ROOT
ATOM      1  C   UNL     1      45.509   6.716  12.455  0.00  0.00    +0.000 A 
ATOM      2  C   UNL     1      46.249   5.924  13.343  0.00  0.00    +0.000 A 
ATOM      3  C   UNL     1      46.183   4.534  13.273  0.00  0.00    +0.000 A 
ATOM      4  C   UNL     1      45.369   3.918  12.322  0.00  0.00    +0.000 A 
ATOM      5  C   UNL     1      44.613   4.686  11.433  0.00  0.00    +0.000 A 
ATOM      6  C   UNL     1      44.692   6.082  11.501  0.00  0.00    +0.000 A 
ENDROOT
BRANCH   1   7
ATOM      7  C   UNL     1      45.577   8.219  12.556  0.00  0.00    +0.000 C 
BRANCH   7   8
ATOM      8  N   UNL     1      46.370   8.646  13.704  0.00  0.00    +0.000 NA
ATOM      9  H   UNL     1      46.133   9.608  13.935  0.00  0.00    +0.000 HD
ATOM     10  H   UNL     1      47.353   8.645  13.438  0.00  0.00    +0.000 HD
ENDBRANCH   7   8
ENDBRANCH   1   7
BRANCH   5  11
ATOM     11  O   UNL     1      43.772   4.183  10.469  0.00  0.00    +0.000 OA
BRANCH  11  12
ATOM     12  C   UNL     1      44.350   3.222   9.577  0.00  0.00    +0.000 C 
BRANCH  12  13
ATOM     13  C   UNL     1      45.128   3.935   8.470  0.00  0.00    +0.000 C 
BRANCH  13  14
ATOM     14  C   UNL     1      45.957   2.962   7.665  0.00  0.00    +0.000 A 
ATOM     15  C   UNL     1      46.231   1.679   8.157  0.00  0.00    +0.000 A 
ATOM     16  C   UNL     1      47.023   0.791   7.421  0.00  0.00    +0.000 A 
ATOM     17  C   UNL     1      47.551   1.181   6.192  0.00  0.00    +0.000 A 
ATOM     18  C   UNL     1      47.293   2.458   5.699  0.00  0.00    +0.000 A 
ATOM     19  C   UNL     1      46.501   3.345   6.431  0.00  0.00    +0.000 A 
ENDBRANCH  13  14
ENDBRANCH  12  13
ENDBRANCH  11  12
ENDBRANCH   5  11
TORSDOF 6
ENDMDL
MODEL 3
REMARK VINA RESULT:    -6.516      2.270      5.773
REMARK INTER + INTRA:          -9.246
REMARK INTER:                  -8.481
REMARK INTRA:                  -0.765
REMARK UNBOUND:                -0.635
REMARK  Name = 
REMARK  6 active torsions:
REMARK  status: ('A' for Active; 'I' for Inactive)
REMARK    1  A    between atoms: N_1  and  C_2
REMARK    2  A    between atoms: C_2  and  C_3
REMARK    3  A    between atoms: C_7  and  O_8
REMARK    4  A    between atoms: O_8  and  C_9
REMARK    5  A    between atoms: C_9  and  C_10
REMARK    6  A    between atoms: C_10  and  C_11
REMARK                            x       y       z     vdW  Elec       q    Type
REMARK                         _______ _______ _______ _____ _____    ______ ____
ROOT
ATOM      1  C   UNL     1      46.103   2.208   8.119  0.00  0.00    +0.000 A 
ATOM      2  C   UNL     1      46.396   3.514   7.705  0.00  0.00    +0.000 A 
ATOM      3  C   UNL     1      45.723   4.600   8.261  0.00  0.00    +0.000 A 
ATOM      4  C   UNL     1      44.739   4.393   9.229  0.00  0.00    +0.000 A 
ATOM      5  C   UNL     1      44.421   3.100   9.650  0.00  0.00    +0.000 A 
ATOM      6  C   UNL     1      45.109   2.014   9.096  0.00  0.00    +0.000 A 
ENDROOT
BRANCH   1   7
ATOM      7  C   UNL     1      46.828   1.043   7.495  0.00  0.00    +0.000 C 
BRANCH   7   8
ATOM      8  N   UNL     1      48.074   1.462   6.861  0.00  0.00    +0.000 NA
ATOM      9  H   UNL     1      48.007   2.444   6.607  0.00  0.00    +0.000 HD
ATOM     10  H   UNL     1      48.185   0.944   5.990  0.00  0.00    +0.000 HD
ENDBRANCH   7   8
ENDBRANCH   1   7
BRANCH   5  11
ATOM     11  O   UNL     1      43.464   2.784  10.584  0.00  0.00    +0.000 OA
BRANCH  11  12
ATOM     12  C   UNL     1      43.920   2.704  11.941  0.00  0.00    +0.000 C 
BRANCH  12  13
ATOM     13  C   UNL     1      43.522   3.970  12.703  0.00  0.00    +0.000 C 
BRANCH  13  14
ATOM     14  C   UNL     1      44.706   4.885  12.906  0.00  0.00    +0.000 A 
ATOM     15  C   UNL     1      44.605   6.256  12.635  0.00  0.00    +0.000 A 
ATOM     16  C   UNL     1      45.713   7.095  12.798  0.00  0.00    +0.000 A 
ATOM     17  C   UNL     1      46.931   6.568  13.225  0.00  0.00    +0.000 A 
ATOM     18  C   UNL     1      47.044   5.205  13.486  0.00  0.00    +0.000 A 
ATOM     19  C   UNL     1      45.940   4.366  13.326  0.00  0.00    +0.000 A 
ENDBRANCH  13  14
ENDBRANCH  12  13
ENDBRANCH  11  12
ENDBRANCH   5  11
TORSDOF 6
ENDMDL
MODEL 4
REMARK VINA RESULT:    -6.308      1.139      1.350
REMARK INTER + INTRA:          -8.971
REMARK INTER:                  -8.719
REMARK INTRA:                  -0.252
REMARK UNBOUND:                -0.635
REMARK  Name = 
REMARK  6 active torsions:
REMARK  status: ('A' for Active; 'I' for Inactive)
REMARK    1  A    between atoms: N_1  and  C_2
REMARK    2  A    between atoms: C_2  and  C_3
REMARK    3  A    between atoms: C_7  and  O_8
REMARK    4  A    between atoms: O_8  and  C_9
REMARK    5  A    between atoms: C_9  and  C_10
REMARK    6  A    between atoms: C_10  and  C_11
REMARK                            x       y       z     vdW  Elec       q    Type
REMARK                         _______ _______ _______ _____ _____    ______ ____
ROOT
ATOM      1  C   UNL     1      45.779   4.841  12.776  0.00  0.00    +0.000 A 
ATOM      2  C   UNL     1      45.160   6.079  12.561  0.00  0.00    +0.000 A 
ATOM      3  C   UNL     1      44.094   6.191  11.671  0.00  0.00    +0.000 A 
ATOM      4  C   UNL     1      43.640   5.069  10.977  0.00  0.00    +0.000 A 
ATOM      5  C   UNL     1      44.248   3.825  11.166  0.00  0.00    +0.000 A 
ATOM      6  C   UNL     1      45.311   3.717  12.070  0.00  0.00    +0.000 A 
ENDROOT
BRANCH   1   7
ATOM      7  C   UNL     1      46.943   4.740  13.729  0.00  0.00    +0.000 C 
BRANCH   7   8
ATOM      8  N   UNL     1      47.268   3.351  14.037  0.00  0.00    +0.000 NA
ATOM      9  H   UNL     1      48.056   3.057  13.465  0.00  0.00    +0.000 HD
ATOM     10  H   UNL     1      46.479   2.765  13.766  0.00  0.00    +0.000 HD
ENDBRANCH   7   8
ENDBRANCH   1   7
BRANCH   5  11
ATOM     11  O   UNL     1      43.890   2.663  10.526  0.00  0.00    +0.000 OA
BRANCH  11  12
ATOM     12  C   UNL     1      44.336   2.535   9.170  0.00  0.00    +0.000 C 
BRANCH  12  13
ATOM     13  C   UNL     1      45.849   2.312   9.135  0.00  0.00    +0.000 C 
BRANCH  13  14
ATOM     14  C   UNL     1      46.357   2.210   7.716  0.00  0.00    +0.000 A 
ATOM     15  C   UNL     1      47.028   1.061   7.278  0.00  0.00    +0.000 A 
ATOM     16  C   UNL     1      47.521   0.983   5.971  0.00  0.00    +0.000 A 
ATOM     17  C   UNL     1      47.353   2.054   5.096  0.00  0.00    +0.000 A 
ATOM     18  C   UNL     1      46.697   3.204   5.525  0.00  0.00    +0.000 A 
ATOM     19  C   UNL     1      46.202   3.285   6.828  0.00  0.00    +0.000 A 
ENDBRANCH  13  14
ENDBRANCH  12  13
ENDBRANCH  11  12
ENDBRANCH   5  11
TORSDOF 6
ENDMDL
MODEL 5
REMARK VINA RESULT:    -6.153      2.216      5.854
REMARK INTER + INTRA:          -8.767
REMARK INTER:                  -8.103
REMARK INTRA:                  -0.663
REMARK UNBOUND:                -0.635
REMARK  Name = 
REMARK  6 active torsions:
REMARK  status: ('A' for Active; 'I' for Inactive)
REMARK    1  A    between atoms: N_1  and  C_2
REMARK    2  A    between atoms: C_2  and  C_3
REMARK    3  A    between atoms: C_7  and  O_8
REMARK    4  A    between atoms: O_8  and  C_9
REMARK    5  A    between atoms: C_9  and  C_10
REMARK    6  A    between atoms: C_10  and  C_11
REMARK                            x       y       z     vdW  Elec       q    Type
REMARK                         _______ _______ _______ _____ _____    ______ ____
ROOT
ATOM      1  C   UNL     1      46.335   3.259   7.684  0.00  0.00    +0.000 A 
ATOM      2  C   UNL     1      46.219   1.902   8.011  0.00  0.00    +0.000 A 
ATOM      3  C   UNL     1      45.236   1.469   8.898  0.00  0.00    +0.000 A 
ATOM      4  C   UNL     1      44.362   2.389   9.478  0.00  0.00    +0.000 A 
ATOM      5  C   UNL     1      44.464   3.750   9.176  0.00  0.00    +0.000 A 
ATOM      6  C   UNL     1      45.447   4.176   8.276  0.00  0.00    +0.000 A 
ENDROOT
BRANCH   1   7
ATOM      7  C   UNL     1      47.416   3.713   6.736  0.00  0.00    +0.000 C 
BRANCH   7   8
ATOM      8  N   UNL     1      48.389   2.655   6.483  0.00  0.00    +0.000 NA
ATOM      9  H   UNL     1      48.443   2.048   7.298  0.00  0.00    +0.000 HD
ATOM     10  H   UNL     1      49.309   3.079   6.376  0.00  0.00    +0.000 HD
ENDBRANCH   7   8
ENDBRANCH   1   7
BRANCH   5  11
ATOM     11  O   UNL     1      43.666   4.739   9.699  0.00  0.00    +0.000 OA
BRANCH  11  12
ATOM     12  C   UNL     1      43.251   4.552  11.059  0.00  0.00    +0.000 C 
BRANCH  12  13
ATOM     13  C   UNL     1      43.531   5.817  11.871  0.00  0.00    +0.000 C 
BRANCH  13  14
ATOM     14  C   UNL     1      44.990   5.916  12.250  0.00  0.00    +0.000 A 
ATOM     15  C   UNL     1      45.861   6.744  11.530  0.00  0.00    +0.000 A 
ATOM     16  C   UNL     1      47.217   6.811  11.868  0.00  0.00    +0.000 A 
ATOM     17  C   UNL     1      47.713   6.045  12.922  0.00  0.00    +0.000 A 
ATOM     18  C   UNL     1      46.857   5.211  13.636  0.00  0.00    +0.000 A 
ATOM     19  C   UNL     1      45.503   5.144  13.302  0.00  0.00    +0.000 A 
ENDBRANCH  13  14
ENDBRANCH  12  13
ENDBRANCH  11  12
ENDBRANCH   5  11
TORSDOF 6
ENDMDL
MODEL 6
REMARK VINA RESULT:    -5.601      1.812      3.266
REMARK INTER + INTRA:          -8.037
REMARK INTER:                  -7.669
REMARK INTRA:                  -0.368
REMARK UNBOUND:                -0.635
REMARK  Name = 
REMARK  6 active torsions:
REMARK  status: ('A' for Active; 'I' for Inactive)
REMARK    1  A    between atoms: N_1  and  C_2
REMARK    2  A    between atoms: C_2  and  C_3
REMARK    3  A    between atoms: C_7  and  O_8
REMARK    4  A    between atoms: O_8  and  C_9
REMARK    5  A    between atoms: C_9  and  C_10
REMARK    6  A    between atoms: C_10  and  C_11
REMARK                            x       y       z     vdW  Elec       q    Type
REMARK                         _______ _______ _______ _____ _____    ______ ____
ROOT
ATOM      1  C   UNL     1      47.733   4.683  15.939  0.00  0.00    +0.000 A 
ATOM      2  C   UNL     1      48.455   5.880  15.856  0.00  0.00    +0.000 A 
ATOM      3  C   UNL     1      48.394   6.665  14.707  0.00  0.00    +0.000 A 
ATOM      4  C   UNL     1      47.618   6.258  13.621  0.00  0.00    +0.000 A 
ATOM      5  C   UNL     1      46.897   5.062  13.675  0.00  0.00    +0.000 A 
ATOM      6  C   UNL     1      46.954   4.284  14.836  0.00  0.00    +0.000 A 
ENDROOT
BRANCH   1   7
ATOM      7  C   UNL     1      47.825   3.835  17.182  0.00  0.00    +0.000 C 
BRANCH   7   8
ATOM      8  N   UNL     1      46.564   3.158  17.466  0.00  0.00    +0.000 NA
ATOM      9  H   UNL     1      45.871   3.845  17.754  0.00  0.00    +0.000 HD
ATOM     10  H   UNL     1      46.702   2.535  18.261  0.00  0.00    +0.000 HD
ENDBRANCH   7   8
ENDBRANCH   1   7
BRANCH   5  11
ATOM     11  O   UNL     1      46.114   4.563  12.661  0.00  0.00    +0.000 OA
BRANCH  11  12
ATOM     12  C   UNL     1      44.702   4.561  12.908  0.00  0.00    +0.000 C 
BRANCH  12  13
ATOM     13  C   UNL     1      43.946   4.911  11.625  0.00  0.00    +0.000 C 
BRANCH  13  14
ATOM     14  C   UNL     1      44.534   4.202  10.429  0.00  0.00    +0.000 A 
ATOM     15  C   UNL     1      45.251   4.913   9.457  0.00  0.00    +0.000 A 
ATOM     16  C   UNL     1      45.771   4.257   8.336  0.00  0.00    +0.000 A 
ATOM     17  C   UNL     1      45.572   2.887   8.175  0.00  0.00    +0.000 A 
ATOM     18  C   UNL     1      44.852   2.173   9.129  0.00  0.00    +0.000 A 
ATOM     19  C   UNL     1      44.334   2.826  10.250  0.00  0.00    +0.000 A 
ENDBRANCH  13  14
ENDBRANCH  12  13
ENDBRANCH  11  12
ENDBRANCH   5  11
TORSDOF 6
ENDMDL
MODEL 7
REMARK VINA RESULT:    -5.577      1.735      2.344
REMARK INTER + INTRA:          -8.006
REMARK INTER:                  -7.642
REMARK INTRA:                  -0.364
REMARK UNBOUND:                -0.635
REMARK  Name = 
REMARK  6 active torsions:
REMARK  status: ('A' for Active; 'I' for Inactive)
REMARK    1  A    between atoms: N_1  and  C_2
REMARK    2  A    between atoms: C_2  and  C_3
REMARK    3  A    between atoms: C_7  and  O_8
REMARK    4  A    between atoms: O_8  and  C_9
REMARK    5  A    between atoms: C_9  and  C_10
REMARK    6  A    between atoms: C_10  and  C_11
REMARK                            x       y       z     vdW  Elec       q    Type
REMARK                         _______ _______ _______ _____ _____    ______ ____
ROOT
ATOM      1  C   UNL     1      46.905   7.343  12.775  0.00  0.00    +0.000 A 
ATOM      2  C   UNL     1      45.952   8.352  12.579  0.00  0.00    +0.000 A 
ATOM      3  C   UNL     1      44.819   8.112  11.805  0.00  0.00    +0.000 A 
ATOM      4  C   UNL     1      44.629   6.866  11.207  0.00  0.00    +0.000 A 
ATOM      5  C   UNL     1      45.571   5.848  11.379  0.00  0.00    +0.000 A 
ATOM      6  C   UNL     1      46.702   6.091  12.167  0.00  0.00    +0.000 A 
ENDROOT
BRANCH   1   7
ATOM      7  C   UNL     1      48.135   7.624  13.601  0.00  0.00    +0.000 C 
BRANCH   7   8
ATOM      8  N   UNL     1      49.340   7.661  12.777  0.00  0.00    +0.000 NA
ATOM      9  H   UNL     1      49.101   7.397  11.824  0.00  0.00    +0.000 HD
ATOM     10  H   UNL     1      49.989   6.953  13.120  0.00  0.00    +0.000 HD
ENDBRANCH   7   8
ENDBRANCH   1   7
BRANCH   5  11
ATOM     11  O   UNL     1      45.489   4.592  10.827  0.00  0.00    +0.000 OA
BRANCH  11  12
ATOM     12  C   UNL     1      44.342   4.347  10.003  0.00  0.00    +0.000 C 
BRANCH  12  13
ATOM     13  C   UNL     1      44.347   2.897   9.515  0.00  0.00    +0.000 C 
BRANCH  13  14
ATOM     14  C   UNL     1      45.423   2.670   8.479  0.00  0.00    +0.000 A 
ATOM     15  C   UNL     1      45.785   3.690   7.588  0.00  0.00    +0.000 A 
ATOM     16  C   UNL     1      46.762   3.465   6.613  0.00  0.00    +0.000 A 
ATOM     17  C   UNL     1      47.378   2.219   6.515  0.00  0.00    +0.000 A 
ATOM     18  C   UNL     1      47.017   1.196   7.388  0.00  0.00    +0.000 A 
ATOM     19  C   UNL     1      46.044   1.418   8.364  0.00  0.00    +0.000 A 
ENDBRANCH  13  14
ENDBRANCH  12  13
ENDBRANCH  11  12
ENDBRANCH   5  11
TORSDOF 6
ENDMDL
MODEL 8
REMARK VINA RESULT:    -5.542      3.594      7.565
REMARK INTER + INTRA:          -7.959
REMARK INTER:                  -7.628
REMARK INTRA:                  -0.332
REMARK UNBOUND:                -0.635
REMARK  Name = 
REMARK  6 active torsions:
REMARK  status: ('A' for Active; 'I' for Inactive)
REMARK    1  A    between atoms: N_1  and  C_2
REMARK    2  A    between atoms: C_2  and  C_3
REMARK    3  A    between atoms: C_7  and  O_8
REMARK    4  A    between atoms: O_8  and  C_9
REMARK    5  A    between atoms: C_9  and  C_10
REMARK    6  A    between atoms: C_10  and  C_11
REMARK                            x       y       z     vdW  Elec       q    Type
REMARK                         _______ _______ _______ _____ _____    ______ ____
ROOT
ATOM      1  C   UNL     1      45.295   4.799  11.631  0.00  0.00    +0.000 A 
ATOM      2  C   UNL     1      45.949   6.015  11.390  0.00  0.00    +0.000 A 
ATOM      3  C   UNL     1      46.949   6.461  12.251  0.00  0.00    +0.000 A 
ATOM      4  C   UNL     1      47.300   5.705  13.370  0.00  0.00    +0.000 A 
ATOM      5  C   UNL     1      46.655   4.495  13.637  0.00  0.00    +0.000 A 
ATOM      6  C   UNL     1      45.659   4.046  12.763  0.00  0.00    +0.000 A 
ENDROOT
BRANCH   1   7
ATOM      7  C   UNL     1      44.202   4.338  10.700  0.00  0.00    +0.000 C 
BRANCH   7   8
ATOM      8  N   UNL     1      43.248   5.406  10.419  0.00  0.00    +0.000 NA
ATOM      9  H   UNL     1      42.311   5.014  10.369  0.00  0.00    +0.000 HD
ATOM     10  H   UNL     1      43.452   5.789   9.496  0.00  0.00    +0.000 HD
ENDBRANCH   7   8
ENDBRANCH   1   7
BRANCH   5  11
ATOM     11  O   UNL     1      46.914   3.681  14.714  0.00  0.00    +0.000 OA
BRANCH  11  12
ATOM     12  C   UNL     1      47.268   4.350  15.931  0.00  0.00    +0.000 C 
BRANCH  12  13
ATOM     13  C   UNL     1      47.528   3.325  17.036  0.00  0.00    +0.000 C 
BRANCH  13  14
ATOM     14  C   UNL     1      49.007   3.155  17.291  0.00  0.00    +0.000 A 
ATOM     15  C   UNL     1      49.759   4.194  17.857  0.00  0.00    +0.000 A 
ATOM     16  C   UNL     1      51.134   4.042  18.066  0.00  0.00    +0.000 A 
ATOM     17  C   UNL     1      51.768   2.855  17.705  0.00  0.00    +0.000 A 
ATOM     18  C   UNL     1      51.032   1.821  17.133  0.00  0.00    +0.000 A 
ATOM     19  C   UNL     1      49.659   1.969  16.925  0.00  0.00    +0.000 A 
ENDBRANCH  13  14
ENDBRANCH  12  13
ENDBRANCH  11  12
ENDBRANCH   5  11
TORSDOF 6
ENDMDL
MODEL 9
REMARK VINA RESULT:    -5.504      2.021      2.674
REMARK INTER + INTRA:          -7.909
REMARK INTER:                  -7.485
REMARK INTRA:                  -0.424
REMARK UNBOUND:                -0.635
REMARK  Name = 
REMARK  6 active torsions:
REMARK  status: ('A' for Active; 'I' for Inactive)
REMARK    1  A    between atoms: N_1  and  C_2
REMARK    2  A    between atoms: C_2  and  C_3
REMARK    3  A    between atoms: C_7  and  O_8
REMARK    4  A    between atoms: O_8  and  C_9
REMARK    5  A    between atoms: C_9  and  C_10
REMARK    6  A    between atoms: C_10  and  C_11
REMARK                            x       y       z     vdW  Elec       q    Type
REMARK                         _______ _______ _______ _____ _____    ______ ____
ROOT
ATOM      1  C   UNL     1      48.183   6.902  12.806  0.00  0.00    +0.000 A 
ATOM      2  C   UNL     1      48.005   6.042  13.898  0.00  0.00    +0.000 A 
ATOM      3  C   UNL     1      46.914   5.177  13.946  0.00  0.00    +0.000 A 
ATOM      4  C   UNL     1      45.981   5.168  12.909  0.00  0.00    +0.000 A 
ATOM      5  C   UNL     1      46.130   6.024  11.815  0.00  0.00    +0.000 A 
ATOM      6  C   UNL     1      47.234   6.883  11.767  0.00  0.00    +0.000 A 
ENDROOT
BRANCH   1   7
ATOM      7  C   UNL     1      49.359   7.845  12.778  0.00  0.00    +0.000 C 
BRANCH   7   8
ATOM      8  N   UNL     1      49.227   8.838  11.716  0.00  0.00    +0.000 NA
ATOM      9  H   UNL     1      48.703   8.434  10.944  0.00  0.00    +0.000 HD
ATOM     10  H   UNL     1      50.156   9.053  11.356  0.00  0.00    +0.000 HD
ENDBRANCH   7   8
ENDBRANCH   1   7
BRANCH   5  11
ATOM     11  O   UNL     1      45.266   6.105  10.749  0.00  0.00    +0.000 OA
BRANCH  11  12
ATOM     12  C   UNL     1      45.710   5.482   9.537  0.00  0.00    +0.000 C 
BRANCH  12  13
ATOM     13  C   UNL     1      44.918   4.198   9.287  0.00  0.00    +0.000 C 
BRANCH  13  14
ATOM     14  C   UNL     1      45.711   3.214   8.459  0.00  0.00    +0.000 A 
ATOM     15  C   UNL     1      45.590   1.835   8.677  0.00  0.00    +0.000 A 
ATOM     16  C   UNL     1      46.348   0.930   7.926  0.00  0.00    +0.000 A 
ATOM     17  C   UNL     1      47.236   1.396   6.959  0.00  0.00    +0.000 A 
ATOM     18  C   UNL     1      47.372   2.765   6.743  0.00  0.00    +0.000 A 
ATOM     19  C   UNL     1      46.615   3.670   7.489  0.00  0.00    +0.000 A 
ENDBRANCH  13  14
ENDBRANCH  12  13
ENDBRANCH  11  12
ENDBRANCH   5  11
TORSDOF 6
ENDMDL
