MODEL 1
REMARK VINA RESULT:    -8.014      0.000      0.000
REMARK INTER + INTRA:         -12.681
REMARK INTER:                 -11.293
REMARK INTRA:                  -1.387
REMARK UNBOUND:                -1.387
REMARK  Name = 
REMARK  10 active torsions:
REMARK  status: ('A' for Active; 'I' for Inactive)
REMARK    1  A    between atoms: C_1  and  C_2
REMARK    2  A    between atoms: C_2  and  C_3
REMARK    3  A    between atoms: C_2  and  N_24
REMARK    4  A    between atoms: C_6  and  C_7
REMARK    5  A    between atoms: C_7  and  N_8
REMARK    6  A    between atoms: N_8  and  C_9
REMARK    7  A    between atoms: C_10  and  C_12
REMARK    8  A    between atoms: N_24  and  C_25
REMARK    9  A    between atoms: N_24  and  C_26
REMARK   10  A    between atoms: C_26  and  C_27
REMARK                            x       y       z     vdW  Elec       q    Type
REMARK                         _______ _______ _______ _____ _____    ______ ____
ROOT
ATOM      1  C   UNL     1      45.485   5.577  12.116  0.00  0.00    +0.000 A 
ATOM      2  C   UNL     1      45.943   5.139  13.372  0.00  0.00    +0.000 A 
ATOM      3  C   UNL     1      47.134   5.618  13.924  0.00  0.00    +0.000 A 
ATOM      4  C   UNL     1      47.897   6.573  13.246  0.00  0.00    +0.000 A 
ATOM      5  C   UNL     1      47.458   6.999  11.982  0.00  0.00    +0.000 A 
ATOM      6  C   UNL     1      46.273   6.506  11.421  0.00  0.00    +0.000 A 
ENDROOT
BRANCH   1   8
ATOM      7  C   UNL     1      42.945   5.435  12.248  0.00  0.00    +0.000 C 
ATOM      8  C   UNL     1      44.210   5.011  11.476  0.00  0.00    +0.000 C 
BRANCH   8   9
ATOM      9  N   UNL     1      44.330   3.551  11.217  0.00  0.00    +0.000 NA
ATOM     10  C   UNL     1      43.550   2.730  12.149  0.00  0.00    +0.000 C 
BRANCH   9  11
ATOM     11  C   UNL     1      43.990   3.155   9.839  0.00  0.00    +0.000 C 
BRANCH  11  12
ATOM     12  C   UNL     1      45.171   2.951   8.914  0.00  0.00    +0.000 A 
ATOM     13  C   UNL     1      45.673   1.665   8.672  0.00  0.00    +0.000 A 
ATOM     14  C   UNL     1      46.688   1.466   7.734  0.00  0.00    +0.000 A 
ATOM     15  C   UNL     1      47.212   2.549   7.032  0.00  0.00    +0.000 A 
ATOM     16  C   UNL     1      46.733   3.835   7.277  0.00  0.00    +0.000 A 
ATOM     17  C   UNL     1      45.718   4.036   8.213  0.00  0.00    +0.000 A 
ENDBRANCH  11  12
ENDBRANCH   9  11
ENDBRANCH   8   9
ENDBRANCH   1   8
BRANCH   4  18
ATOM     18  C   UNL     1      49.105   7.203  13.897  0.00  0.00    +0.000 C 
BRANCH  18  19
ATOM     19  N   UNL     1      48.948   7.609  15.296  0.00  0.00    +0.000 N 
ATOM     20  C   UNL     1      48.169   8.814  15.538  0.00  0.00    +0.000 C 
ATOM     21  C   UNL     1      49.740   6.954  16.252  0.00  0.00    +0.000 C 
ATOM     22  O   UNL     1      50.497   6.044  15.923  0.00  0.00    +0.000 OA
BRANCH  21  23
ATOM     23  C   UNL     1      49.652   7.342  17.671  0.00  0.00    +0.000 A 
ATOM     24  C   UNL     1      50.332   8.403  18.247  0.00  0.00    +0.000 A 
ATOM     25  S   UNL     1      49.990   8.621  19.905  0.00  0.00    +0.000 S 
ATOM     26  C   UNL     1      48.808   7.401  19.876  0.00  0.00    +0.000 A 
ATOM     27  N   UNL     1      48.045   7.142  20.973  0.00  0.00    +0.000 NA
ATOM     28  C   UNL     1      47.144   6.235  20.786  0.00  0.00    +0.000 A 
ATOM     29  N   UNL     1      46.965   5.540  19.618  0.00  0.00    +0.000 N 
ATOM     30  C   UNL     1      47.811   5.664  18.534  0.00  0.00    +0.000 A 
ATOM     31  O   UNL     1      47.780   4.842  17.629  0.00  0.00    +0.000 OA
ATOM     32  C   UNL     1      48.752   6.765  18.648  0.00  0.00    +0.000 A 
ATOM     33  H   UNL     1      46.294   4.790  19.561  0.00  0.00    +0.000 HD
ENDBRANCH  21  23
ENDBRANCH  18  19
ENDBRANCH   4  18
TORSDOF 7
ENDMDL
MODEL 2
REMARK VINA RESULT:    -7.796      1.626      2.019
REMARK INTER + INTRA:         -12.374
REMARK INTER:                 -11.135
REMARK INTRA:                  -1.239
REMARK UNBOUND:                -1.387
REMARK  Name = 
REMARK  10 active torsions:
REMARK  status: ('A' for Active; 'I' for Inactive)
REMARK    1  A    between atoms: C_1  and  C_2
REMARK    2  A    between atoms: C_2  and  C_3
REMARK    3  A    between atoms: C_2  and  N_24
REMARK    4  A    between atoms: C_6  and  C_7
REMARK    5  A    between atoms: C_7  and  N_8
REMARK    6  A    between atoms: N_8  and  C_9
REMARK    7  A    between atoms: C_10  and  C_12
REMARK    8  A    between atoms: N_24  and  C_25
REMARK    9  A    between atoms: N_24  and  C_26
REMARK   10  A    between atoms: C_26  and  C_27
REMARK                            x       y       z     vdW  Elec       q    Type
REMARK                         _______ _______ _______ _____ _____    ______ ____
ROOT
ATOM      1  C   UNL     1      44.965   5.972  11.500  0.00  0.00    +0.000 A 
ATOM      2  C   UNL     1      46.265   6.032  10.966  0.00  0.00    +0.000 A 
ATOM      3  C   UNL     1      47.212   6.940  11.447  0.00  0.00    +0.000 A 
ATOM      4  C   UNL     1      46.896   7.804  12.499  0.00  0.00    +0.000 A 
ATOM      5  C   UNL     1      45.594   7.766  13.024  0.00  0.00    +0.000 A 
ATOM      6  C   UNL     1      44.639   6.868  12.529  0.00  0.00    +0.000 A 
ENDROOT
BRANCH   1   8
ATOM      7  C   UNL     1      42.522   5.253  11.588  0.00  0.00    +0.000 C 
ATOM      8  C   UNL     1      43.901   5.021  10.937  0.00  0.00    +0.000 C 
BRANCH   8   9
ATOM      9  N   UNL     1      44.370   3.609  10.943  0.00  0.00    +0.000 NA
ATOM     10  C   UNL     1      43.900   2.846  12.104  0.00  0.00    +0.000 C 
BRANCH   9  11
ATOM     11  C   UNL     1      44.040   2.860   9.718  0.00  0.00    +0.000 C 
BRANCH  11  12
ATOM     12  C   UNL     1      45.153   2.767   8.697  0.00  0.00    +0.000 A 
ATOM     13  C   UNL     1      45.605   3.914   8.029  0.00  0.00    +0.000 A 
ATOM     14  C   UNL     1      46.705   3.846   7.171  0.00  0.00    +0.000 A 
ATOM     15  C   UNL     1      47.362   2.634   6.971  0.00  0.00    +0.000 A 
ATOM     16  C   UNL     1      46.910   1.484   7.616  0.00  0.00    +0.000 A 
ATOM     17  C   UNL     1      45.811   1.549   8.474  0.00  0.00    +0.000 A 
ENDBRANCH  11  12
ENDBRANCH   9  11
ENDBRANCH   8   9
ENDBRANCH   1   8
BRANCH   4  18
ATOM     18  C   UNL     1      47.954   8.684  13.122  0.00  0.00    +0.000 C 
BRANCH  18  19
ATOM     19  N   UNL     1      48.382   8.323  14.475  0.00  0.00    +0.000 N 
ATOM     20  C   UNL     1      48.043   9.259  15.535  0.00  0.00    +0.000 C 
ATOM     21  C   UNL     1      49.271   7.244  14.605  0.00  0.00    +0.000 C 
ATOM     22  O   UNL     1      49.630   6.605  13.620  0.00  0.00    +0.000 OA
BRANCH  21  23
ATOM     23  C   UNL     1      49.764   6.853  15.938  0.00  0.00    +0.000 A 
ATOM     24  C   UNL     1      50.759   7.513  16.641  0.00  0.00    +0.000 A 
ATOM     25  S   UNL     1      51.080   6.841  18.176  0.00  0.00    +0.000 S 
ATOM     26  C   UNL     1      49.798   5.737  18.019  0.00  0.00    +0.000 A 
ATOM     27  N   UNL     1      49.455   4.914  19.047  0.00  0.00    +0.000 NA
ATOM     28  C   UNL     1      48.422   4.176  18.811  0.00  0.00    +0.000 A 
ATOM     29  N   UNL     1      47.728   4.159  17.629  0.00  0.00    +0.000 N 
ATOM     30  C   UNL     1      48.130   4.864  16.512  0.00  0.00    +0.000 A 
ATOM     31  O   UNL     1      47.648   4.614  15.416  0.00  0.00    +0.000 OA
ATOM     32  C   UNL     1      49.204   5.808  16.771  0.00  0.00    +0.000 A 
ATOM     33  H   UNL     1      46.977   3.503  17.480  0.00  0.00    +0.000 HD
ENDBRANCH  21  23
ENDBRANCH  18  19
ENDBRANCH   4  18
TORSDOF 7
ENDMDL
MODEL 3
REMARK VINA RESULT:    -7.026      3.274      3.768
REMARK INTER + INTRA:         -11.289
REMARK INTER:                 -10.789
REMARK INTRA:                  -0.500
REMARK UNBOUND:                -1.387
REMARK  Name = 
REMARK  10 active torsions:
REMARK  status: ('A' for Active; 'I' for Inactive)
REMARK    1  A    between atoms: C_1  and  C_2
REMARK    2  A    between atoms: C_2  and  C_3
REMARK    3  A    between atoms: C_2  and  N_24
REMARK    4  A    between atoms: C_6  and  C_7
REMARK    5  A    between atoms: C_7  and  N_8
REMARK    6  A    between atoms: N_8  and  C_9
REMARK    7  A    between atoms: C_10  and  C_12
REMARK    8  A    between atoms: N_24  and  C_25
REMARK    9  A    between atoms: N_24  and  C_26
REMARK   10  A    between atoms: C_26  and  C_27
REMARK                            x       y       z     vdW  Elec       q    Type
REMARK                         _______ _______ _______ _____ _____    ______ ____
ROOT
ATOM      1  C   UNL     1      46.583   5.729  12.843  0.00  0.00    +0.000 A 
ATOM      2  C   UNL     1      46.815   4.742  13.818  0.00  0.00    +0.000 A 
ATOM      3  C   UNL     1      47.500   5.030  15.001  0.00  0.00    +0.000 A 
ATOM      4  C   UNL     1      47.956   6.326  15.260  0.00  0.00    +0.000 A 
ATOM      5  C   UNL     1      47.748   7.312  14.281  0.00  0.00    +0.000 A 
ATOM      6  C   UNL     1      47.076   7.019  13.087  0.00  0.00    +0.000 A 
ENDROOT
BRANCH   1   8
ATOM      7  C   UNL     1      45.252   6.662  10.880  0.00  0.00    +0.000 C 
ATOM      8  C   UNL     1      45.885   5.407  11.514  0.00  0.00    +0.000 C 
BRANCH   8   9
ATOM      9  N   UNL     1      44.973   4.239  11.644  0.00  0.00    +0.000 NA
ATOM     10  C   UNL     1      44.034   4.357  12.765  0.00  0.00    +0.000 C 
BRANCH   9  11
ATOM     11  C   UNL     1      44.213   3.930  10.420  0.00  0.00    +0.000 C 
BRANCH  11  12
ATOM     12  C   UNL     1      45.029   3.370   9.275  0.00  0.00    +0.000 A 
ATOM     13  C   UNL     1      45.622   4.226   8.336  0.00  0.00    +0.000 A 
ATOM     14  C   UNL     1      46.465   3.717   7.347  0.00  0.00    +0.000 A 
ATOM     15  C   UNL     1      46.725   2.349   7.286  0.00  0.00    +0.000 A 
ATOM     16  C   UNL     1      46.128   1.487   8.204  0.00  0.00    +0.000 A 
ATOM     17  C   UNL     1      45.284   1.994   9.193  0.00  0.00    +0.000 A 
ENDBRANCH  11  12
ENDBRANCH   9  11
ENDBRANCH   8   9
ENDBRANCH   1   8
BRANCH   4  18
ATOM     18  C   UNL     1      48.567   6.680  16.595  0.00  0.00    +0.000 C 
BRANCH  18  19
ATOM     19  N   UNL     1      49.891   6.118  16.870  0.00  0.00    +0.000 N 
ATOM     20  C   UNL     1      50.970   6.537  15.990  0.00  0.00    +0.000 C 
ATOM     21  C   UNL     1      49.966   5.061  17.791  0.00  0.00    +0.000 C 
ATOM     22  O   UNL     1      48.960   4.664  18.374  0.00  0.00    +0.000 OA
BRANCH  21  23
ATOM     23  C   UNL     1      51.266   4.431  18.085  0.00  0.00    +0.000 A 
ATOM     24  C   UNL     1      52.307   5.041  18.766  0.00  0.00    +0.000 A 
ATOM     25  S   UNL     1      53.670   4.036  18.982  0.00  0.00    +0.000 S 
ATOM     26  C   UNL     1      52.861   2.703  18.308  0.00  0.00    +0.000 A 
ATOM     27  N   UNL     1      53.442   1.473  18.283  0.00  0.00    +0.000 NA
ATOM     28  C   UNL     1      52.686   0.542  17.802  0.00  0.00    +0.000 A 
ATOM     29  N   UNL     1      51.422   0.739  17.309  0.00  0.00    +0.000 N 
ATOM     30  C   UNL     1      50.854   1.990  17.176  0.00  0.00    +0.000 A 
ATOM     31  O   UNL     1      49.852   2.145  16.492  0.00  0.00    +0.000 OA
ATOM     32  C   UNL     1      51.610   3.048  17.827  0.00  0.00    +0.000 A 
ATOM     33  H   UNL     1      50.913  -0.016  16.876  0.00  0.00    +0.000 HD
ENDBRANCH  21  23
ENDBRANCH  18  19
ENDBRANCH   4  18
TORSDOF 7
ENDMDL
MODEL 4
REMARK VINA RESULT:    -6.811      1.524      2.279
REMARK INTER + INTRA:         -10.986
REMARK INTER:                  -9.866
REMARK INTRA:                  -1.120
REMARK UNBOUND:                -1.387
REMARK  Name = 
REMARK  10 active torsions:
REMARK  status: ('A' for Active; 'I' for Inactive)
REMARK    1  A    between atoms: C_1  and  C_2
REMARK    2  A    between atoms: C_2  and  C_3
REMARK    3  A    between atoms: C_2  and  N_24
REMARK    4  A    between atoms: C_6  and  C_7
REMARK    5  A    between atoms: C_7  and  N_8
REMARK    6  A    between atoms: N_8  and  C_9
REMARK    7  A    between atoms: C_10  and  C_12
REMARK    8  A    between atoms: N_24  and  C_25
REMARK    9  A    between atoms: N_24  and  C_26
REMARK   10  A    between atoms: C_26  and  C_27
REMARK                            x       y       z     vdW  Elec       q    Type
REMARK                         _______ _______ _______ _____ _____    ______ ____
ROOT
ATOM      1  C   UNL     1      45.811   6.364  12.079  0.00  0.00    +0.000 A 
ATOM      2  C   UNL     1      46.919   5.597  12.483  0.00  0.00    +0.000 A 
ATOM      3  C   UNL     1      47.956   6.151  13.239  0.00  0.00    +0.000 A 
ATOM      4  C   UNL     1      47.906   7.490  13.639  0.00  0.00    +0.000 A 
ATOM      5  C   UNL     1      46.813   8.268  13.222  0.00  0.00    +0.000 A 
ATOM      6  C   UNL     1      45.783   7.717  12.449  0.00  0.00    +0.000 A 
ENDROOT
BRANCH   1   8
ATOM      7  C   UNL     1      43.374   6.551  11.361  0.00  0.00    +0.000 C 
ATOM      8  C   UNL     1      44.699   5.780  11.198  0.00  0.00    +0.000 C 
BRANCH   8   9
ATOM      9  N   UNL     1      44.593   4.305  11.358  0.00  0.00    +0.000 NA
ATOM     10  C   UNL     1      43.866   3.902  12.566  0.00  0.00    +0.000 C 
BRANCH   9  11
ATOM     11  C   UNL     1      44.001   3.615  10.198  0.00  0.00    +0.000 C 
BRANCH  11  12
ATOM     12  C   UNL     1      44.975   3.238   9.103  0.00  0.00    +0.000 A 
ATOM     13  C   UNL     1      45.565   4.226   8.301  0.00  0.00    +0.000 A 
ATOM     14  C   UNL     1      46.546   3.888   7.367  0.00  0.00    +0.000 A 
ATOM     15  C   UNL     1      46.947   2.561   7.225  0.00  0.00    +0.000 A 
ATOM     16  C   UNL     1      46.356   1.568   8.004  0.00  0.00    +0.000 A 
ATOM     17  C   UNL     1      45.375   1.904   8.938  0.00  0.00    +0.000 A 
ENDBRANCH  11  12
ENDBRANCH   9  11
ENDBRANCH   8   9
ENDBRANCH   1   8
BRANCH   4  18
ATOM     18  C   UNL     1      48.945   8.057  14.576  0.00  0.00    +0.000 C 
BRANCH  18  19
ATOM     19  N   UNL     1      48.622   8.013  16.004  0.00  0.00    +0.000 N 
ATOM     20  C   UNL     1      48.087   9.233  16.587  0.00  0.00    +0.000 C 
ATOM     21  C   UNL     1      49.066   6.897  16.732  0.00  0.00    +0.000 C 
ATOM     22  O   UNL     1      49.658   5.978  16.174  0.00  0.00    +0.000 OA
BRANCH  21  23
ATOM     23  C   UNL     1      48.801   6.811  18.179  0.00  0.00    +0.000 A 
ATOM     24  C   UNL     1      47.733   6.140  18.752  0.00  0.00    +0.000 A 
ATOM     25  S   UNL     1      47.723   6.189  20.458  0.00  0.00    +0.000 S 
ATOM     26  C   UNL     1      49.226   6.980  20.497  0.00  0.00    +0.000 A 
ATOM     27  N   UNL     1      49.851   7.234  21.679  0.00  0.00    +0.000 NA
ATOM     28  C   UNL     1      51.016   7.779  21.553  0.00  0.00    +0.000 A 
ATOM     29  N   UNL     1      51.590   8.128  20.359  0.00  0.00    +0.000 N 
ATOM     30  C   UNL     1      50.930   8.028  19.150  0.00  0.00    +0.000 A 
ATOM     31  O   UNL     1      51.367   8.594  18.158  0.00  0.00    +0.000 OA
ATOM     32  C   UNL     1      49.676   7.297  19.227  0.00  0.00    +0.000 A 
ATOM     33  H   UNL     1      52.469   8.622  20.332  0.00  0.00    +0.000 HD
ENDBRANCH  21  23
ENDBRANCH  18  19
ENDBRANCH   4  18
TORSDOF 7
ENDMDL
MODEL 5
REMARK VINA RESULT:    -6.698      3.743      5.450
REMARK INTER + INTRA:         -10.826
REMARK INTER:                  -9.490
REMARK INTRA:                  -1.336
REMARK UNBOUND:                -1.387
REMARK  Name = 
REMARK  10 active torsions:
REMARK  status: ('A' for Active; 'I' for Inactive)
REMARK    1  A    between atoms: C_1  and  C_2
REMARK    2  A    between atoms: C_2  and  C_3
REMARK    3  A    between atoms: C_2  and  N_24
REMARK    4  A    between atoms: C_6  and  C_7
REMARK    5  A    between atoms: C_7  and  N_8
REMARK    6  A    between atoms: N_8  and  C_9
REMARK    7  A    between atoms: C_10  and  C_12
REMARK    8  A    between atoms: N_24  and  C_25
REMARK    9  A    between atoms: N_24  and  C_26
REMARK   10  A    between atoms: C_26  and  C_27
REMARK                            x       y       z     vdW  Elec       q    Type
REMARK                         _______ _______ _______ _____ _____    ______ ____
ROOT
ATOM      1  C   UNL     1      47.295   5.787  13.636  0.00  0.00    +0.000 A 
ATOM      2  C   UNL     1      46.824   4.462  13.604  0.00  0.00    +0.000 A 
ATOM      3  C   UNL     1      46.988   3.602  14.694  0.00  0.00    +0.000 A 
ATOM      4  C   UNL     1      47.609   4.048  15.864  0.00  0.00    +0.000 A 
ATOM      5  C   UNL     1      48.101   5.363  15.895  0.00  0.00    +0.000 A 
ATOM      6  C   UNL     1      47.952   6.220  14.797  0.00  0.00    +0.000 A 
ENDROOT
BRANCH   1   8
ATOM      7  C   UNL     1      48.501   7.445  12.122  0.00  0.00    +0.000 C 
ATOM      8  C   UNL     1      47.174   6.719  12.423  0.00  0.00    +0.000 C 
BRANCH   8   9
ATOM      9  N   UNL     1      45.983   7.604  12.529  0.00  0.00    +0.000 NA
ATOM     10  C   UNL     1      46.314   9.032  12.485  0.00  0.00    +0.000 C 
BRANCH   9  11
ATOM     11  C   UNL     1      44.938   7.329  11.528  0.00  0.00    +0.000 C 
BRANCH  11  12
ATOM     12  C   UNL     1      44.314   5.952  11.604  0.00  0.00    +0.000 A 
ATOM     13  C   UNL     1      44.560   5.001  10.604  0.00  0.00    +0.000 A 
ATOM     14  C   UNL     1      44.076   3.698  10.732  0.00  0.00    +0.000 A 
ATOM     15  C   UNL     1      43.342   3.332  11.858  0.00  0.00    +0.000 A 
ATOM     16  C   UNL     1      43.077   4.273  12.851  0.00  0.00    +0.000 A 
ATOM     17  C   UNL     1      43.560   5.577  12.725  0.00  0.00    +0.000 A 
ENDBRANCH  11  12
ENDBRANCH   9  11
ENDBRANCH   8   9
ENDBRANCH   1   8
BRANCH   4  18
ATOM     18  C   UNL     1      47.660   3.174  17.094  0.00  0.00    +0.000 C 
BRANCH  18  19
ATOM     19  N   UNL     1      48.980   2.985  17.700  0.00  0.00    +0.000 N 
ATOM     20  C   UNL     1      49.242   3.718  18.929  0.00  0.00    +0.000 C 
ATOM     21  C   UNL     1      49.950   2.315  16.938  0.00  0.00    +0.000 C 
ATOM     22  O   UNL     1      49.676   1.865  15.828  0.00  0.00    +0.000 OA
BRANCH  21  23
ATOM     23  C   UNL     1      51.307   2.123  17.478  0.00  0.00    +0.000 A 
ATOM     24  C   UNL     1      51.842   0.907  17.870  0.00  0.00    +0.000 A 
ATOM     25  S   UNL     1      53.455   1.007  18.418  0.00  0.00    +0.000 S 
ATOM     26  C   UNL     1      53.548   2.653  18.008  0.00  0.00    +0.000 A 
ATOM     27  N   UNL     1      54.717   3.339  18.131  0.00  0.00    +0.000 NA
ATOM     28  C   UNL     1      54.657   4.562  17.721  0.00  0.00    +0.000 A 
ATOM     29  N   UNL     1      53.527   5.170  17.239  0.00  0.00    +0.000 N 
ATOM     30  C   UNL     1      52.288   4.560  17.238  0.00  0.00    +0.000 A 
ATOM     31  O   UNL     1      51.274   5.219  17.057  0.00  0.00    +0.000 OA
ATOM     32  C   UNL     1      52.333   3.144  17.562  0.00  0.00    +0.000 A 
ATOM     33  H   UNL     1      53.527   6.151  17.007  0.00  0.00    +0.000 HD
ENDBRANCH  21  23
ENDBRANCH  18  19
ENDBRANCH   4  18
TORSDOF 7
ENDMDL
MODEL 6
REMARK VINA RESULT:    -6.564      1.520      2.076
REMARK INTER + INTRA:         -10.637
REMARK INTER:                  -9.403
REMARK INTRA:                  -1.234
REMARK UNBOUND:                -1.387
REMARK  Name = 
REMARK  10 active torsions:
REMARK  status: ('A' for Active; 'I' for Inactive)
REMARK    1  A    between atoms: C_1  and  C_2
REMARK    2  A    between atoms: C_2  and  C_3
REMARK    3  A    between atoms: C_2  and  N_24
REMARK    4  A    between atoms: C_6  and  C_7
REMARK    5  A    between atoms: C_7  and  N_8
REMARK    6  A    between atoms: N_8  and  C_9
REMARK    7  A    between atoms: C_10  and  C_12
REMARK    8  A    between atoms: N_24  and  C_25
REMARK    9  A    between atoms: N_24  and  C_26
REMARK   10  A    between atoms: C_26  and  C_27
REMARK                            x       y       z     vdW  Elec       q    Type
REMARK                         _______ _______ _______ _____ _____    ______ ____
ROOT
ATOM      1  C   UNL     1      46.695   7.143  12.329  0.00  0.00    +0.000 A 
ATOM      2  C   UNL     1      46.443   8.224  13.194  0.00  0.00    +0.000 A 
ATOM      3  C   UNL     1      47.415   8.692  14.083  0.00  0.00    +0.000 A 
ATOM      4  C   UNL     1      48.684   8.107  14.119  0.00  0.00    +0.000 A 
ATOM      5  C   UNL     1      48.936   7.013  13.274  0.00  0.00    +0.000 A 
ATOM      6  C   UNL     1      47.956   6.533  12.396  0.00  0.00    +0.000 A 
ENDROOT
BRANCH   1   8
ATOM      7  C   UNL     1      44.341   7.455  11.407  0.00  0.00    +0.000 C 
ATOM      8  C   UNL     1      45.614   6.585  11.394  0.00  0.00    +0.000 C 
BRANCH   8   9
ATOM      9  N   UNL     1      45.388   5.133  11.624  0.00  0.00    +0.000 NA
ATOM     10  C   UNL     1      44.958   4.821  12.991  0.00  0.00    +0.000 C 
BRANCH   9  11
ATOM     11  C   UNL     1      44.442   4.515  10.678  0.00  0.00    +0.000 C 
BRANCH  11  12
ATOM     12  C   UNL     1      45.077   3.775   9.520  0.00  0.00    +0.000 A 
ATOM     13  C   UNL     1      45.748   4.475   8.508  0.00  0.00    +0.000 A 
ATOM     14  C   UNL     1      46.428   3.787   7.501  0.00  0.00    +0.000 A 
ATOM     15  C   UNL     1      46.443   2.393   7.495  0.00  0.00    +0.000 A 
ATOM     16  C   UNL     1      45.764   1.686   8.486  0.00  0.00    +0.000 A 
ATOM     17  C   UNL     1      45.084   2.373   9.493  0.00  0.00    +0.000 A 
ENDBRANCH  11  12
ENDBRANCH   9  11
ENDBRANCH   8   9
ENDBRANCH   1   8
BRANCH   4  18
ATOM     18  C   UNL     1      49.784   8.697  14.969  0.00  0.00    +0.000 C 
BRANCH  18  19
ATOM     19  N   UNL     1      49.835   8.249  16.363  0.00  0.00    +0.000 N 
ATOM     20  C   UNL     1      49.103   9.051  17.330  0.00  0.00    +0.000 C 
ATOM     21  C   UNL     1      50.758   7.242  16.684  0.00  0.00    +0.000 C 
ATOM     22  O   UNL     1      51.457   6.729  15.814  0.00  0.00    +0.000 OA
BRANCH  21  23
ATOM     23  C   UNL     1      50.881   6.773  18.076  0.00  0.00    +0.000 A 
ATOM     24  C   UNL     1      51.813   7.235  18.991  0.00  0.00    +0.000 A 
ATOM     25  S   UNL     1      51.675   6.523  20.536  0.00  0.00    +0.000 S 
ATOM     26  C   UNL     1      50.270   5.683  20.081  0.00  0.00    +0.000 A 
ATOM     27  N   UNL     1      49.573   4.947  20.989  0.00  0.00    +0.000 NA
ATOM     28  C   UNL     1      48.491   4.419  20.520  0.00  0.00    +0.000 A 
ATOM     29  N   UNL     1      48.068   4.527  19.221  0.00  0.00    +0.000 N 
ATOM     30  C   UNL     1      48.819   5.136  18.235  0.00  0.00    +0.000 A 
ATOM     31  O   UNL     1      48.538   4.975  17.055  0.00  0.00    +0.000 OA
ATOM     32  C   UNL     1      49.974   5.859  18.741  0.00  0.00    +0.000 A 
ATOM     33  H   UNL     1      47.255   4.026  18.898  0.00  0.00    +0.000 HD
ENDBRANCH  21  23
ENDBRANCH  18  19
ENDBRANCH   4  18
TORSDOF 7
ENDMDL
MODEL 7
REMARK VINA RESULT:    -6.503      3.041      4.384
REMARK INTER + INTRA:         -10.552
REMARK INTER:                  -9.417
REMARK INTRA:                  -1.135
REMARK UNBOUND:                -1.387
REMARK  Name = 
REMARK  10 active torsions:
REMARK  status: ('A' for Active; 'I' for Inactive)
REMARK    1  A    between atoms: C_1  and  C_2
REMARK    2  A    between atoms: C_2  and  C_3
REMARK    3  A    between atoms: C_2  and  N_24
REMARK    4  A    between atoms: C_6  and  C_7
REMARK    5  A    between atoms: C_7  and  N_8
REMARK    6  A    between atoms: N_8  and  C_9
REMARK    7  A    between atoms: C_10  and  C_12
REMARK    8  A    between atoms: N_24  and  C_25
REMARK    9  A    between atoms: N_24  and  C_26
REMARK   10  A    between atoms: C_26  and  C_27
REMARK                            x       y       z     vdW  Elec       q    Type
REMARK                         _______ _______ _______ _____ _____    ______ ____
ROOT
ATOM      1  C   UNL     1      47.083   5.216  13.679  0.00  0.00    +0.000 A 
ATOM      2  C   UNL     1      46.896   3.927  14.210  0.00  0.00    +0.000 A 
ATOM      3  C   UNL     1      47.332   3.595  15.496  0.00  0.00    +0.000 A 
ATOM      4  C   UNL     1      47.951   4.553  16.304  0.00  0.00    +0.000 A 
ATOM      5  C   UNL     1      48.161   5.837  15.773  0.00  0.00    +0.000 A 
ATOM      6  C   UNL     1      47.739   6.163  14.477  0.00  0.00    +0.000 A 
ENDROOT
BRANCH   1   8
ATOM      7  C   UNL     1      47.009   7.030  11.891  0.00  0.00    +0.000 C 
ATOM      8  C   UNL     1      46.661   5.570  12.246  0.00  0.00    +0.000 C 
BRANCH   8   9
ATOM      9  N   UNL     1      45.253   5.175  11.977  0.00  0.00    +0.000 NA
ATOM     10  C   UNL     1      44.291   5.789  12.898  0.00  0.00    +0.000 C 
BRANCH   9  11
ATOM     11  C   UNL     1      44.811   5.428  10.594  0.00  0.00    +0.000 C 
BRANCH  11  12
ATOM     12  C   UNL     1      45.189   4.362   9.589  0.00  0.00    +0.000 A 
ATOM     13  C   UNL     1      45.914   4.693   8.435  0.00  0.00    +0.000 A 
ATOM     14  C   UNL     1      46.358   3.694   7.566  0.00  0.00    +0.000 A 
ATOM     15  C   UNL     1      46.081   2.356   7.840  0.00  0.00    +0.000 A 
ATOM     16  C   UNL     1      45.346   2.016   8.974  0.00  0.00    +0.000 A 
ATOM     17  C   UNL     1      44.902   3.013   9.844  0.00  0.00    +0.000 A 
ENDBRANCH  11  12
ENDBRANCH   9  11
ENDBRANCH   8   9
ENDBRANCH   1   8
BRANCH   4  18
ATOM     18  C   UNL     1      48.294   4.247  17.743  0.00  0.00    +0.000 C 
BRANCH  18  19
ATOM     19  N   UNL     1      49.630   4.647  18.189  0.00  0.00    +0.000 N 
ATOM     20  C   UNL     1      49.722   5.896  18.928  0.00  0.00    +0.000 C 
ATOM     21  C   UNL     1      50.723   3.931  17.675  0.00  0.00    +0.000 C 
ATOM     22  O   UNL     1      50.551   2.979  16.919  0.00  0.00    +0.000 OA
BRANCH  21  23
ATOM     23  C   UNL     1      52.095   4.308  18.059  0.00  0.00    +0.000 A 
ATOM     24  C   UNL     1      52.858   3.659  19.017  0.00  0.00    +0.000 A 
ATOM     25  S   UNL     1      54.424   4.309  19.208  0.00  0.00    +0.000 S 
ATOM     26  C   UNL     1      54.194   5.383  17.912  0.00  0.00    +0.000 A 
ATOM     27  N   UNL     1      55.209   6.176  17.473  0.00  0.00    +0.000 NA
ATOM     28  C   UNL     1      54.910   6.892  16.440  0.00  0.00    +0.000 A 
ATOM     29  N   UNL     1      53.682   6.914  15.834  0.00  0.00    +0.000 N 
ATOM     30  C   UNL     1      52.584   6.242  16.335  0.00  0.00    +0.000 A 
ATOM     31  O   UNL     1      51.461   6.502  15.927  0.00  0.00    +0.000 OA
ATOM     32  C   UNL     1      52.904   5.321  17.412  0.00  0.00    +0.000 A 
ATOM     33  H   UNL     1      53.490   7.554  15.078  0.00  0.00    +0.000 HD
ENDBRANCH  21  23
ENDBRANCH  18  19
ENDBRANCH   4  18
TORSDOF 7
ENDMDL
MODEL 8
REMARK VINA RESULT:    -6.237      3.561      4.833
REMARK INTER + INTRA:         -10.176
REMARK INTER:                  -9.067
REMARK INTRA:                  -1.110
REMARK UNBOUND:                -1.387
REMARK  Name = 
REMARK  10 active torsions:
REMARK  status: ('A' for Active; 'I' for Inactive)
REMARK    1  A    between atoms: C_1  and  C_2
REMARK    2  A    between atoms: C_2  and  C_3
REMARK    3  A    between atoms: C_2  and  N_24
REMARK    4  A    between atoms: C_6  and  C_7
REMARK    5  A    between atoms: C_7  and  N_8
REMARK    6  A    between atoms: N_8  and  C_9
REMARK    7  A    between atoms: C_10  and  C_12
REMARK    8  A    between atoms: N_24  and  C_25
REMARK    9  A    between atoms: N_24  and  C_26
REMARK   10  A    between atoms: C_26  and  C_27
REMARK                            x       y       z     vdW  Elec       q    Type
REMARK                         _______ _______ _______ _____ _____    ______ ____
ROOT
ATOM      1  C   UNL     1      47.678   7.875  13.609  0.00  0.00    +0.000 A 
ATOM      2  C   UNL     1      47.857   6.559  14.070  0.00  0.00    +0.000 A 
ATOM      3  C   UNL     1      48.425   6.293  15.320  0.00  0.00    +0.000 A 
ATOM      4  C   UNL     1      48.811   7.340  16.161  0.00  0.00    +0.000 A 
ATOM      5  C   UNL     1      48.654   8.657  15.699  0.00  0.00    +0.000 A 
ATOM      6  C   UNL     1      48.102   8.923  14.439  0.00  0.00    +0.000 A 
ENDROOT
BRANCH   1   8
ATOM      7  C   UNL     1      46.943   9.689  11.976  0.00  0.00    +0.000 C 
ATOM      8  C   UNL     1      47.111   8.174  12.214  0.00  0.00    +0.000 C 
BRANCH   8   9
ATOM      9  N   UNL     1      45.905   7.354  11.926  0.00  0.00    +0.000 NA
ATOM     10  C   UNL     1      44.781   8.138  11.402  0.00  0.00    +0.000 C 
BRANCH   9  11
ATOM     11  C   UNL     1      46.151   6.218  11.020  0.00  0.00    +0.000 C 
BRANCH  11  12
ATOM     12  C   UNL     1      45.189   5.059  11.160  0.00  0.00    +0.000 A 
ATOM     13  C   UNL     1      44.797   4.317  10.036  0.00  0.00    +0.000 A 
ATOM     14  C   UNL     1      43.999   3.181  10.180  0.00  0.00    +0.000 A 
ATOM     15  C   UNL     1      43.583   2.775  11.447  0.00  0.00    +0.000 A 
ATOM     16  C   UNL     1      43.952   3.514  12.570  0.00  0.00    +0.000 A 
ATOM     17  C   UNL     1      44.750   4.650  12.428  0.00  0.00    +0.000 A 
ENDBRANCH  11  12
ENDBRANCH   9  11
ENDBRANCH   8   9
ENDBRANCH   1   8
BRANCH   4  18
ATOM     18  C   UNL     1      49.288   7.066  17.568  0.00  0.00    +0.000 C 
BRANCH  18  19
ATOM     19  N   UNL     1      50.535   6.308  17.692  0.00  0.00    +0.000 N 
ATOM     20  C   UNL     1      51.567   6.590  16.707  0.00  0.00    +0.000 C 
ATOM     21  C   UNL     1      50.546   5.225  18.585  0.00  0.00    +0.000 C 
ATOM     22  O   UNL     1      49.558   4.963  19.266  0.00  0.00    +0.000 OA
BRANCH  21  23
ATOM     23  C   UNL     1      51.760   4.402  18.729  0.00  0.00    +0.000 A 
ATOM     24  C   UNL     1      52.863   4.742  19.496  0.00  0.00    +0.000 A 
ATOM     25  S   UNL     1      54.096   3.562  19.492  0.00  0.00    +0.000 S 
ATOM     26  C   UNL     1      53.138   2.488  18.587  0.00  0.00    +0.000 A 
ATOM     27  N   UNL     1      53.569   1.227  18.316  0.00  0.00    +0.000 NA
ATOM     28  C   UNL     1      52.711   0.502  17.679  0.00  0.00    +0.000 A 
ATOM     29  N   UNL     1      51.482   0.936  17.255  0.00  0.00    +0.000 N 
ATOM     30  C   UNL     1      51.067   2.248  17.375  0.00  0.00    +0.000 A 
ATOM     31  O   UNL     1      50.094   2.648  16.751  0.00  0.00    +0.000 OA
ATOM     32  C   UNL     1      51.939   3.064  18.204  0.00  0.00    +0.000 A 
ATOM     33  H   UNL     1      50.890   0.344  16.693  0.00  0.00    +0.000 HD
ENDBRANCH  21  23
ENDBRANCH  18  19
ENDBRANCH   4  18
TORSDOF 7
ENDMDL
MODEL 9
REMARK VINA RESULT:    -6.175      3.460      8.195
REMARK INTER + INTRA:         -10.089
REMARK INTER:                  -8.120
REMARK INTRA:                  -1.969
REMARK UNBOUND:                -1.387
REMARK  Name = 
REMARK  10 active torsions:
REMARK  status: ('A' for Active; 'I' for Inactive)
REMARK    1  A    between atoms: C_1  and  C_2
REMARK    2  A    between atoms: C_2  and  C_3
REMARK    3  A    between atoms: C_2  and  N_24
REMARK    4  A    between atoms: C_6  and  C_7
REMARK    5  A    between atoms: C_7  and  N_8
REMARK    6  A    between atoms: N_8  and  C_9
REMARK    7  A    between atoms: C_10  and  C_12
REMARK    8  A    between atoms: N_24  and  C_25
REMARK    9  A    between atoms: N_24  and  C_26
REMARK   10  A    between atoms: C_26  and  C_27
REMARK                            x       y       z     vdW  Elec       q    Type
REMARK                         _______ _______ _______ _____ _____    ______ ____
ROOT
ATOM      1  C   UNL     1      50.710   7.826  17.269  0.00  0.00    +0.000 A 
ATOM      2  C   UNL     1      50.379   9.160  16.968  0.00  0.00    +0.000 A 
ATOM      3  C   UNL     1      50.029   9.553  15.673  0.00  0.00    +0.000 A 
ATOM      4  C   UNL     1      49.974   8.615  14.638  0.00  0.00    +0.000 A 
ATOM      5  C   UNL     1      50.323   7.285  14.926  0.00  0.00    +0.000 A 
ATOM      6  C   UNL     1      50.691   6.896  16.220  0.00  0.00    +0.000 A 
ENDROOT
BRANCH   1   8
ATOM      7  C   UNL     1      52.320   8.264  19.194  0.00  0.00    +0.000 C 
ATOM      8  C   UNL     1      51.154   7.399  18.675  0.00  0.00    +0.000 C 
BRANCH   8   9
ATOM      9  N   UNL     1      51.375   5.931  18.756  0.00  0.00    +0.000 NA
ATOM     10  C   UNL     1      52.653   5.569  19.377  0.00  0.00    +0.000 C 
BRANCH   9  11
ATOM     11  C   UNL     1      50.294   5.197  19.438  0.00  0.00    +0.000 C 
BRANCH  11  12
ATOM     12  C   UNL     1      49.478   4.279  18.554  0.00  0.00    +0.000 A 
ATOM     13  C   UNL     1      48.102   4.490  18.383  0.00  0.00    +0.000 A 
ATOM     14  C   UNL     1      47.372   3.713  17.482  0.00  0.00    +0.000 A 
ATOM     15  C   UNL     1      48.009   2.717  16.744  0.00  0.00    +0.000 A 
ATOM     16  C   UNL     1      49.372   2.486  16.918  0.00  0.00    +0.000 A 
ATOM     17  C   UNL     1      50.103   3.262  17.818  0.00  0.00    +0.000 A 
ENDBRANCH  11  12
ENDBRANCH   9  11
ENDBRANCH   8   9
ENDBRANCH   1   8
BRANCH   4  18
ATOM     18  C   UNL     1      49.456   9.000  13.273  0.00  0.00    +0.000 C 
BRANCH  18  19
ATOM     19  N   UNL     1      48.440   8.118  12.694  0.00  0.00    +0.000 N 
ATOM     20  C   UNL     1      48.774   7.485  11.428  0.00  0.00    +0.000 C 
ATOM     21  C   UNL     1      47.161   8.140  13.273  0.00  0.00    +0.000 C 
ATOM     22  O   UNL     1      46.929   8.837  14.256  0.00  0.00    +0.000 OA
BRANCH  21  23
ATOM     23  C   UNL     1      46.087   7.300  12.714  0.00  0.00    +0.000 A 
ATOM     24  C   UNL     1      45.086   7.750  11.867  0.00  0.00    +0.000 A 
ATOM     25  S   UNL     1      44.011   6.526  11.359  0.00  0.00    +0.000 S 
ATOM     26  C   UNL     1      44.932   5.324  12.129  0.00  0.00    +0.000 A 
ATOM     27  N   UNL     1      44.611   4.008  11.998  0.00  0.00    +0.000 NA
ATOM     28  C   UNL     1      45.436   3.203  12.582  0.00  0.00    +0.000 A 
ATOM     29  N   UNL     1      46.525   3.597  13.315  0.00  0.00    +0.000 N 
ATOM     30  C   UNL     1      46.802   4.920  13.598  0.00  0.00    +0.000 A 
ATOM     31  O   UNL     1      47.612   5.211  14.466  0.00  0.00    +0.000 OA
ATOM     32  C   UNL     1      45.982   5.861  12.852  0.00  0.00    +0.000 A 
ATOM     33  H   UNL     1      47.086   2.922  13.811  0.00  0.00    +0.000 HD
ENDBRANCH  21  23
ENDBRANCH  18  19
ENDBRANCH   4  18
TORSDOF 7
ENDMDL
