MODEL 1
REMARK VINA RESULT:    -8.300      0.000      0.000
REMARK INTER + INTRA:         -12.723
REMARK INTER:                 -11.696
REMARK INTRA:                  -1.027
REMARK UNBOUND:                -1.027
REMARK  Name = 
REMARK  9 active torsions:
REMARK  status: ('A' for Active; 'I' for Inactive)
REMARK    1  A    between atoms: C_1  and  C_2
REMARK    2  A    between atoms: C_2  and  C_3
REMARK    3  A    between atoms: C_2  and  C_14
REMARK    4  A    between atoms: C_3  and  O_4
REMARK    5  A    between atoms: O_4  and  C_5
REMARK    6  A    between atoms: C_8  and  C_9
REMARK    7  A    between atoms: C_18  and  O_19
REMARK    8  A    between atoms: O_19  and  C_20
REMARK    9  A    between atoms: N_22  and  C_23
REMARK                            x       y       z     vdW  Elec       q    Type
REMARK                         _______ _______ _______ _____ _____    ______ ____
ROOT
ATOM      1  C   UNL     1      42.499   5.386  12.137  0.00  0.00    +0.000 C 
ATOM      2  C   UNL     1      43.497   4.260  12.419  0.00  0.00    +0.000 C 
ENDROOT
BRANCH   2   3
ATOM      3  C   UNL     1      44.897   4.804  12.672  0.00  0.00    +0.000 A 
ATOM      4  C   UNL     1      45.349   5.951  12.008  0.00  0.00    +0.000 A 
ATOM      5  C   UNL     1      46.603   6.494  12.309  0.00  0.00    +0.000 A 
ATOM      6  C   UNL     1      47.421   5.903  13.278  0.00  0.00    +0.000 A 
ATOM      7  C   UNL     1      46.988   4.755  13.933  0.00  0.00    +0.000 A 
ATOM      8  C   UNL     1      45.739   4.212  13.627  0.00  0.00    +0.000 A 
BRANCH   7   9
ATOM      9  O   UNL     1      47.670   4.107  14.929  0.00  0.00    +0.000 OA
BRANCH   9  10
ATOM     10  C   UNL     1      47.685   4.673  16.259  0.00  0.00    +0.000 C 
ATOM     11  C   UNL     1      49.053   4.851  16.951  0.00  0.00    +0.000 C 
ATOM     12  N   UNL     1      48.587   4.076  18.116  0.00  0.00    +0.000 NA
ATOM     13  C   UNL     1      48.246   4.961  19.227  0.00  0.00    +0.000 C 
ATOM     14  C   UNL     1      47.374   3.666  17.388  0.00  0.00    +0.000 C 
ENDBRANCH   9  10
ENDBRANCH   7   9
ENDBRANCH   2   3
BRANCH   2  15
ATOM     15  C   UNL     1      43.558   3.215  11.287  0.00  0.00    +0.000 C 
BRANCH  15  16
ATOM     16  O   UNL     1      43.531   3.822   9.992  0.00  0.00    +0.000 OA
BRANCH  16  17
ATOM     17  C   UNL     1      44.529   3.392   9.148  0.00  0.00    +0.000 A 
ATOM     18  C   UNL     1      45.264   4.224   8.302  0.00  0.00    +0.000 A 
ATOM     19  C   UNL     1      46.260   3.695   7.478  0.00  0.00    +0.000 A 
ATOM     20  C   UNL     1      46.549   2.328   7.504  0.00  0.00    +0.000 A 
ATOM     21  C   UNL     1      45.822   1.489   8.355  0.00  0.00    +0.000 A 
ATOM     22  C   UNL     1      44.820   2.025   9.180  0.00  0.00    +0.000 A 
BRANCH  20  23
ATOM     23  C   UNL     1      47.618   1.838   6.596  0.00  0.00    +0.000 C 
ATOM     24  N   UNL     1      48.733   2.614   6.450  0.00  0.00    +0.000 N 
ATOM     25  O   UNL     1      47.497   0.797   5.962  0.00  0.00    +0.000 OA
ATOM     26  H   UNL     1      48.771   3.575   6.757  0.00  0.00    +0.000 HD
ATOM     27  H   UNL     1      49.381   2.323   5.729  0.00  0.00    +0.000 HD
ENDBRANCH  20  23
ENDBRANCH  16  17
ENDBRANCH  15  16
ENDBRANCH   2  15
TORSDOF 7
ENDMDL
MODEL 2
REMARK VINA RESULT:    -7.533      1.780      2.221
REMARK INTER + INTRA:         -11.642
REMARK INTER:                 -10.588
REMARK INTRA:                  -1.055
REMARK UNBOUND:                -1.027
REMARK  Name = 
REMARK  9 active torsions:
REMARK  status: ('A' for Active; 'I' for Inactive)
REMARK    1  A    between atoms: C_1  and  C_2
REMARK    2  A    between atoms: C_2  and  C_3
REMARK    3  A    between atoms: C_2  and  C_14
REMARK    4  A    between atoms: C_3  and  O_4
REMARK    5  A    between atoms: O_4  and  C_5
REMARK    6  A    between atoms: C_8  and  C_9
REMARK    7  A    between atoms: C_18  and  O_19
REMARK    8  A    between atoms: O_19  and  C_20
REMARK    9  A    between atoms: N_22  and  C_23
REMARK                            x       y       z     vdW  Elec       q    Type
REMARK                         _______ _______ _______ _____ _____    ______ ____
ROOT
ATOM      1  C   UNL     1      42.966   5.301  12.083  0.00  0.00    +0.000 C 
ATOM      2  C   UNL     1      44.137   4.446  12.574  0.00  0.00    +0.000 C 
ENDROOT
BRANCH   2   3
ATOM      3  C   UNL     1      45.450   5.216  12.526  0.00  0.00    +0.000 A 
ATOM      4  C   UNL     1      45.749   6.052  11.444  0.00  0.00    +0.000 A 
ATOM      5  C   UNL     1      46.917   6.823  11.447  0.00  0.00    +0.000 A 
ATOM      6  C   UNL     1      47.799   6.773  12.531  0.00  0.00    +0.000 A 
ATOM      7  C   UNL     1      47.520   5.935  13.605  0.00  0.00    +0.000 A 
ATOM      8  C   UNL     1      46.357   5.163  13.597  0.00  0.00    +0.000 A 
BRANCH   7   9
ATOM      9  O   UNL     1      48.275   5.826  14.743  0.00  0.00    +0.000 OA
BRANCH   9  10
ATOM     10  C   UNL     1      49.214   6.875  15.070  0.00  0.00    +0.000 C 
ATOM     11  C   UNL     1      50.094   6.690  16.325  0.00  0.00    +0.000 C 
ATOM     12  N   UNL     1      49.635   7.984  16.862  0.00  0.00    +0.000 NA
ATOM     13  C   UNL     1      50.651   9.016  16.670  0.00  0.00    +0.000 C 
ATOM     14  C   UNL     1      48.599   8.076  15.821  0.00  0.00    +0.000 C 
ENDBRANCH   9  10
ENDBRANCH   7   9
ENDBRANCH   2   3
BRANCH   2  15
ATOM     15  C   UNL     1      44.294   3.131  11.783  0.00  0.00    +0.000 C 
BRANCH  15  16
ATOM     16  O   UNL     1      43.708   3.214  10.480  0.00  0.00    +0.000 OA
BRANCH  16  17
ATOM     17  C   UNL     1      44.594   2.999   9.451  0.00  0.00    +0.000 A 
ATOM     18  C   UNL     1      45.150   1.758   9.132  0.00  0.00    +0.000 A 
ATOM     19  C   UNL     1      46.045   1.635   8.066  0.00  0.00    +0.000 A 
ATOM     20  C   UNL     1      46.381   2.749   7.292  0.00  0.00    +0.000 A 
ATOM     21  C   UNL     1      45.822   3.993   7.601  0.00  0.00    +0.000 A 
ATOM     22  C   UNL     1      44.925   4.113   8.674  0.00  0.00    +0.000 A 
BRANCH  20  23
ATOM     23  C   UNL     1      47.343   2.543   6.179  0.00  0.00    +0.000 C 
ATOM     24  N   UNL     1      48.676   2.589   6.475  0.00  0.00    +0.000 N 
ATOM     25  O   UNL     1      46.967   2.377   5.025  0.00  0.00    +0.000 OA
ATOM     26  H   UNL     1      49.028   2.954   7.347  0.00  0.00    +0.000 HD
ATOM     27  H   UNL     1      49.304   2.576   5.681  0.00  0.00    +0.000 HD
ENDBRANCH  20  23
ENDBRANCH  16  17
ENDBRANCH  15  16
ENDBRANCH   2  15
TORSDOF 7
ENDMDL
MODEL 3
REMARK VINA RESULT:    -7.498      2.585      3.798
REMARK INTER + INTRA:         -11.593
REMARK INTER:                 -10.662
REMARK INTRA:                  -0.930
REMARK UNBOUND:                -1.027
REMARK  Name = 
REMARK  9 active torsions:
REMARK  status: ('A' for Active; 'I' for Inactive)
REMARK    1  A    between atoms: C_1  and  C_2
REMARK    2  A    between atoms: C_2  and  C_3
REMARK    3  A    between atoms: C_2  and  C_14
REMARK    4  A    between atoms: C_3  and  O_4
REMARK    5  A    between atoms: O_4  and  C_5
REMARK    6  A    between atoms: C_8  and  C_9
REMARK    7  A    between atoms: C_18  and  O_19
REMARK    8  A    between atoms: O_19  and  C_20
REMARK    9  A    between atoms: N_22  and  C_23
REMARK                            x       y       z     vdW  Elec       q    Type
REMARK                         _______ _______ _______ _____ _____    ______ ____
ROOT
ATOM      1  C   UNL     1      42.570   5.518  11.849  0.00  0.00    +0.000 C 
ATOM      2  C   UNL     1      43.491   4.442  12.431  0.00  0.00    +0.000 C 
ENDROOT
BRANCH   2   3
ATOM      3  C   UNL     1      44.856   5.011  12.795  0.00  0.00    +0.000 A 
ATOM      4  C   UNL     1      45.833   4.203  13.388  0.00  0.00    +0.000 A 
ATOM      5  C   UNL     1      47.112   4.709  13.640  0.00  0.00    +0.000 A 
ATOM      6  C   UNL     1      47.436   6.027  13.301  0.00  0.00    +0.000 A 
ATOM      7  C   UNL     1      46.469   6.844  12.725  0.00  0.00    +0.000 A 
ATOM      8  C   UNL     1      45.192   6.337  12.479  0.00  0.00    +0.000 A 
BRANCH   7   9
ATOM      9  O   UNL     1      46.668   8.133  12.306  0.00  0.00    +0.000 OA
BRANCH   9  10
ATOM     10  C   UNL     1      47.985   8.718  12.421  0.00  0.00    +0.000 C 
ATOM     11  C   UNL     1      48.291   9.561  13.677  0.00  0.00    +0.000 C 
ATOM     12  N   UNL     1      48.695  10.703  12.837  0.00  0.00    +0.000 NA
ATOM     13  C   UNL     1      50.150  10.814  12.774  0.00  0.00    +0.000 C 
ATOM     14  C   UNL     1      48.174  10.033  11.634  0.00  0.00    +0.000 C 
ENDBRANCH   9  10
ENDBRANCH   7   9
ENDBRANCH   2   3
BRANCH   2  15
ATOM     15  C   UNL     1      43.682   3.239  11.483  0.00  0.00    +0.000 C 
BRANCH  15  16
ATOM     16  O   UNL     1      43.503   3.602  10.111  0.00  0.00    +0.000 OA
BRANCH  16  17
ATOM     17  C   UNL     1      44.495   3.144   9.275  0.00  0.00    +0.000 A 
ATOM     18  C   UNL     1      44.920   1.816   9.205  0.00  0.00    +0.000 A 
ATOM     19  C   UNL     1      45.938   1.443   8.324  0.00  0.00    +0.000 A 
ATOM     20  C   UNL     1      46.531   2.391   7.486  0.00  0.00    +0.000 A 
ATOM     21  C   UNL     1      46.104   3.722   7.544  0.00  0.00    +0.000 A 
ATOM     22  C   UNL     1      45.083   4.092   8.433  0.00  0.00    +0.000 A 
BRANCH  20  23
ATOM     23  C   UNL     1      47.610   1.921   6.579  0.00  0.00    +0.000 C 
ATOM     24  N   UNL     1      48.678   2.750   6.379  0.00  0.00    +0.000 N 
ATOM     25  O   UNL     1      47.538   0.848   5.993  0.00  0.00    +0.000 OA
ATOM     26  H   UNL     1      48.667   3.724   6.644  0.00  0.00    +0.000 HD
ATOM     27  H   UNL     1      49.329   2.464   5.659  0.00  0.00    +0.000 HD
ENDBRANCH  20  23
ENDBRANCH  16  17
ENDBRANCH  15  16
ENDBRANCH   2  15
TORSDOF 7
ENDMDL
MODEL 4
REMARK VINA RESULT:    -7.228      3.791      5.813
REMARK INTER + INTRA:         -11.213
REMARK INTER:                 -10.357
REMARK INTRA:                  -0.855
REMARK UNBOUND:                -1.027
REMARK  Name = 
REMARK  9 active torsions:
REMARK  status: ('A' for Active; 'I' for Inactive)
REMARK    1  A    between atoms: C_1  and  C_2
REMARK    2  A    between atoms: C_2  and  C_3
REMARK    3  A    between atoms: C_2  and  C_14
REMARK    4  A    between atoms: C_3  and  O_4
REMARK    5  A    between atoms: O_4  and  C_5
REMARK    6  A    between atoms: C_8  and  C_9
REMARK    7  A    between atoms: C_18  and  O_19
REMARK    8  A    between atoms: O_19  and  C_20
REMARK    9  A    between atoms: N_22  and  C_23
REMARK                            x       y       z     vdW  Elec       q    Type
REMARK                         _______ _______ _______ _____ _____    ______ ____
ROOT
ATOM      1  C   UNL     1      45.866   4.070  12.917  0.00  0.00    +0.000 C 
ATOM      2  C   UNL     1      45.301   4.911  11.770  0.00  0.00    +0.000 C 
ENDROOT
BRANCH   2   3
ATOM      3  C   UNL     1      45.394   6.401  12.071  0.00  0.00    +0.000 A 
ATOM      4  C   UNL     1      46.269   6.879  13.053  0.00  0.00    +0.000 A 
ATOM      5  C   UNL     1      46.413   8.255  13.263  0.00  0.00    +0.000 A 
ATOM      6  C   UNL     1      45.688   9.172  12.496  0.00  0.00    +0.000 A 
ATOM      7  C   UNL     1      44.804   8.708  11.528  0.00  0.00    +0.000 A 
ATOM      8  C   UNL     1      44.659   7.335  11.323  0.00  0.00    +0.000 A 
BRANCH   7   9
ATOM      9  O   UNL     1      44.071   9.498  10.681  0.00  0.00    +0.000 OA
BRANCH   9  10
ATOM     10  C   UNL     1      43.127  10.441  11.235  0.00  0.00    +0.000 C 
ATOM     11  C   UNL     1      41.643  10.295  10.836  0.00  0.00    +0.000 C 
ATOM     12  N   UNL     1      41.607  11.696  10.378  0.00  0.00    +0.000 NA
ATOM     13  C   UNL     1      40.948  12.548  11.364  0.00  0.00    +0.000 C 
ATOM     14  C   UNL     1      43.071  11.799  10.500  0.00  0.00    +0.000 C 
ENDBRANCH   9  10
ENDBRANCH   7   9
ENDBRANCH   2   3
BRANCH   2  15
ATOM     15  C   UNL     1      43.839   4.555  11.429  0.00  0.00    +0.000 C 
BRANCH  15  16
ATOM     16  O   UNL     1      43.606   4.533  10.017  0.00  0.00    +0.000 OA
BRANCH  16  17
ATOM     17  C   UNL     1      44.529   3.801   9.307  0.00  0.00    +0.000 A 
ATOM     18  C   UNL     1      44.655   2.412   9.371  0.00  0.00    +0.000 A 
ATOM     19  C   UNL     1      45.625   1.753   8.612  0.00  0.00    +0.000 A 
ATOM     20  C   UNL     1      46.469   2.474   7.763  0.00  0.00    +0.000 A 
ATOM     21  C   UNL     1      46.343   3.864   7.687  0.00  0.00    +0.000 A 
ATOM     22  C   UNL     1      45.368   4.523   8.454  0.00  0.00    +0.000 A 
BRANCH  20  23
ATOM     23  C   UNL     1      47.480   1.705   6.991  0.00  0.00    +0.000 C 
ATOM     24  N   UNL     1      48.464   2.408   6.355  0.00  0.00    +0.000 N 
ATOM     25  O   UNL     1      47.419   0.486   6.886  0.00  0.00    +0.000 OA
ATOM     26  H   UNL     1      48.416   3.407   6.216  0.00  0.00    +0.000 HD
ATOM     27  H   UNL     1      49.056   1.873   5.733  0.00  0.00    +0.000 HD
ENDBRANCH  20  23
ENDBRANCH  16  17
ENDBRANCH  15  16
ENDBRANCH   2  15
TORSDOF 7
ENDMDL
MODEL 5
REMARK VINA RESULT:    -6.871      2.908      4.166
REMARK INTER + INTRA:         -10.710
REMARK INTER:                  -9.938
REMARK INTRA:                  -0.772
REMARK UNBOUND:                -1.027
REMARK  Name = 
REMARK  9 active torsions:
REMARK  status: ('A' for Active; 'I' for Inactive)
REMARK    1  A    between atoms: C_1  and  C_2
REMARK    2  A    between atoms: C_2  and  C_3
REMARK    3  A    between atoms: C_2  and  C_14
REMARK    4  A    between atoms: C_3  and  O_4
REMARK    5  A    between atoms: O_4  and  C_5
REMARK    6  A    between atoms: C_8  and  C_9
REMARK    7  A    between atoms: C_18  and  O_19
REMARK    8  A    between atoms: O_19  and  C_20
REMARK    9  A    between atoms: N_22  and  C_23
REMARK                            x       y       z     vdW  Elec       q    Type
REMARK                         _______ _______ _______ _____ _____    ______ ____
ROOT
ATOM      1  C   UNL     1      46.118   3.841  13.024  0.00  0.00    +0.000 C 
ATOM      2  C   UNL     1      45.514   4.423  11.743  0.00  0.00    +0.000 C 
ENDROOT
BRANCH   2   3
ATOM      3  C   UNL     1      45.535   5.945  11.756  0.00  0.00    +0.000 A 
ATOM      4  C   UNL     1      44.366   6.679  11.523  0.00  0.00    +0.000 A 
ATOM      5  C   UNL     1      44.375   8.074  11.623  0.00  0.00    +0.000 A 
ATOM      6  C   UNL     1      45.548   8.757  11.958  0.00  0.00    +0.000 A 
ATOM      7  C   UNL     1      46.720   8.040  12.177  0.00  0.00    +0.000 A 
ATOM      8  C   UNL     1      46.710   6.648  12.073  0.00  0.00    +0.000 A 
BRANCH   7   9
ATOM      9  O   UNL     1      47.921   8.580  12.554  0.00  0.00    +0.000 OA
BRANCH   9  10
ATOM     10  C   UNL     1      49.050   8.490  11.657  0.00  0.00    +0.000 C 
ATOM     11  C   UNL     1      50.265   7.651  12.108  0.00  0.00    +0.000 C 
ATOM     12  N   UNL     1      51.163   8.801  11.894  0.00  0.00    +0.000 NA
ATOM     13  C   UNL     1      51.906   8.655  10.645  0.00  0.00    +0.000 C 
ATOM     14  C   UNL     1      50.011   9.698  11.710  0.00  0.00    +0.000 C 
ENDBRANCH   9  10
ENDBRANCH   7   9
ENDBRANCH   2   3
BRANCH   2  15
ATOM     15  C   UNL     1      44.072   3.940  11.487  0.00  0.00    +0.000 C 
BRANCH  15  16
ATOM     16  O   UNL     1      43.722   4.003  10.101  0.00  0.00    +0.000 OA
BRANCH  16  17
ATOM     17  C   UNL     1      44.642   3.418   9.262  0.00  0.00    +0.000 A 
ATOM     18  C   UNL     1      44.987   2.065   9.285  0.00  0.00    +0.000 A 
ATOM     19  C   UNL     1      45.935   1.560   8.393  0.00  0.00    +0.000 A 
ATOM     20  C   UNL     1      46.537   2.398   7.451  0.00  0.00    +0.000 A 
ATOM     21  C   UNL     1      46.191   3.752   7.416  0.00  0.00    +0.000 A 
ATOM     22  C   UNL     1      45.239   4.256   8.316  0.00  0.00    +0.000 A 
BRANCH  20  23
ATOM     23  C   UNL     1      47.540   1.790   6.539  0.00  0.00    +0.000 C 
ATOM     24  N   UNL     1      48.720   2.456   6.356  0.00  0.00    +0.000 N 
ATOM     25  O   UNL     1      47.313   0.750   5.933  0.00  0.00    +0.000 OA
ATOM     26  H   UNL     1      48.851   3.416   6.639  0.00  0.00    +0.000 HD
ATOM     27  H   UNL     1      49.326   2.089   5.633  0.00  0.00    +0.000 HD
ENDBRANCH  20  23
ENDBRANCH  16  17
ENDBRANCH  15  16
ENDBRANCH   2  15
TORSDOF 7
ENDMDL
MODEL 6
REMARK VINA RESULT:    -6.582      1.779      8.495
REMARK INTER + INTRA:         -10.302
REMARK INTER:                  -9.526
REMARK INTRA:                  -0.776
REMARK UNBOUND:                -1.027
REMARK  Name = 
REMARK  9 active torsions:
REMARK  status: ('A' for Active; 'I' for Inactive)
REMARK    1  A    between atoms: C_1  and  C_2
REMARK    2  A    between atoms: C_2  and  C_3
REMARK    3  A    between atoms: C_2  and  C_14
REMARK    4  A    between atoms: C_3  and  O_4
REMARK    5  A    between atoms: O_4  and  C_5
REMARK    6  A    between atoms: C_8  and  C_9
REMARK    7  A    between atoms: C_18  and  O_19
REMARK    8  A    between atoms: O_19  and  C_20
REMARK    9  A    between atoms: N_22  and  C_23
REMARK                            x       y       z     vdW  Elec       q    Type
REMARK                         _______ _______ _______ _____ _____    ______ ____
ROOT
ATOM      1  C   UNL     1      44.307   8.014  11.352  0.00  0.00    +0.000 C 
ATOM      2  C   UNL     1      45.496   7.054  11.439  0.00  0.00    +0.000 C 
ENDROOT
BRANCH   2   3
ATOM      3  C   UNL     1      45.221   5.755  10.694  0.00  0.00    +0.000 A 
ATOM      4  C   UNL     1      44.262   4.849  11.165  0.00  0.00    +0.000 A 
ATOM      5  C   UNL     1      43.953   3.700  10.430  0.00  0.00    +0.000 A 
ATOM      6  C   UNL     1      44.593   3.439   9.214  0.00  0.00    +0.000 A 
ATOM      7  C   UNL     1      45.558   4.324   8.743  0.00  0.00    +0.000 A 
ATOM      8  C   UNL     1      45.868   5.467   9.481  0.00  0.00    +0.000 A 
BRANCH   7   9
ATOM      9  O   UNL     1      46.223   4.210   7.551  0.00  0.00    +0.000 OA
BRANCH   9  10
ATOM     10  C   UNL     1      46.256   2.930   6.880  0.00  0.00    +0.000 C 
ATOM     11  C   UNL     1      47.359   1.930   7.286  0.00  0.00    +0.000 C 
ATOM     12  N   UNL     1      47.800   1.815   5.884  0.00  0.00    +0.000 NA
ATOM     13  C   UNL     1      47.314   0.575   5.286  0.00  0.00    +0.000 C 
ATOM     14  C   UNL     1      46.943   2.948   5.497  0.00  0.00    +0.000 C 
ENDBRANCH   9  10
ENDBRANCH   7   9
ENDBRANCH   2   3
BRANCH   2  15
ATOM     15  C   UNL     1      45.899   6.727  12.892  0.00  0.00    +0.000 C 
BRANCH  15  16
ATOM     16  O   UNL     1      47.229   6.205  12.977  0.00  0.00    +0.000 OA
BRANCH  16  17
ATOM     17  C   UNL     1      47.573   5.748  14.227  0.00  0.00    +0.000 A 
ATOM     18  C   UNL     1      48.430   6.415  15.106  0.00  0.00    +0.000 A 
ATOM     19  C   UNL     1      48.724   5.871  16.359  0.00  0.00    +0.000 A 
ATOM     20  C   UNL     1      48.148   4.662  16.758  0.00  0.00    +0.000 A 
ATOM     21  C   UNL     1      47.282   3.993  15.887  0.00  0.00    +0.000 A 
ATOM     22  C   UNL     1      46.992   4.542  14.628  0.00  0.00    +0.000 A 
BRANCH  20  23
ATOM     23  C   UNL     1      48.511   4.144  18.102  0.00  0.00    +0.000 C 
ATOM     24  N   UNL     1      47.746   3.140  18.624  0.00  0.00    +0.000 N 
ATOM     25  O   UNL     1      49.437   4.621  18.748  0.00  0.00    +0.000 OA
ATOM     26  H   UNL     1      46.847   2.886  18.242  0.00  0.00    +0.000 HD
ATOM     27  H   UNL     1      47.934   2.899  19.590  0.00  0.00    +0.000 HD
ENDBRANCH  20  23
ENDBRANCH  16  17
ENDBRANCH  15  16
ENDBRANCH   2  15
TORSDOF 7
ENDMDL
MODEL 7
REMARK VINA RESULT:    -6.531      2.934      4.204
REMARK INTER + INTRA:         -10.231
REMARK INTER:                  -9.506
REMARK INTRA:                  -0.724
REMARK UNBOUND:                -1.027
REMARK  Name = 
REMARK  9 active torsions:
REMARK  status: ('A' for Active; 'I' for Inactive)
REMARK    1  A    between atoms: C_1  and  C_2
REMARK    2  A    between atoms: C_2  and  C_3
REMARK    3  A    between atoms: C_2  and  C_14
REMARK    4  A    between atoms: C_3  and  O_4
REMARK    5  A    between atoms: O_4  and  C_5
REMARK    6  A    between atoms: C_8  and  C_9
REMARK    7  A    between atoms: C_18  and  O_19
REMARK    8  A    between atoms: O_19  and  C_20
REMARK    9  A    between atoms: N_22  and  C_23
REMARK                            x       y       z     vdW  Elec       q    Type
REMARK                         _______ _______ _______ _____ _____    ______ ____
ROOT
ATOM      1  C   UNL     1      44.342   1.917   9.149  0.00  0.00    +0.000 C 
ATOM      2  C   UNL     1      45.293   3.080   9.445  0.00  0.00    +0.000 C 
ENDROOT
BRANCH   2   3
ATOM      3  C   UNL     1      44.728   4.005  10.515  0.00  0.00    +0.000 A 
ATOM      4  C   UNL     1      43.717   3.567  11.378  0.00  0.00    +0.000 A 
ATOM      5  C   UNL     1      43.265   4.391  12.414  0.00  0.00    +0.000 A 
ATOM      6  C   UNL     1      43.815   5.663  12.603  0.00  0.00    +0.000 A 
ATOM      7  C   UNL     1      44.809   6.115  11.742  0.00  0.00    +0.000 A 
ATOM      8  C   UNL     1      45.256   5.292  10.707  0.00  0.00    +0.000 A 
BRANCH   7   9
ATOM      9  O   UNL     1      45.460   7.317  11.845  0.00  0.00    +0.000 OA
BRANCH   9  10
ATOM     10  C   UNL     1      46.855   7.334  12.220  0.00  0.00    +0.000 C 
ATOM     11  C   UNL     1      47.366   6.212  13.149  0.00  0.00    +0.000 C 
ATOM     12  N   UNL     1      47.887   7.210  14.102  0.00  0.00    +0.000 NA
ATOM     13  C   UNL     1      49.335   7.348  13.969  0.00  0.00    +0.000 C 
ATOM     14  C   UNL     1      47.195   8.293  13.383  0.00  0.00    +0.000 C 
ENDBRANCH   9  10
ENDBRANCH   7   9
ENDBRANCH   2   3
BRANCH   2  15
ATOM     15  C   UNL     1      45.635   3.909   8.190  0.00  0.00    +0.000 C 
BRANCH  15  16
ATOM     16  O   UNL     1      46.953   3.634   7.706  0.00  0.00    +0.000 OA
BRANCH  16  17
ATOM     17  C   UNL     1      47.005   2.648   6.749  0.00  0.00    +0.000 A 
ATOM     18  C   UNL     1      47.308   1.309   7.006  0.00  0.00    +0.000 A 
ATOM     19  C   UNL     1      47.338   0.376   5.967  0.00  0.00    +0.000 A 
ATOM     20  C   UNL     1      47.046   0.767   4.657  0.00  0.00    +0.000 A 
ATOM     21  C   UNL     1      46.733   2.104   4.393  0.00  0.00    +0.000 A 
ATOM     22  C   UNL     1      46.706   3.038   5.440  0.00  0.00    +0.000 A 
BRANCH  20  23
ATOM     23  C   UNL     1      47.102  -0.280   3.604  0.00  0.00    +0.000 C 
ATOM     24  N   UNL     1      46.619  -1.520   3.913  0.00  0.00    +0.000 N 
ATOM     25  O   UNL     1      47.601  -0.062   2.506  0.00  0.00    +0.000 OA
ATOM     26  H   UNL     1      46.424  -1.807   4.860  0.00  0.00    +0.000 HD
ATOM     27  H   UNL     1      46.790  -2.243   3.225  0.00  0.00    +0.000 HD
ENDBRANCH  20  23
ENDBRANCH  16  17
ENDBRANCH  15  16
ENDBRANCH   2  15
TORSDOF 7
ENDMDL
MODEL 8
REMARK VINA RESULT:    -6.248      1.874      9.083
REMARK INTER + INTRA:          -9.832
REMARK INTER:                  -9.361
REMARK INTRA:                  -0.471
REMARK UNBOUND:                -1.027
REMARK  Name = 
REMARK  9 active torsions:
REMARK  status: ('A' for Active; 'I' for Inactive)
REMARK    1  A    between atoms: C_1  and  C_2
REMARK    2  A    between atoms: C_2  and  C_3
REMARK    3  A    between atoms: C_2  and  C_14
REMARK    4  A    between atoms: C_3  and  O_4
REMARK    5  A    between atoms: O_4  and  C_5
REMARK    6  A    between atoms: C_8  and  C_9
REMARK    7  A    between atoms: C_18  and  O_19
REMARK    8  A    between atoms: O_19  and  C_20
REMARK    9  A    between atoms: N_22  and  C_23
REMARK                            x       y       z     vdW  Elec       q    Type
REMARK                         _______ _______ _______ _____ _____    ______ ____
ROOT
ATOM      1  C   UNL     1      47.593   6.081  13.206  0.00  0.00    +0.000 C 
ATOM      2  C   UNL     1      46.863   4.741  13.328  0.00  0.00    +0.000 C 
ENDROOT
BRANCH   2   3
ATOM      3  C   UNL     1      45.562   4.740  12.537  0.00  0.00    +0.000 A 
ATOM      4  C   UNL     1      44.701   5.843  12.573  0.00  0.00    +0.000 A 
ATOM      5  C   UNL     1      43.551   5.871  11.777  0.00  0.00    +0.000 A 
ATOM      6  C   UNL     1      43.246   4.799  10.931  0.00  0.00    +0.000 A 
ATOM      7  C   UNL     1      44.085   3.691  10.898  0.00  0.00    +0.000 A 
ATOM      8  C   UNL     1      45.229   3.664  11.697  0.00  0.00    +0.000 A 
BRANCH   7   9
ATOM      9  O   UNL     1      43.925   2.600  10.084  0.00  0.00    +0.000 OA
BRANCH   9  10
ATOM     10  C   UNL     1      44.466   2.633   8.745  0.00  0.00    +0.000 C 
ATOM     11  C   UNL     1      45.809   1.914   8.491  0.00  0.00    +0.000 C 
ATOM     12  N   UNL     1      46.388   3.149   7.932  0.00  0.00    +0.000 NA
ATOM     13  C   UNL     1      46.425   3.092   6.473  0.00  0.00    +0.000 C 
ATOM     14  C   UNL     1      45.227   3.930   8.391  0.00  0.00    +0.000 C 
ENDBRANCH   9  10
ENDBRANCH   7   9
ENDBRANCH   2   3
BRANCH   2  15
ATOM     15  C   UNL     1      46.565   4.351  14.790  0.00  0.00    +0.000 C 
BRANCH  15  16
ATOM     16  O   UNL     1      47.569   3.488  15.332  0.00  0.00    +0.000 OA
BRANCH  16  17
ATOM     17  C   UNL     1      47.976   3.827  16.602  0.00  0.00    +0.000 A 
ATOM     18  C   UNL     1      48.178   2.914  17.639  0.00  0.00    +0.000 A 
ATOM     19  C   UNL     1      48.592   3.352  18.899  0.00  0.00    +0.000 A 
ATOM     20  C   UNL     1      48.828   4.709  19.134  0.00  0.00    +0.000 A 
ATOM     21  C   UNL     1      48.636   5.629  18.098  0.00  0.00    +0.000 A 
ATOM     22  C   UNL     1      48.218   5.184  16.833  0.00  0.00    +0.000 A 
BRANCH  20  23
ATOM     23  C   UNL     1      49.261   5.101  20.500  0.00  0.00    +0.000 C 
ATOM     24  N   UNL     1      50.375   4.497  21.011  0.00  0.00    +0.000 N 
ATOM     25  O   UNL     1      48.625   5.905  21.171  0.00  0.00    +0.000 OA
ATOM     26  H   UNL     1      50.783   3.671  20.600  0.00  0.00    +0.000 HD
ATOM     27  H   UNL     1      50.569   4.684  21.987  0.00  0.00    +0.000 HD
ENDBRANCH  20  23
ENDBRANCH  16  17
ENDBRANCH  15  16
ENDBRANCH   2  15
TORSDOF 7
ENDMDL
MODEL 9
REMARK VINA RESULT:    -6.187      3.629      7.762
REMARK INTER + INTRA:          -9.746
REMARK INTER:                  -8.789
REMARK INTRA:                  -0.957
REMARK UNBOUND:                -1.027
REMARK  Name = 
REMARK  9 active torsions:
REMARK  status: ('A' for Active; 'I' for Inactive)
REMARK    1  A    between atoms: C_1  and  C_2
REMARK    2  A    between atoms: C_2  and  C_3
REMARK    3  A    between atoms: C_2  and  C_14
REMARK    4  A    between atoms: C_3  and  O_4
REMARK    5  A    between atoms: O_4  and  C_5
REMARK    6  A    between atoms: C_8  and  C_9
REMARK    7  A    between atoms: C_18  and  O_19
REMARK    8  A    between atoms: O_19  and  C_20
REMARK    9  A    between atoms: N_22  and  C_23
REMARK                            x       y       z     vdW  Elec       q    Type
REMARK                         _______ _______ _______ _____ _____    ______ ____
ROOT
ATOM      1  C   UNL     1      47.089   3.538  13.693  0.00  0.00    +0.000 C 
ATOM      2  C   UNL     1      46.132   4.721  13.871  0.00  0.00    +0.000 C 
ENDROOT
BRANCH   2   3
ATOM      3  C   UNL     1      44.939   4.620  12.931  0.00  0.00    +0.000 A 
ATOM      4  C   UNL     1      43.790   5.389  13.149  0.00  0.00    +0.000 A 
ATOM      5  C   UNL     1      42.732   5.356  12.234  0.00  0.00    +0.000 A 
ATOM      6  C   UNL     1      42.807   4.557  11.089  0.00  0.00    +0.000 A 
ATOM      7  C   UNL     1      43.937   3.777  10.869  0.00  0.00    +0.000 A 
ATOM      8  C   UNL     1      44.989   3.808  11.786  0.00  0.00    +0.000 A 
BRANCH   7   9
ATOM      9  O   UNL     1      44.154   2.989   9.770  0.00  0.00    +0.000 OA
BRANCH   9  10
ATOM     10  C   UNL     1      45.454   3.003   9.137  0.00  0.00    +0.000 C 
ATOM     11  C   UNL     1      45.568   3.648   7.739  0.00  0.00    +0.000 C 
ATOM     12  N   UNL     1      46.165   2.414   7.196  0.00  0.00    +0.000 NA
ATOM     13  C   UNL     1      47.611   2.557   7.050  0.00  0.00    +0.000 C 
ATOM     14  C   UNL     1      45.838   1.683   8.431  0.00  0.00    +0.000 C 
ENDBRANCH   9  10
ENDBRANCH   7   9
ENDBRANCH   2   3
BRANCH   2  15
ATOM     15  C   UNL     1      46.821   6.086  13.668  0.00  0.00    +0.000 C 
BRANCH  15  16
ATOM     16  O   UNL     1      46.794   6.503  12.299  0.00  0.00    +0.000 OA
BRANCH  16  17
ATOM     17  C   UNL     1      46.511   7.837  12.125  0.00  0.00    +0.000 A 
ATOM     18  C   UNL     1      47.452   8.865  12.212  0.00  0.00    +0.000 A 
ATOM     19  C   UNL     1      47.070  10.195  12.020  0.00  0.00    +0.000 A 
ATOM     20  C   UNL     1      45.744  10.513  11.718  0.00  0.00    +0.000 A 
ATOM     21  C   UNL     1      44.797   9.489  11.619  0.00  0.00    +0.000 A 
ATOM     22  C   UNL     1      45.185   8.154  11.816  0.00  0.00    +0.000 A 
BRANCH  20  23
ATOM     23  C   UNL     1      45.411  11.949  11.532  0.00  0.00    +0.000 C 
ATOM     24  N   UNL     1      46.392  12.772  11.055  0.00  0.00    +0.000 N 
ATOM     25  O   UNL     1      44.312  12.400  11.832  0.00  0.00    +0.000 OA
ATOM     26  H   UNL     1      47.363  12.500  11.023  0.00  0.00    +0.000 HD
ATOM     27  H   UNL     1      46.179  13.762  11.063  0.00  0.00    +0.000 HD
ENDBRANCH  20  23
ENDBRANCH  16  17
ENDBRANCH  15  16
ENDBRANCH   2  15
TORSDOF 7
ENDMDL
