MODEL 1
REMARK VINA RESULT:    -7.271      0.000      0.000
REMARK INTER + INTRA:         -10.312
REMARK INTER:                  -9.396
REMARK INTRA:                  -0.916
REMARK UNBOUND:                -0.916
REMARK  Name = 
REMARK  5 active torsions:
REMARK  status: ('A' for Active; 'I' for Inactive)
REMARK    1  A    between atoms: C_2  and  C_3
REMARK    2  A    between atoms: C_8  and  N_9
REMARK    3  A    between atoms: N_9  and  C_10
REMARK    4  A    between atoms: C_10  and  C_11
REMARK    5  A    between atoms: C_16  and  C_17
REMARK                            x       y       z     vdW  Elec       q    Type
REMARK                         _______ _______ _______ _____ _____    ______ ____
ROOT
ATOM      1  C   UNL     1      45.318   5.719  11.833  0.00  0.00    +0.000 A 
ATOM      2  C   UNL     1      45.498   4.663  12.736  0.00  0.00    +0.000 A 
ATOM      3  C   UNL     1      46.687   4.544  13.435  0.00  0.00    +0.000 A 
ATOM      4  F   UNL     1      46.867   3.503  14.261  0.00  0.00    +0.000 F 
ATOM      5  C   UNL     1      47.707   5.469  13.282  0.00  0.00    +0.000 A 
ATOM      6  C   UNL     1      47.566   6.557  12.415  0.00  0.00    +0.000 A 
ATOM      7  C   UNL     1      46.362   6.653  11.699  0.00  0.00    +0.000 A 
ENDROOT
BRANCH   6   8
ATOM      8  C   UNL     1      48.642   7.613  12.217  0.00  0.00    +0.000 C 
ATOM      9  C   UNL     1      49.488   7.876  13.470  0.00  0.00    +0.000 C 
ATOM     10  C   UNL     1      48.808   8.793  14.486  0.00  0.00    +0.000 C 
ATOM     11  N   UNL     1      48.304  10.033  13.898  0.00  0.00    +0.000 NA
ATOM     12  C   UNL     1      47.461   9.835  12.718  0.00  0.00    +0.000 C 
ATOM     13  C   UNL     1      48.105   8.941  11.659  0.00  0.00    +0.000 C 
ATOM     14  H   UNL     1      49.097  10.618  13.640  0.00  0.00    +0.000 HD
ENDBRANCH   6   8
BRANCH   1  15
ATOM     15  C   UNL     1      44.064   5.850  11.001  0.00  0.00    +0.000 C 
ATOM     16  C   UNL     1      42.702   5.609  11.672  0.00  0.00    +0.000 C 
ATOM     17  C   UNL     1      43.154   6.999  11.356  0.00  0.00    +0.000 C 
BRANCH  15  18
ATOM     18  N   UNL     1      44.180   5.274   9.663  0.00  0.00    +0.000 N 
ATOM     19  H   UNL     1      43.509   5.573   8.953  0.00  0.00    +0.000 HD
BRANCH  18  25
ATOM     20  C   UNL     1      44.698   2.810   9.572  0.00  0.00    +0.000 A 
ATOM     21  C   UNL     1      45.436   1.838   8.873  0.00  0.00    +0.000 A 
ATOM     22  C   UNL     1      46.301   2.196   7.852  0.00  0.00    +0.000 A 
ATOM     23  C   UNL     1      46.385   3.533   7.542  0.00  0.00    +0.000 A 
ATOM     24  N   UNL     1      45.646   4.484   8.152  0.00  0.00    +0.000 NA
ATOM     25  C   UNL     1      44.807   4.144   9.178  0.00  0.00    +0.000 A 
BRANCH  20  27
ATOM     26  N   UNL     1      43.159   2.026  11.490  0.00  0.00    +0.000 NA
ATOM     27  C   UNL     1      43.887   2.299  10.638  0.00  0.00    +0.000 C 
ENDBRANCH  20  27
ENDBRANCH  18  25
ENDBRANCH  15  18
ENDBRANCH   1  15
TORSDOF 5
ENDMDL
MODEL 2
REMARK VINA RESULT:    -6.702      3.140      7.141
REMARK INTER + INTRA:          -9.577
REMARK INTER:                  -8.601
REMARK INTRA:                  -0.976
REMARK UNBOUND:                -0.916
REMARK  Name = 
REMARK  5 active torsions:
REMARK  status: ('A' for Active; 'I' for Inactive)
REMARK    1  A    between atoms: C_2  and  C_3
REMARK    2  A    between atoms: C_8  and  N_9
REMARK    3  A    between atoms: N_9  and  C_10
REMARK    4  A    between atoms: C_10  and  C_11
REMARK    5  A    between atoms: C_16  and  C_17
REMARK                            x       y       z     vdW  Elec       q    Type
REMARK                         _______ _______ _______ _____ _____    ______ ____
ROOT
ATOM      1  C   UNL     1      47.662   7.514  13.660  0.00  0.00    +0.000 A 
ATOM      2  C   UNL     1      46.791   8.607  13.564  0.00  0.00    +0.000 A 
ATOM      3  C   UNL     1      45.612   8.493  12.848  0.00  0.00    +0.000 A 
ATOM      4  F   UNL     1      44.809   9.560  12.723  0.00  0.00    +0.000 F 
ATOM      5  C   UNL     1      45.253   7.303  12.238  0.00  0.00    +0.000 A 
ATOM      6  C   UNL     1      46.074   6.174  12.328  0.00  0.00    +0.000 A 
ATOM      7  C   UNL     1      47.275   6.311  13.041  0.00  0.00    +0.000 A 
ENDROOT
BRANCH   6   8
ATOM      8  C   UNL     1      45.727   4.836  11.694  0.00  0.00    +0.000 C 
ATOM      9  C   UNL     1      44.865   4.956  10.430  0.00  0.00    +0.000 C 
ATOM     10  C   UNL     1      43.381   5.178  10.719  0.00  0.00    +0.000 C 
ATOM     11  N   UNL     1      42.827   4.211  11.667  0.00  0.00    +0.000 NA
ATOM     12  C   UNL     1      43.595   4.084  12.907  0.00  0.00    +0.000 C 
ATOM     13  C   UNL     1      45.085   3.840  12.672  0.00  0.00    +0.000 C 
ATOM     14  H   UNL     1      42.782   3.300  11.214  0.00  0.00    +0.000 HD
ENDBRANCH   6   8
BRANCH   1  15
ATOM     15  C   UNL     1      48.990   7.613  14.375  0.00  0.00    +0.000 C 
ATOM     16  C   UNL     1      50.235   8.015  13.569  0.00  0.00    +0.000 C 
ATOM     17  C   UNL     1      49.577   8.997  14.484  0.00  0.00    +0.000 C 
BRANCH  15  18
ATOM     18  N   UNL     1      49.222   6.541  15.338  0.00  0.00    +0.000 N 
ATOM     19  H   UNL     1      49.836   5.772  15.061  0.00  0.00    +0.000 HD
BRANCH  18  25
ATOM     20  C   UNL     1      47.842   4.952  16.724  0.00  0.00    +0.000 A 
ATOM     21  C   UNL     1      47.266   4.771  17.994  0.00  0.00    +0.000 A 
ATOM     22  C   UNL     1      47.340   5.763  18.959  0.00  0.00    +0.000 A 
ATOM     23  C   UNL     1      48.018   6.912  18.626  0.00  0.00    +0.000 A 
ATOM     24  N   UNL     1      48.633   7.092  17.437  0.00  0.00    +0.000 NA
ATOM     25  C   UNL     1      48.545   6.130  16.469  0.00  0.00    +0.000 A 
BRANCH  20  27
ATOM     26  N   UNL     1      47.615   3.030  15.016  0.00  0.00    +0.000 NA
ATOM     27  C   UNL     1      47.639   3.866  15.810  0.00  0.00    +0.000 C 
ENDBRANCH  20  27
ENDBRANCH  18  25
ENDBRANCH  15  18
ENDBRANCH   1  15
TORSDOF 5
ENDMDL
MODEL 3
REMARK VINA RESULT:    -6.316      1.896      6.975
REMARK INTER + INTRA:          -9.078
REMARK INTER:                  -8.525
REMARK INTRA:                  -0.554
REMARK UNBOUND:                -0.916
REMARK  Name = 
REMARK  5 active torsions:
REMARK  status: ('A' for Active; 'I' for Inactive)
REMARK    1  A    between atoms: C_2  and  C_3
REMARK    2  A    between atoms: C_8  and  N_9
REMARK    3  A    between atoms: N_9  and  C_10
REMARK    4  A    between atoms: C_10  and  C_11
REMARK    5  A    between atoms: C_16  and  C_17
REMARK                            x       y       z     vdW  Elec       q    Type
REMARK                         _______ _______ _______ _____ _____    ______ ____
ROOT
ATOM      1  C   UNL     1      47.362   6.753  12.595  0.00  0.00    +0.000 A 
ATOM      2  C   UNL     1      47.576   5.905  13.689  0.00  0.00    +0.000 A 
ATOM      3  C   UNL     1      46.754   4.809  13.888  0.00  0.00    +0.000 A 
ATOM      4  F   UNL     1      46.938   4.031  14.964  0.00  0.00    +0.000 F 
ATOM      5  C   UNL     1      45.728   4.511  13.007  0.00  0.00    +0.000 A 
ATOM      6  C   UNL     1      45.491   5.309  11.883  0.00  0.00    +0.000 A 
ATOM      7  C   UNL     1      46.322   6.427  11.706  0.00  0.00    +0.000 A 
ENDROOT
BRANCH   6   8
ATOM      8  C   UNL     1      44.392   5.024  10.872  0.00  0.00    +0.000 C 
ATOM      9  C   UNL     1      43.178   4.297  11.466  0.00  0.00    +0.000 C 
ATOM     10  C   UNL     1      43.386   2.792  11.630  0.00  0.00    +0.000 C 
ATOM     11  N   UNL     1      43.870   2.140  10.414  0.00  0.00    +0.000 NA
ATOM     12  C   UNL     1      45.050   2.776   9.825  0.00  0.00    +0.000 C 
ATOM     13  C   UNL     1      44.885   4.281   9.620  0.00  0.00    +0.000 C 
ATOM     14  H   UNL     1      43.120   2.138   9.724  0.00  0.00    +0.000 HD
ENDBRANCH   6   8
BRANCH   1  15
ATOM     15  C   UNL     1      48.193   7.996  12.376  0.00  0.00    +0.000 C 
ATOM     16  C   UNL     1      49.676   7.974  12.779  0.00  0.00    +0.000 C 
ATOM     17  C   UNL     1      49.282   7.887  11.339  0.00  0.00    +0.000 C 
BRANCH  15  18
ATOM     18  N   UNL     1      47.500   9.236  12.716  0.00  0.00    +0.000 N 
ATOM     19  H   UNL     1      47.287   9.412  13.700  0.00  0.00    +0.000 HD
BRANCH  18  25
ATOM     20  C   UNL     1      47.153  11.129  11.090  0.00  0.00    +0.000 A 
ATOM     21  C   UNL     1      46.165  11.883  10.430  0.00  0.00    +0.000 A 
ATOM     22  C   UNL     1      44.820  11.681  10.693  0.00  0.00    +0.000 A 
ATOM     23  C   UNL     1      44.499  10.701  11.602  0.00  0.00    +0.000 A 
ATOM     24  N   UNL     1      45.419   9.920  12.207  0.00  0.00    +0.000 NA
ATOM     25  C   UNL     1      46.751  10.127  11.974  0.00  0.00    +0.000 A 
BRANCH  20  27
ATOM     26  N   UNL     1      49.600  11.626  10.437  0.00  0.00    +0.000 NA
ATOM     27  C   UNL     1      48.502  11.485  10.760  0.00  0.00    +0.000 C 
ENDBRANCH  20  27
ENDBRANCH  18  25
ENDBRANCH  15  18
ENDBRANCH   1  15
TORSDOF 5
ENDMDL
MODEL 4
REMARK VINA RESULT:    -6.223      3.989      5.921
REMARK INTER + INTRA:          -8.958
REMARK INTER:                  -8.013
REMARK INTRA:                  -0.945
REMARK UNBOUND:                -0.916
REMARK  Name = 
REMARK  5 active torsions:
REMARK  status: ('A' for Active; 'I' for Inactive)
REMARK    1  A    between atoms: C_2  and  C_3
REMARK    2  A    between atoms: C_8  and  N_9
REMARK    3  A    between atoms: N_9  and  C_10
REMARK    4  A    between atoms: C_10  and  C_11
REMARK    5  A    between atoms: C_16  and  C_17
REMARK                            x       y       z     vdW  Elec       q    Type
REMARK                         _______ _______ _______ _____ _____    ______ ____
ROOT
ATOM      1  C   UNL     1      48.543   7.383  15.191  0.00  0.00    +0.000 A 
ATOM      2  C   UNL     1      48.410   8.558  15.941  0.00  0.00    +0.000 A 
ATOM      3  C   UNL     1      48.822   8.588  17.262  0.00  0.00    +0.000 A 
ATOM      4  F   UNL     1      48.646   9.704  17.985  0.00  0.00    +0.000 F 
ATOM      5  C   UNL     1      49.395   7.479  17.861  0.00  0.00    +0.000 A 
ATOM      6  C   UNL     1      49.578   6.291  17.147  0.00  0.00    +0.000 A 
ATOM      7  C   UNL     1      49.136   6.271  15.815  0.00  0.00    +0.000 A 
ENDROOT
BRANCH   6   8
ATOM      8  C   UNL     1      50.214   5.046  17.745  0.00  0.00    +0.000 C 
ATOM      9  C   UNL     1      49.521   3.739  17.335  0.00  0.00    +0.000 C 
ATOM     10  C   UNL     1      48.250   3.444  18.131  0.00  0.00    +0.000 C 
ATOM     11  N   UNL     1      48.444   3.527  19.578  0.00  0.00    +0.000 NA
ATOM     12  C   UNL     1      49.071   4.772  20.026  0.00  0.00    +0.000 C 
ATOM     13  C   UNL     1      50.360   5.103  19.274  0.00  0.00    +0.000 C 
ATOM     14  H   UNL     1      49.022   2.743  19.876  0.00  0.00    +0.000 HD
ENDBRANCH   6   8
BRANCH   1  15
ATOM     15  C   UNL     1      48.046   7.286  13.767  0.00  0.00    +0.000 C 
ATOM     16  C   UNL     1      48.578   8.286  12.728  0.00  0.00    +0.000 C 
ATOM     17  C   UNL     1      49.069   6.874  12.739  0.00  0.00    +0.000 C 
BRANCH  15  18
ATOM     18  N   UNL     1      46.615   7.017  13.659  0.00  0.00    +0.000 N 
ATOM     19  H   UNL     1      46.001   7.389  14.386  0.00  0.00    +0.000 HD
BRANCH  18  25
ATOM     20  C   UNL     1      45.946   4.688  12.969  0.00  0.00    +0.000 A 
ATOM     21  C   UNL     1      45.049   3.964  12.163  0.00  0.00    +0.000 A 
ATOM     22  C   UNL     1      44.159   4.614  11.324  0.00  0.00    +0.000 A 
ATOM     23  C   UNL     1      44.179   5.989  11.334  0.00  0.00    +0.000 A 
ATOM     24  N   UNL     1      44.986   6.714  12.139  0.00  0.00    +0.000 NA
ATOM     25  C   UNL     1      45.885   6.082  12.953  0.00  0.00    +0.000 A 
BRANCH  20  27
ATOM     26  N   UNL     1      47.442   3.197  14.453  0.00  0.00    +0.000 NA
ATOM     27  C   UNL     1      46.844   3.882  13.744  0.00  0.00    +0.000 C 
ENDBRANCH  20  27
ENDBRANCH  18  25
ENDBRANCH  15  18
ENDBRANCH   1  15
TORSDOF 5
ENDMDL
MODEL 5
REMARK VINA RESULT:    -6.123      2.890      4.102
REMARK INTER + INTRA:          -8.829
REMARK INTER:                  -7.670
REMARK INTRA:                  -1.159
REMARK UNBOUND:                -0.916
REMARK  Name = 
REMARK  5 active torsions:
REMARK  status: ('A' for Active; 'I' for Inactive)
REMARK    1  A    between atoms: C_2  and  C_3
REMARK    2  A    between atoms: C_8  and  N_9
REMARK    3  A    between atoms: N_9  and  C_10
REMARK    4  A    between atoms: C_10  and  C_11
REMARK    5  A    between atoms: C_16  and  C_17
REMARK                            x       y       z     vdW  Elec       q    Type
REMARK                         _______ _______ _______ _____ _____    ______ ____
ROOT
ATOM      1  C   UNL     1      47.224   7.586  12.752  0.00  0.00    +0.000 A 
ATOM      2  C   UNL     1      48.088   7.677  11.653  0.00  0.00    +0.000 A 
ATOM      3  C   UNL     1      49.456   7.575  11.836  0.00  0.00    +0.000 A 
ATOM      4  F   UNL     1      50.276   7.711  10.783  0.00  0.00    +0.000 F 
ATOM      5  C   UNL     1      49.999   7.357  13.091  0.00  0.00    +0.000 A 
ATOM      6  C   UNL     1      49.179   7.230  14.216  0.00  0.00    +0.000 A 
ATOM      7  C   UNL     1      47.795   7.354  14.016  0.00  0.00    +0.000 A 
ENDROOT
BRANCH   6   8
ATOM      8  C   UNL     1      49.714   6.974  15.616  0.00  0.00    +0.000 C 
ATOM      9  C   UNL     1      48.887   7.638  16.726  0.00  0.00    +0.000 C 
ATOM     10  C   UNL     1      49.188   9.125  16.907  0.00  0.00    +0.000 C 
ATOM     11  N   UNL     1      50.615   9.412  17.045  0.00  0.00    +0.000 NA
ATOM     12  C   UNL     1      51.446   8.829  15.990  0.00  0.00    +0.000 C 
ATOM     13  C   UNL     1      51.198   7.335  15.783  0.00  0.00    +0.000 C 
ATOM     14  H   UNL     1      50.934   9.059  17.946  0.00  0.00    +0.000 HD
ENDBRANCH   6   8
BRANCH   1  15
ATOM     15  C   UNL     1      45.730   7.757  12.607  0.00  0.00    +0.000 C 
ATOM     16  C   UNL     1      45.121   9.152  12.824  0.00  0.00    +0.000 C 
ATOM     17  C   UNL     1      45.273   8.600  11.443  0.00  0.00    +0.000 C 
BRANCH  15  18
ATOM     18  N   UNL     1      44.952   6.668  13.192  0.00  0.00    +0.000 N 
ATOM     19  H   UNL     1      44.850   6.644  14.208  0.00  0.00    +0.000 HD
BRANCH  18  25
ATOM     20  C   UNL     1      45.176   4.185  12.825  0.00  0.00    +0.000 A 
ATOM     21  C   UNL     1      44.533   3.064  12.269  0.00  0.00    +0.000 A 
ATOM     22  C   UNL     1      43.342   3.197  11.574  0.00  0.00    +0.000 A 
ATOM     23  C   UNL     1      42.811   4.461  11.476  0.00  0.00    +0.000 A 
ATOM     24  N   UNL     1      43.372   5.548  12.049  0.00  0.00    +0.000 NA
ATOM     25  C   UNL     1      44.560   5.433  12.716  0.00  0.00    +0.000 A 
BRANCH  20  27
ATOM     26  N   UNL     1      47.381   3.532  13.997  0.00  0.00    +0.000 NA
ATOM     27  C   UNL     1      46.427   3.905  13.467  0.00  0.00    +0.000 C 
ENDBRANCH  20  27
ENDBRANCH  18  25
ENDBRANCH  15  18
ENDBRANCH   1  15
TORSDOF 5
ENDMDL
MODEL 6
REMARK VINA RESULT:    -6.117      2.893      7.100
REMARK INTER + INTRA:          -8.821
REMARK INTER:                  -7.666
REMARK INTRA:                  -1.154
REMARK UNBOUND:                -0.916
REMARK  Name = 
REMARK  5 active torsions:
REMARK  status: ('A' for Active; 'I' for Inactive)
REMARK    1  A    between atoms: C_2  and  C_3
REMARK    2  A    between atoms: C_8  and  N_9
REMARK    3  A    between atoms: N_9  and  C_10
REMARK    4  A    between atoms: C_10  and  C_11
REMARK    5  A    between atoms: C_16  and  C_17
REMARK                            x       y       z     vdW  Elec       q    Type
REMARK                         _______ _______ _______ _____ _____    ______ ____
ROOT
ATOM      1  C   UNL     1      47.204   8.045  12.212  0.00  0.00    +0.000 A 
ATOM      2  C   UNL     1      46.486   9.242  12.317  0.00  0.00    +0.000 A 
ATOM      3  C   UNL     1      45.148   9.282  11.962  0.00  0.00    +0.000 A 
ATOM      4  F   UNL     1      44.483  10.445  12.021  0.00  0.00    +0.000 F 
ATOM      5  C   UNL     1      44.487   8.147  11.525  0.00  0.00    +0.000 A 
ATOM      6  C   UNL     1      45.151   6.920  11.430  0.00  0.00    +0.000 A 
ATOM      7  C   UNL     1      46.512   6.901  11.776  0.00  0.00    +0.000 A 
ENDROOT
BRANCH   6   8
ATOM      8  C   UNL     1      44.475   5.637  10.973  0.00  0.00    +0.000 C 
ATOM      9  C   UNL     1      43.013   5.514  11.423  0.00  0.00    +0.000 C 
ATOM     10  C   UNL     1      42.854   5.054  12.872  0.00  0.00    +0.000 C 
ATOM     11  N   UNL     1      43.623   3.850  13.183  0.00  0.00    +0.000 NA
ATOM     12  C   UNL     1      45.035   3.929  12.805  0.00  0.00    +0.000 C 
ATOM     13  C   UNL     1      45.249   4.365  11.356  0.00  0.00    +0.000 C 
ATOM     14  H   UNL     1      43.198   3.059  12.702  0.00  0.00    +0.000 HD
ENDBRANCH   6   8
BRANCH   1  15
ATOM     15  C   UNL     1      48.681   7.971  12.525  0.00  0.00    +0.000 C 
ATOM     16  C   UNL     1      49.690   8.302  11.414  0.00  0.00    +0.000 C 
ATOM     17  C   UNL     1      49.424   9.283  12.511  0.00  0.00    +0.000 C 
BRANCH  15  18
ATOM     18  N   UNL     1      49.053   6.822  13.347  0.00  0.00    +0.000 N 
ATOM     19  H   UNL     1      49.327   5.961  12.871  0.00  0.00    +0.000 HD
BRANCH  18  25
ATOM     20  C   UNL     1      49.249   7.116  15.842  0.00  0.00    +0.000 A 
ATOM     21  C   UNL     1      48.830   6.589  17.077  0.00  0.00    +0.000 A 
ATOM     22  C   UNL     1      48.054   5.442  17.136  0.00  0.00    +0.000 A 
ATOM     23  C   UNL     1      47.697   4.864  15.941  0.00  0.00    +0.000 A 
ATOM     24  N   UNL     1      48.033   5.380  14.738  0.00  0.00    +0.000 NA
ATOM     25  C   UNL     1      48.819   6.497  14.668  0.00  0.00    +0.000 A 
BRANCH  20  27
ATOM     26  N   UNL     1      50.781   9.169  16.165  0.00  0.00    +0.000 NA
ATOM     27  C   UNL     1      50.092   8.272  15.936  0.00  0.00    +0.000 C 
ENDBRANCH  20  27
ENDBRANCH  18  25
ENDBRANCH  15  18
ENDBRANCH   1  15
TORSDOF 5
ENDMDL
MODEL 7
REMARK VINA RESULT:    -5.939      3.281      7.265
REMARK INTER + INTRA:          -8.591
REMARK INTER:                  -8.154
REMARK INTRA:                  -0.437
REMARK UNBOUND:                -0.916
REMARK  Name = 
REMARK  5 active torsions:
REMARK  status: ('A' for Active; 'I' for Inactive)
REMARK    1  A    between atoms: C_2  and  C_3
REMARK    2  A    between atoms: C_8  and  N_9
REMARK    3  A    between atoms: N_9  and  C_10
REMARK    4  A    between atoms: C_10  and  C_11
REMARK    5  A    between atoms: C_16  and  C_17
REMARK                            x       y       z     vdW  Elec       q    Type
REMARK                         _______ _______ _______ _____ _____    ______ ____
ROOT
ATOM      1  C   UNL     1      47.239   7.318  13.645  0.00  0.00    +0.000 A 
ATOM      2  C   UNL     1      46.482   8.440  13.285  0.00  0.00    +0.000 A 
ATOM      3  C   UNL     1      45.499   8.332  12.316  0.00  0.00    +0.000 A 
ATOM      4  F   UNL     1      44.813   9.423  11.946  0.00  0.00    +0.000 F 
ATOM      5  C   UNL     1      45.224   7.121  11.703  0.00  0.00    +0.000 A 
ATOM      6  C   UNL     1      45.932   5.965  12.047  0.00  0.00    +0.000 A 
ATOM      7  C   UNL     1      46.938   6.095  13.017  0.00  0.00    +0.000 A 
ENDROOT
BRANCH   6   8
ATOM      8  C   UNL     1      45.665   4.605  11.421  0.00  0.00    +0.000 C 
ATOM      9  C   UNL     1      44.692   4.649  10.235  0.00  0.00    +0.000 C 
ATOM     10  C   UNL     1      43.223   4.721  10.651  0.00  0.00    +0.000 C 
ATOM     11  N   UNL     1      42.848   3.696  11.625  0.00  0.00    +0.000 NA
ATOM     12  C   UNL     1      43.727   3.635  12.795  0.00  0.00    +0.000 C 
ATOM     13  C   UNL     1      45.209   3.541  12.433  0.00  0.00    +0.000 C 
ATOM     14  H   UNL     1      42.855   2.789  11.163  0.00  0.00    +0.000 HD
ENDBRANCH   6   8
BRANCH   1  15
ATOM     15  C   UNL     1      48.365   7.404  14.649  0.00  0.00    +0.000 C 
ATOM     16  C   UNL     1      49.813   7.280  14.150  0.00  0.00    +0.000 C 
ATOM     17  C   UNL     1      49.258   8.614  14.535  0.00  0.00    +0.000 C 
BRANCH  15  18
ATOM     18  N   UNL     1      48.099   6.691  15.895  0.00  0.00    +0.000 N 
ATOM     19  H   UNL     1      47.782   7.233  16.701  0.00  0.00    +0.000 HD
BRANCH  18  25
ATOM     20  C   UNL     1      49.603   5.074  17.110  0.00  0.00    +0.000 A 
ATOM     21  C   UNL     1      49.735   3.728  17.497  0.00  0.00    +0.000 A 
ATOM     22  C   UNL     1      48.806   2.779  17.103  0.00  0.00    +0.000 A 
ATOM     23  C   UNL     1      47.746   3.216  16.344  0.00  0.00    +0.000 A 
ATOM     24  N   UNL     1      47.559   4.511  16.007  0.00  0.00    +0.000 NA
ATOM     25  C   UNL     1      48.483   5.452  16.369  0.00  0.00    +0.000 A 
BRANCH  20  27
ATOM     26  N   UNL     1      51.421   6.679  17.995  0.00  0.00    +0.000 NA
ATOM     27  C   UNL     1      50.668   5.932  17.543  0.00  0.00    +0.000 C 
ENDBRANCH  20  27
ENDBRANCH  18  25
ENDBRANCH  15  18
ENDBRANCH   1  15
TORSDOF 5
ENDMDL
MODEL 8
REMARK VINA RESULT:    -5.868      3.970      7.938
REMARK INTER + INTRA:          -8.499
REMARK INTER:                  -8.230
REMARK INTRA:                  -0.269
REMARK UNBOUND:                -0.916
REMARK  Name = 
REMARK  5 active torsions:
REMARK  status: ('A' for Active; 'I' for Inactive)
REMARK    1  A    between atoms: C_2  and  C_3
REMARK    2  A    between atoms: C_8  and  N_9
REMARK    3  A    between atoms: N_9  and  C_10
REMARK    4  A    between atoms: C_10  and  C_11
REMARK    5  A    between atoms: C_16  and  C_17
REMARK                            x       y       z     vdW  Elec       q    Type
REMARK                         _______ _______ _______ _____ _____    ______ ____
ROOT
ATOM      1  C   UNL     1      47.356   5.071  14.840  0.00  0.00    +0.000 A 
ATOM      2  C   UNL     1      47.915   6.139  14.127  0.00  0.00    +0.000 A 
ATOM      3  C   UNL     1      47.442   6.455  12.865  0.00  0.00    +0.000 A 
ATOM      4  F   UNL     1      48.017   7.449  12.173  0.00  0.00    +0.000 F 
ATOM      5  C   UNL     1      46.398   5.748  12.292  0.00  0.00    +0.000 A 
ATOM      6  C   UNL     1      45.786   4.691  12.973  0.00  0.00    +0.000 A 
ATOM      7  C   UNL     1      46.290   4.372  14.244  0.00  0.00    +0.000 A 
ENDROOT
BRANCH   6   8
ATOM      8  C   UNL     1      44.627   3.890  12.403  0.00  0.00    +0.000 C 
ATOM      9  C   UNL     1      44.870   3.380  10.976  0.00  0.00    +0.000 C 
ATOM     10  C   UNL     1      44.637   4.439   9.899  0.00  0.00    +0.000 C 
ATOM     11  N   UNL     1      43.346   5.114  10.024  0.00  0.00    +0.000 NA
ATOM     12  C   UNL     1      43.080   5.651  11.359  0.00  0.00    +0.000 C 
ATOM     13  C   UNL     1      43.278   4.624  12.473  0.00  0.00    +0.000 C 
ATOM     14  H   UNL     1      42.608   4.455   9.782  0.00  0.00    +0.000 HD
ENDBRANCH   6   8
BRANCH   1  15
ATOM     15  C   UNL     1      47.885   4.650  16.191  0.00  0.00    +0.000 C 
ATOM     16  C   UNL     1      46.958   3.873  17.139  0.00  0.00    +0.000 C 
ATOM     17  C   UNL     1      48.050   3.166  16.402  0.00  0.00    +0.000 C 
BRANCH  15  18
ATOM     18  N   UNL     1      48.695   5.671  16.851  0.00  0.00    +0.000 N 
ATOM     19  H   UNL     1      48.431   6.649  16.722  0.00  0.00    +0.000 HD
BRANCH  18  25
ATOM     20  C   UNL     1      50.419   5.311  18.653  0.00  0.00    +0.000 A 
ATOM     21  C   UNL     1      51.799   5.361  18.921  0.00  0.00    +0.000 A 
ATOM     22  C   UNL     1      52.695   5.807  17.963  0.00  0.00    +0.000 A 
ATOM     23  C   UNL     1      52.178   6.172  16.742  0.00  0.00    +0.000 A 
ATOM     24  N   UNL     1      50.866   6.078  16.434  0.00  0.00    +0.000 NA
ATOM     25  C   UNL     1      49.970   5.662  17.380  0.00  0.00    +0.000 A 
BRANCH  20  27
ATOM     26  N   UNL     1      48.873   4.456  20.535  0.00  0.00    +0.000 NA
ATOM     27  C   UNL     1      49.607   4.881  19.755  0.00  0.00    +0.000 C 
ENDBRANCH  20  27
ENDBRANCH  18  25
ENDBRANCH  15  18
ENDBRANCH   1  15
TORSDOF 5
ENDMDL
MODEL 9
REMARK VINA RESULT:    -5.789      2.075      7.400
REMARK INTER + INTRA:          -8.397
REMARK INTER:                  -8.078
REMARK INTRA:                  -0.319
REMARK UNBOUND:                -0.916
REMARK  Name = 
REMARK  5 active torsions:
REMARK  status: ('A' for Active; 'I' for Inactive)
REMARK    1  A    between atoms: C_2  and  C_3
REMARK    2  A    between atoms: C_8  and  N_9
REMARK    3  A    between atoms: N_9  and  C_10
REMARK    4  A    between atoms: C_10  and  C_11
REMARK    5  A    between atoms: C_16  and  C_17
REMARK                            x       y       z     vdW  Elec       q    Type
REMARK                         _______ _______ _______ _____ _____    ______ ____
ROOT
ATOM      1  C   UNL     1      47.648   6.474  13.003  0.00  0.00    +0.000 A 
ATOM      2  C   UNL     1      47.647   5.630  14.121  0.00  0.00    +0.000 A 
ATOM      3  C   UNL     1      46.641   4.693  14.282  0.00  0.00    +0.000 A 
ATOM      4  F   UNL     1      46.624   3.923  15.379  0.00  0.00    +0.000 F 
ATOM      5  C   UNL     1      45.636   4.549  13.340  0.00  0.00    +0.000 A 
ATOM      6  C   UNL     1      45.608   5.347  12.192  0.00  0.00    +0.000 A 
ATOM      7  C   UNL     1      46.624   6.305  12.053  0.00  0.00    +0.000 A 
ENDROOT
BRANCH   6   8
ATOM      8  C   UNL     1      44.541   5.225  11.115  0.00  0.00    +0.000 C 
ATOM      9  C   UNL     1      43.258   4.530  11.592  0.00  0.00    +0.000 C 
ATOM     10  C   UNL     1      43.364   3.006  11.628  0.00  0.00    +0.000 C 
ATOM     11  N   UNL     1      43.862   2.432  10.379  0.00  0.00    +0.000 NA
ATOM     12  C   UNL     1      45.105   3.037   9.898  0.00  0.00    +0.000 C 
ATOM     13  C   UNL     1      45.045   4.562   9.823  0.00  0.00    +0.000 C 
ATOM     14  H   UNL     1      43.146   2.540   9.662  0.00  0.00    +0.000 HD
ENDBRANCH   6   8
BRANCH   1  15
ATOM     15  C   UNL     1      48.689   7.555  12.821  0.00  0.00    +0.000 C 
ATOM     16  C   UNL     1      49.440   7.640  11.483  0.00  0.00    +0.000 C 
ATOM     17  C   UNL     1      48.360   8.622  11.808  0.00  0.00    +0.000 C 
BRANCH  15  18
ATOM     18  N   UNL     1      49.533   7.764  13.994  0.00  0.00    +0.000 N 
ATOM     19  H   UNL     1      50.468   7.351  13.992  0.00  0.00    +0.000 HD
BRANCH  18  25
ATOM     20  C   UNL     1      49.574   7.509  16.501  0.00  0.00    +0.000 A 
ATOM     21  C   UNL     1      49.199   8.133  17.704  0.00  0.00    +0.000 A 
ATOM     22  C   UNL     1      48.479   9.316  17.700  0.00  0.00    +0.000 A 
ATOM     23  C   UNL     1      48.173   9.859  16.475  0.00  0.00    +0.000 A 
ATOM     24  N   UNL     1      48.570   9.318  15.303  0.00  0.00    +0.000 NA
ATOM     25  C   UNL     1      49.259   8.136  15.295  0.00  0.00    +0.000 A 
BRANCH  20  27
ATOM     26  N   UNL     1      50.941   5.346  16.842  0.00  0.00    +0.000 NA
ATOM     27  C   UNL     1      50.267   6.263  16.658  0.00  0.00    +0.000 C 
ENDBRANCH  20  27
ENDBRANCH  18  25
ENDBRANCH  15  18
ENDBRANCH   1  15
TORSDOF 5
ENDMDL
