MODEL 1
REMARK VINA RESULT:    -8.166      0.000      0.000
REMARK INTER + INTRA:         -10.824
REMARK INTER:                 -10.552
REMARK INTRA:                  -0.272
REMARK UNBOUND:                -0.272
REMARK  Name = 
REMARK  5 active torsions:
REMARK  status: ('A' for Active; 'I' for Inactive)
REMARK    1  A    between atoms: C_2  and  C_4
REMARK    2  A    between atoms: C_8  and  O_9
REMARK    3  A    between atoms: O_9  and  C_10
REMARK    4  A    between atoms: C_10  and  C_11
REMARK    5  A    between atoms: C_16  and  C_17
REMARK                            x       y       z     vdW  Elec       q    Type
REMARK                         _______ _______ _______ _____ _____    ______ ____
ROOT
ATOM      1  C   UNL     1      45.054   4.878  11.854  0.00  0.00    +0.000 A 
ATOM      2  C   UNL     1      45.515   3.829  12.646  0.00  0.00    +0.000 A 
ATOM      3  C   UNL     1      46.575   4.049  13.523  0.00  0.00    +0.000 A 
ATOM      4  F   UNL     1      47.029   3.031  14.267  0.00  0.00    +0.000 F 
ATOM      5  C   UNL     1      47.179   5.302  13.639  0.00  0.00    +0.000 A 
ATOM      6  C   UNL     1      46.723   6.379  12.867  0.00  0.00    +0.000 A 
ATOM      7  C   UNL     1      45.659   6.135  11.988  0.00  0.00    +0.000 A 
ENDROOT
BRANCH   6   8
ATOM      8  C   UNL     1      47.376   7.749  12.989  0.00  0.00    +0.000 C 
ATOM      9  C   UNL     1      48.291   8.113  11.807  0.00  0.00    +0.000 C 
ATOM     10  C   UNL     1      49.677   7.474  11.878  0.00  0.00    +0.000 C 
ATOM     11  N   UNL     1      50.340   7.663  13.169  0.00  0.00    +0.000 NA
ATOM     12  C   UNL     1      49.519   7.300  14.323  0.00  0.00    +0.000 C 
ATOM     13  C   UNL     1      48.136   7.950  14.311  0.00  0.00    +0.000 C 
ATOM     14  H   UNL     1      50.605   8.645  13.254  0.00  0.00    +0.000 HD
ENDBRANCH   6   8
BRANCH   1  15
ATOM     15  C   UNL     1      43.924   4.718  10.870  0.00  0.00    +0.000 C 
BRANCH  15  16
ATOM     16  O   UNL     1      44.014   3.428  10.271  0.00  0.00    +0.000 OA
BRANCH  16  21
ATOM     17  C   UNL     1      46.409   2.099   7.772  0.00  0.00    +0.000 A 
ATOM     18  C   UNL     1      46.748   3.320   7.206  0.00  0.00    +0.000 A 
ATOM     19  N   UNL     1      46.219   4.501   7.606  0.00  0.00    +0.000 NA
ATOM     20  C   UNL     1      45.324   4.447   8.623  0.00  0.00    +0.000 A 
ATOM     21  C   UNL     1      44.929   3.277   9.269  0.00  0.00    +0.000 A 
ATOM     22  C   UNL     1      45.496   2.080   8.833  0.00  0.00    +0.000 A 
BRANCH  17  24
ATOM     23  N   UNL     1      47.727   0.988   6.061  0.00  0.00    +0.000 N 
ATOM     24  C   UNL     1      47.032   0.874   7.232  0.00  0.00    +0.000 C 
ATOM     25  O   UNL     1      46.968  -0.194   7.829  0.00  0.00    +0.000 OA
ATOM     26  H   UNL     1      48.255   0.169   5.778  0.00  0.00    +0.000 HD
ATOM     27  H   UNL     1      48.037   1.880   5.699  0.00  0.00    +0.000 HD
ENDBRANCH  17  24
ENDBRANCH  16  21
ENDBRANCH  15  16
ENDBRANCH   1  15
TORSDOF 5
ENDMDL
MODEL 2
REMARK VINA RESULT:    -7.865      1.637      2.082
REMARK INTER + INTRA:         -10.436
REMARK INTER:                 -10.090
REMARK INTRA:                  -0.347
REMARK UNBOUND:                -0.272
REMARK  Name = 
REMARK  5 active torsions:
REMARK  status: ('A' for Active; 'I' for Inactive)
REMARK    1  A    between atoms: C_2  and  C_4
REMARK    2  A    between atoms: C_8  and  O_9
REMARK    3  A    between atoms: O_9  and  C_10
REMARK    4  A    between atoms: C_10  and  C_11
REMARK    5  A    between atoms: C_16  and  C_17
REMARK                            x       y       z     vdW  Elec       q    Type
REMARK                         _______ _______ _______ _____ _____    ______ ____
ROOT
ATOM      1  C   UNL     1      44.926   4.541  11.456  0.00  0.00    +0.000 A 
ATOM      2  C   UNL     1      45.373   3.652  12.432  0.00  0.00    +0.000 A 
ATOM      3  C   UNL     1      46.488   3.983  13.198  0.00  0.00    +0.000 A 
ATOM      4  F   UNL     1      46.927   3.116  14.121  0.00  0.00    +0.000 F 
ATOM      5  C   UNL     1      47.162   5.193  13.023  0.00  0.00    +0.000 A 
ATOM      6  C   UNL     1      46.722   6.112  12.061  0.00  0.00    +0.000 A 
ATOM      7  C   UNL     1      45.601   5.758  11.297  0.00  0.00    +0.000 A 
ENDROOT
BRANCH   6   8
ATOM      8  C   UNL     1      47.451   7.436  11.865  0.00  0.00    +0.000 C 
ATOM      9  C   UNL     1      48.686   7.608  12.765  0.00  0.00    +0.000 C 
ATOM     10  C   UNL     1      48.356   8.030  14.196  0.00  0.00    +0.000 C 
ATOM     11  N   UNL     1      47.453   9.180  14.270  0.00  0.00    +0.000 NA
ATOM     12  C   UNL     1      46.247   9.049  13.454  0.00  0.00    +0.000 C 
ATOM     13  C   UNL     1      46.536   8.664  12.003  0.00  0.00    +0.000 C 
ATOM     14  H   UNL     1      47.963  10.010  13.964  0.00  0.00    +0.000 HD
ENDBRANCH   6   8
BRANCH   1  15
ATOM     15  C   UNL     1      43.738   4.250  10.575  0.00  0.00    +0.000 C 
BRANCH  15  16
ATOM     16  O   UNL     1      44.117   4.440   9.214  0.00  0.00    +0.000 OA
BRANCH  16  21
ATOM     17  C   UNL     1      46.523   2.535   7.134  0.00  0.00    +0.000 A 
ATOM     18  C   UNL     1      46.354   1.312   7.768  0.00  0.00    +0.000 A 
ATOM     19  N   UNL     1      45.516   1.124   8.815  0.00  0.00    +0.000 NA
ATOM     20  C   UNL     1      44.815   2.208   9.230  0.00  0.00    +0.000 A 
ATOM     21  C   UNL     1      44.901   3.474   8.653  0.00  0.00    +0.000 A 
ATOM     22  C   UNL     1      45.771   3.630   7.574  0.00  0.00    +0.000 A 
BRANCH  17  24
ATOM     23  N   UNL     1      48.815   2.545   6.330  0.00  0.00    +0.000 N 
ATOM     24  C   UNL     1      47.487   2.624   6.019  0.00  0.00    +0.000 C 
ATOM     25  O   UNL     1      47.114   2.720   4.855  0.00  0.00    +0.000 OA
ATOM     26  H   UNL     1      49.451   2.475   5.543  0.00  0.00    +0.000 HD
ATOM     27  H   UNL     1      49.144   2.186   7.217  0.00  0.00    +0.000 HD
ENDBRANCH  17  24
ENDBRANCH  16  21
ENDBRANCH  15  16
ENDBRANCH   1  15
TORSDOF 5
ENDMDL
MODEL 3
REMARK VINA RESULT:    -7.398      1.907      2.411
REMARK INTER + INTRA:          -9.833
REMARK INTER:                  -9.721
REMARK INTRA:                  -0.112
REMARK UNBOUND:                -0.272
REMARK  Name = 
REMARK  5 active torsions:
REMARK  status: ('A' for Active; 'I' for Inactive)
REMARK    1  A    between atoms: C_2  and  C_4
REMARK    2  A    between atoms: C_8  and  O_9
REMARK    3  A    between atoms: O_9  and  C_10
REMARK    4  A    between atoms: C_10  and  C_11
REMARK    5  A    between atoms: C_16  and  C_17
REMARK                            x       y       z     vdW  Elec       q    Type
REMARK                         _______ _______ _______ _____ _____    ______ ____
ROOT
ATOM      1  C   UNL     1      44.596   4.841  11.803  0.00  0.00    +0.000 A 
ATOM      2  C   UNL     1      43.695   5.784  11.312  0.00  0.00    +0.000 A 
ATOM      3  C   UNL     1      43.949   7.139  11.510  0.00  0.00    +0.000 A 
ATOM      4  F   UNL     1      43.069   8.041  11.054  0.00  0.00    +0.000 F 
ATOM      5  C   UNL     1      45.093   7.578  12.178  0.00  0.00    +0.000 A 
ATOM      6  C   UNL     1      46.024   6.651  12.666  0.00  0.00    +0.000 A 
ATOM      7  C   UNL     1      45.747   5.292  12.460  0.00  0.00    +0.000 A 
ENDROOT
BRANCH   6   8
ATOM      8  C   UNL     1      47.276   7.122  13.394  0.00  0.00    +0.000 C 
ATOM      9  C   UNL     1      47.287   8.628  13.708  0.00  0.00    +0.000 C 
ATOM     10  C   UNL     1      47.678   9.506  12.520  0.00  0.00    +0.000 C 
ATOM     11  N   UNL     1      48.907   9.070  11.855  0.00  0.00    +0.000 NA
ATOM     12  C   UNL     1      48.930   7.650  11.507  0.00  0.00    +0.000 C 
ATOM     13  C   UNL     1      48.581   6.734  12.680  0.00  0.00    +0.000 C 
ATOM     14  H   UNL     1      49.695   9.266  12.473  0.00  0.00    +0.000 HD
ENDBRANCH   6   8
BRANCH   1  15
ATOM     15  C   UNL     1      44.386   3.356  11.645  0.00  0.00    +0.000 C 
BRANCH  15  16
ATOM     16  O   UNL     1      43.879   3.099  10.338  0.00  0.00    +0.000 OA
BRANCH  16  21
ATOM     17  C   UNL     1      46.374   2.048   7.805  0.00  0.00    +0.000 A 
ATOM     18  C   UNL     1      46.561   3.298   7.232  0.00  0.00    +0.000 A 
ATOM     19  N   UNL     1      45.905   4.411   7.638  0.00  0.00    +0.000 NA
ATOM     20  C   UNL     1      45.038   4.257   8.669  0.00  0.00    +0.000 A 
ATOM     21  C   UNL     1      44.790   3.052   9.323  0.00  0.00    +0.000 A 
ATOM     22  C   UNL     1      45.486   1.927   8.880  0.00  0.00    +0.000 A 
BRANCH  17  24
ATOM     23  N   UNL     1      46.736  -0.349   7.646  0.00  0.00    +0.000 N 
ATOM     24  C   UNL     1      47.127   0.901   7.258  0.00  0.00    +0.000 C 
ATOM     25  O   UNL     1      48.038   1.058   6.453  0.00  0.00    +0.000 OA
ATOM     26  H   UNL     1      47.177  -1.122   7.159  0.00  0.00    +0.000 HD
ATOM     27  H   UNL     1      45.834  -0.528   8.068  0.00  0.00    +0.000 HD
ENDBRANCH  17  24
ENDBRANCH  16  21
ENDBRANCH  15  16
ENDBRANCH   1  15
TORSDOF 5
ENDMDL
MODEL 4
REMARK VINA RESULT:    -7.255      4.707      7.838
REMARK INTER + INTRA:          -9.647
REMARK INTER:                  -9.111
REMARK INTRA:                  -0.537
REMARK UNBOUND:                -0.272
REMARK  Name = 
REMARK  5 active torsions:
REMARK  status: ('A' for Active; 'I' for Inactive)
REMARK    1  A    between atoms: C_2  and  C_4
REMARK    2  A    between atoms: C_8  and  O_9
REMARK    3  A    between atoms: O_9  and  C_10
REMARK    4  A    between atoms: C_10  and  C_11
REMARK    5  A    between atoms: C_16  and  C_17
REMARK                            x       y       z     vdW  Elec       q    Type
REMARK                         _______ _______ _______ _____ _____    ______ ____
ROOT
ATOM      1  C   UNL     1      46.811   4.948  14.426  0.00  0.00    +0.000 A 
ATOM      2  C   UNL     1      47.843   5.738  13.925  0.00  0.00    +0.000 A 
ATOM      3  C   UNL     1      47.713   6.311  12.662  0.00  0.00    +0.000 A 
ATOM      4  F   UNL     1      48.717   7.053  12.175  0.00  0.00    +0.000 F 
ATOM      5  C   UNL     1      46.565   6.125  11.890  0.00  0.00    +0.000 A 
ATOM      6  C   UNL     1      45.505   5.350  12.378  0.00  0.00    +0.000 A 
ATOM      7  C   UNL     1      45.658   4.778  13.649  0.00  0.00    +0.000 A 
ENDROOT
BRANCH   6   8
ATOM      8  C   UNL     1      44.248   5.143  11.542  0.00  0.00    +0.000 C 
ATOM      9  C   UNL     1      43.187   4.258  12.218  0.00  0.00    +0.000 C 
ATOM     10  C   UNL     1      43.472   2.761  12.115  0.00  0.00    +0.000 C 
ATOM     11  N   UNL     1      43.775   2.319  10.753  0.00  0.00    +0.000 NA
ATOM     12  C   UNL     1      44.803   3.111  10.079  0.00  0.00    +0.000 C 
ATOM     13  C   UNL     1      44.535   4.616  10.127  0.00  0.00    +0.000 C 
ATOM     14  H   UNL     1      42.917   2.363  10.201  0.00  0.00    +0.000 HD
ENDBRANCH   6   8
BRANCH   1  15
ATOM     15  C   UNL     1      46.881   4.279  15.776  0.00  0.00    +0.000 C 
BRANCH  15  16
ATOM     16  O   UNL     1      47.758   3.159  15.690  0.00  0.00    +0.000 OA
BRANCH  16  21
ATOM     17  C   UNL     1      50.915   2.373  17.468  0.00  0.00    +0.000 A 
ATOM     18  C   UNL     1      51.025   3.580  18.145  0.00  0.00    +0.000 A 
ATOM     19  N   UNL     1      50.133   4.591  18.019  0.00  0.00    +0.000 NA
ATOM     20  C   UNL     1      49.084   4.369  17.189  0.00  0.00    +0.000 A 
ATOM     21  C   UNL     1      48.873   3.190  16.477  0.00  0.00    +0.000 A 
ATOM     22  C   UNL     1      49.810   2.169  16.633  0.00  0.00    +0.000 A 
BRANCH  17  24
ATOM     23  N   UNL     1      51.579   0.137  18.144  0.00  0.00    +0.000 N 
ATOM     24  C   UNL     1      51.967   1.356  17.665  0.00  0.00    +0.000 C 
ATOM     25  O   UNL     1      53.136   1.577  17.369  0.00  0.00    +0.000 OA
ATOM     26  H   UNL     1      52.291  -0.585  18.146  0.00  0.00    +0.000 HD
ATOM     27  H   UNL     1      50.615  -0.171  18.127  0.00  0.00    +0.000 HD
ENDBRANCH  17  24
ENDBRANCH  16  21
ENDBRANCH  15  16
ENDBRANCH   1  15
TORSDOF 5
ENDMDL
MODEL 5
REMARK VINA RESULT:    -7.151      4.091      7.339
REMARK INTER + INTRA:          -9.513
REMARK INTER:                  -8.627
REMARK INTRA:                  -0.886
REMARK UNBOUND:                -0.272
REMARK  Name = 
REMARK  5 active torsions:
REMARK  status: ('A' for Active; 'I' for Inactive)
REMARK    1  A    between atoms: C_2  and  C_4
REMARK    2  A    between atoms: C_8  and  O_9
REMARK    3  A    between atoms: O_9  and  C_10
REMARK    4  A    between atoms: C_10  and  C_11
REMARK    5  A    between atoms: C_16  and  C_17
REMARK                            x       y       z     vdW  Elec       q    Type
REMARK                         _______ _______ _______ _____ _____    ______ ____
ROOT
ATOM      1  C   UNL     1      47.399   7.571  12.434  0.00  0.00    +0.000 A 
ATOM      2  C   UNL     1      46.821   8.834  12.540  0.00  0.00    +0.000 A 
ATOM      3  C   UNL     1      45.509   9.024  12.113  0.00  0.00    +0.000 A 
ATOM      4  F   UNL     1      44.965  10.246  12.197  0.00  0.00    +0.000 F 
ATOM      5  C   UNL     1      44.752   7.973  11.592  0.00  0.00    +0.000 A 
ATOM      6  C   UNL     1      45.302   6.689  11.490  0.00  0.00    +0.000 A 
ATOM      7  C   UNL     1      46.626   6.521  11.922  0.00  0.00    +0.000 A 
ENDROOT
BRANCH   6   8
ATOM      8  C   UNL     1      44.481   5.537  10.925  0.00  0.00    +0.000 C 
ATOM      9  C   UNL     1      43.040   5.476  11.459  0.00  0.00    +0.000 C 
ATOM     10  C   UNL     1      42.920   4.848  12.847  0.00  0.00    +0.000 C 
ATOM     11  N   UNL     1      43.609   3.562  12.965  0.00  0.00    +0.000 NA
ATOM     12  C   UNL     1      44.995   3.579  12.499  0.00  0.00    +0.000 C 
ATOM     13  C   UNL     1      45.154   4.166  11.096  0.00  0.00    +0.000 C 
ATOM     14  H   UNL     1      43.092   2.869  12.423  0.00  0.00    +0.000 HD
ENDBRANCH   6   8
BRANCH   1  15
ATOM     15  C   UNL     1      48.817   7.287  12.858  0.00  0.00    +0.000 C 
BRANCH  15  16
ATOM     16  O   UNL     1      49.021   7.813  14.167  0.00  0.00    +0.000 OA
BRANCH  16  21
ATOM     17  C   UNL     1      48.059   4.949  16.315  0.00  0.00    +0.000 A 
ATOM     18  C   UNL     1      48.240   5.591  17.533  0.00  0.00    +0.000 A 
ATOM     19  N   UNL     1      48.661   6.873  17.645  0.00  0.00    +0.000 NA
ATOM     20  C   UNL     1      48.896   7.535  16.485  0.00  0.00    +0.000 A 
ATOM     21  C   UNL     1      48.730   6.988  15.214  0.00  0.00    +0.000 A 
ATOM     22  C   UNL     1      48.293   5.666  15.136  0.00  0.00    +0.000 A 
BRANCH  17  24
ATOM     23  N   UNL     1      46.966   3.089  17.430  0.00  0.00    +0.000 N 
ATOM     24  C   UNL     1      47.623   3.539  16.320  0.00  0.00    +0.000 C 
ATOM     25  O   UNL     1      47.803   2.809  15.351  0.00  0.00    +0.000 OA
ATOM     26  H   UNL     1      46.561   2.161  17.359  0.00  0.00    +0.000 HD
ATOM     27  H   UNL     1      46.555   3.717  18.108  0.00  0.00    +0.000 HD
ENDBRANCH  17  24
ENDBRANCH  16  21
ENDBRANCH  15  16
ENDBRANCH   1  15
TORSDOF 5
ENDMDL
MODEL 6
REMARK VINA RESULT:    -7.142      4.710      8.717
REMARK INTER + INTRA:          -9.502
REMARK INTER:                  -9.141
REMARK INTRA:                  -0.360
REMARK UNBOUND:                -0.272
REMARK  Name = 
REMARK  5 active torsions:
REMARK  status: ('A' for Active; 'I' for Inactive)
REMARK    1  A    between atoms: C_2  and  C_4
REMARK    2  A    between atoms: C_8  and  O_9
REMARK    3  A    between atoms: O_9  and  C_10
REMARK    4  A    between atoms: C_10  and  C_11
REMARK    5  A    between atoms: C_16  and  C_17
REMARK                            x       y       z     vdW  Elec       q    Type
REMARK                         _______ _______ _______ _____ _____    ______ ____
ROOT
ATOM      1  C   UNL     1      46.727   5.199  13.584  0.00  0.00    +0.000 A 
ATOM      2  C   UNL     1      47.584   6.187  13.105  0.00  0.00    +0.000 A 
ATOM      3  C   UNL     1      47.335   6.766  11.864  0.00  0.00    +0.000 A 
ATOM      4  F   UNL     1      48.175   7.701  11.398  0.00  0.00    +0.000 F 
ATOM      5  C   UNL     1      46.235   6.390  11.091  0.00  0.00    +0.000 A 
ATOM      6  C   UNL     1      45.346   5.412  11.556  0.00  0.00    +0.000 A 
ATOM      7  C   UNL     1      45.619   4.838  12.806  0.00  0.00    +0.000 A 
ENDROOT
BRANCH   6   8
ATOM      8  C   UNL     1      44.143   4.998  10.719  0.00  0.00    +0.000 C 
ATOM      9  C   UNL     1      43.049   4.268  11.517  0.00  0.00    +0.000 C 
ATOM     10  C   UNL     1      43.349   2.791  11.772  0.00  0.00    +0.000 C 
ATOM     11  N   UNL     1      43.735   2.059  10.564  0.00  0.00    +0.000 NA
ATOM     12  C   UNL     1      44.796   2.699   9.788  0.00  0.00    +0.000 C 
ATOM     13  C   UNL     1      44.517   4.170   9.479  0.00  0.00    +0.000 C 
ATOM     14  H   UNL     1      42.911   1.962   9.970  0.00  0.00    +0.000 HD
ENDBRANCH   6   8
BRANCH   1  15
ATOM     15  C   UNL     1      46.937   4.512  14.909  0.00  0.00    +0.000 C 
BRANCH  15  16
ATOM     16  O   UNL     1      48.159   4.973  15.479  0.00  0.00    +0.000 OA
BRANCH  16  21
ATOM     17  C   UNL     1      48.159   5.324  19.170  0.00  0.00    +0.000 A 
ATOM     18  C   UNL     1      48.778   4.114  19.449  0.00  0.00    +0.000 A 
ATOM     19  N   UNL     1      49.159   3.233  18.493  0.00  0.00    +0.000 NA
ATOM     20  C   UNL     1      48.918   3.594  17.209  0.00  0.00    +0.000 A 
ATOM     21  C   UNL     1      48.318   4.792  16.823  0.00  0.00    +0.000 A 
ATOM     22  C   UNL     1      47.942   5.676  17.833  0.00  0.00    +0.000 A 
BRANCH  17  24
ATOM     23  N   UNL     1      47.020   5.622  21.295  0.00  0.00    +0.000 N 
ATOM     24  C   UNL     1      47.763   6.190  20.299  0.00  0.00    +0.000 C 
ATOM     25  O   UNL     1      48.122   7.360  20.366  0.00  0.00    +0.000 OA
ATOM     26  H   UNL     1      46.873   6.195  22.119  0.00  0.00    +0.000 HD
ATOM     27  H   UNL     1      46.951   4.620  21.415  0.00  0.00    +0.000 HD
ENDBRANCH  17  24
ENDBRANCH  16  21
ENDBRANCH  15  16
ENDBRANCH   1  15
TORSDOF 5
ENDMDL
MODEL 7
REMARK VINA RESULT:    -6.988      3.679      7.315
REMARK INTER + INTRA:          -9.303
REMARK INTER:                  -8.879
REMARK INTRA:                  -0.424
REMARK UNBOUND:                -0.272
REMARK  Name = 
REMARK  5 active torsions:
REMARK  status: ('A' for Active; 'I' for Inactive)
REMARK    1  A    between atoms: C_2  and  C_4
REMARK    2  A    between atoms: C_8  and  O_9
REMARK    3  A    between atoms: O_9  and  C_10
REMARK    4  A    between atoms: C_10  and  C_11
REMARK    5  A    between atoms: C_16  and  C_17
REMARK                            x       y       z     vdW  Elec       q    Type
REMARK                         _______ _______ _______ _____ _____    ______ ____
ROOT
ATOM      1  C   UNL     1      47.340   6.743  12.240  0.00  0.00    +0.000 A 
ATOM      2  C   UNL     1      47.500   6.047  13.437  0.00  0.00    +0.000 A 
ATOM      3  C   UNL     1      46.593   5.043  13.770  0.00  0.00    +0.000 A 
ATOM      4  F   UNL     1      46.739   4.391  14.932  0.00  0.00    +0.000 F 
ATOM      5  C   UNL     1      45.534   4.707  12.926  0.00  0.00    +0.000 A 
ATOM      6  C   UNL     1      45.360   5.379  11.710  0.00  0.00    +0.000 A 
ATOM      7  C   UNL     1      46.281   6.388  11.395  0.00  0.00    +0.000 A 
ENDROOT
BRANCH   6   8
ATOM      8  C   UNL     1      44.207   5.016  10.783  0.00  0.00    +0.000 C 
ATOM      9  C   UNL     1      43.070   4.244  11.473  0.00  0.00    +0.000 C 
ATOM     10  C   UNL     1      43.356   2.755  11.659  0.00  0.00    +0.000 C 
ATOM     11  N   UNL     1      43.811   2.093  10.435  0.00  0.00    +0.000 NA
ATOM     12  C   UNL     1      44.915   2.774   9.760  0.00  0.00    +0.000 C 
ATOM     13  C   UNL     1      44.652   4.261   9.520  0.00  0.00    +0.000 C 
ATOM     14  H   UNL     1      43.023   2.032   9.790  0.00  0.00    +0.000 HD
ENDBRANCH   6   8
BRANCH   1  15
ATOM     15  C   UNL     1      48.267   7.853  11.815  0.00  0.00    +0.000 C 
BRANCH  15  16
ATOM     16  O   UNL     1      48.008   9.003  12.615  0.00  0.00    +0.000 OA
BRANCH  16  21
ATOM     17  C   UNL     1      44.873  10.702  11.603  0.00  0.00    +0.000 A 
ATOM     18  C   UNL     1      45.462  11.871  11.143  0.00  0.00    +0.000 A 
ATOM     19  N   UNL     1      46.797  12.096  11.173  0.00  0.00    +0.000 NA
ATOM     20  C   UNL     1      47.566  11.097  11.674  0.00  0.00    +0.000 A 
ATOM     21  C   UNL     1      47.075   9.881  12.146  0.00  0.00    +0.000 A 
ATOM     22  C   UNL     1      45.696   9.684  12.097  0.00  0.00    +0.000 A 
BRANCH  17  24
ATOM     23  N   UNL     1      42.885   9.466  10.953  0.00  0.00    +0.000 N 
ATOM     24  C   UNL     1      43.402  10.584  11.544  0.00  0.00    +0.000 C 
ATOM     25  O   UNL     1      42.670  11.432  12.044  0.00  0.00    +0.000 OA
ATOM     26  H   UNL     1      41.883   9.342  11.042  0.00  0.00    +0.000 HD
ATOM     27  H   UNL     1      43.438   8.634  10.793  0.00  0.00    +0.000 HD
ENDBRANCH  17  24
ENDBRANCH  16  21
ENDBRANCH  15  16
ENDBRANCH   1  15
TORSDOF 5
ENDMDL
MODEL 8
REMARK VINA RESULT:    -6.899      4.044      7.856
REMARK INTER + INTRA:          -9.188
REMARK INTER:                  -8.679
REMARK INTRA:                  -0.509
REMARK UNBOUND:                -0.272
REMARK  Name = 
REMARK  5 active torsions:
REMARK  status: ('A' for Active; 'I' for Inactive)
REMARK    1  A    between atoms: C_2  and  C_4
REMARK    2  A    between atoms: C_8  and  O_9
REMARK    3  A    between atoms: O_9  and  C_10
REMARK    4  A    between atoms: C_10  and  C_11
REMARK    5  A    between atoms: C_16  and  C_17
REMARK                            x       y       z     vdW  Elec       q    Type
REMARK                         _______ _______ _______ _____ _____    ______ ____
ROOT
ATOM      1  C   UNL     1      47.571   7.205  13.332  0.00  0.00    +0.000 A 
ATOM      2  C   UNL     1      46.997   8.293  12.677  0.00  0.00    +0.000 A 
ATOM      3  C   UNL     1      45.705   8.180  12.170  0.00  0.00    +0.000 A 
ATOM      4  F   UNL     1      45.165   9.222  11.522  0.00  0.00    +0.000 F 
ATOM      5  C   UNL     1      44.964   7.006  12.313  0.00  0.00    +0.000 A 
ATOM      6  C   UNL     1      45.510   5.904  12.983  0.00  0.00    +0.000 A 
ATOM      7  C   UNL     1      46.814   6.037  13.482  0.00  0.00    +0.000 A 
ENDROOT
BRANCH   6   8
ATOM      8  C   UNL     1      44.707   4.620  13.145  0.00  0.00    +0.000 C 
ATOM      9  C   UNL     1      45.208   3.455  12.275  0.00  0.00    +0.000 C 
ATOM     10  C   UNL     1      44.751   3.528  10.819  0.00  0.00    +0.000 C 
ATOM     11  N   UNL     1      43.312   3.748  10.672  0.00  0.00    +0.000 NA
ATOM     12  C   UNL     1      42.793   4.868  11.456  0.00  0.00    +0.000 C 
ATOM     13  C   UNL     1      43.197   4.813  12.930  0.00  0.00    +0.000 C 
ATOM     14  H   UNL     1      42.825   2.898  10.957  0.00  0.00    +0.000 HD
ENDBRANCH   6   8
BRANCH   1  15
ATOM     15  C   UNL     1      48.969   7.241  13.895  0.00  0.00    +0.000 C 
BRANCH  15  16
ATOM     16  O   UNL     1      48.894   7.443  15.304  0.00  0.00    +0.000 OA
BRANCH  16  21
ATOM     17  C   UNL     1      48.917   4.421  17.451  0.00  0.00    +0.000 A 
ATOM     18  C   UNL     1      50.290   4.367  17.643  0.00  0.00    +0.000 A 
ATOM     19  N   UNL     1      51.155   5.254  17.096  0.00  0.00    +0.000 NA
ATOM     20  C   UNL     1      50.611   6.238  16.338  0.00  0.00    +0.000 A 
ATOM     21  C   UNL     1      49.247   6.389  16.096  0.00  0.00    +0.000 A 
ATOM     22  C   UNL     1      48.385   5.460  16.678  0.00  0.00    +0.000 A 
BRANCH  17  24
ATOM     23  N   UNL     1      48.303   3.099  19.394  0.00  0.00    +0.000 N 
ATOM     24  C   UNL     1      48.077   3.380  18.076  0.00  0.00    +0.000 C 
ATOM     25  O   UNL     1      47.181   2.819  17.454  0.00  0.00    +0.000 OA
ATOM     26  H   UNL     1      47.632   2.480  19.836  0.00  0.00    +0.000 HD
ATOM     27  H   UNL     1      48.820   3.722  20.000  0.00  0.00    +0.000 HD
ENDBRANCH  17  24
ENDBRANCH  16  21
ENDBRANCH  15  16
ENDBRANCH   1  15
TORSDOF 5
ENDMDL
MODEL 9
REMARK VINA RESULT:    -6.848      3.339      4.942
REMARK INTER + INTRA:          -9.122
REMARK INTER:                  -8.468
REMARK INTRA:                  -0.654
REMARK UNBOUND:                -0.272
REMARK  Name = 
REMARK  5 active torsions:
REMARK  status: ('A' for Active; 'I' for Inactive)
REMARK    1  A    between atoms: C_2  and  C_4
REMARK    2  A    between atoms: C_8  and  O_9
REMARK    3  A    between atoms: O_9  and  C_10
REMARK    4  A    between atoms: C_10  and  C_11
REMARK    5  A    between atoms: C_16  and  C_17
REMARK                            x       y       z     vdW  Elec       q    Type
REMARK                         _______ _______ _______ _____ _____    ______ ____
ROOT
ATOM      1  C   UNL     1      47.754   7.069  13.632  0.00  0.00    +0.000 A 
ATOM      2  C   UNL     1      48.071   8.416  13.796  0.00  0.00    +0.000 A 
ATOM      3  C   UNL     1      48.705   8.831  14.965  0.00  0.00    +0.000 A 
ATOM      4  F   UNL     1      48.988  10.131  15.128  0.00  0.00    +0.000 F 
ATOM      5  C   UNL     1      49.043   7.927  15.973  0.00  0.00    +0.000 A 
ATOM      6  C   UNL     1      48.752   6.564  15.826  0.00  0.00    +0.000 A 
ATOM      7  C   UNL     1      48.110   6.168  14.644  0.00  0.00    +0.000 A 
ENDROOT
BRANCH   6   8
ATOM      8  C   UNL     1      49.120   5.571  16.920  0.00  0.00    +0.000 C 
ATOM      9  C   UNL     1      48.476   4.185  16.748  0.00  0.00    +0.000 C 
ATOM     10  C   UNL     1      47.021   4.116  17.209  0.00  0.00    +0.000 C 
ATOM     11  N   UNL     1      46.809   4.661  18.550  0.00  0.00    +0.000 NA
ATOM     12  C   UNL     1      47.377   5.993  18.753  0.00  0.00    +0.000 C 
ATOM     13  C   UNL     1      48.845   6.095  18.339  0.00  0.00    +0.000 C 
ATOM     14  H   UNL     1      47.229   4.022  19.227  0.00  0.00    +0.000 HD
ENDBRANCH   6   8
BRANCH   1  15
ATOM     15  C   UNL     1      47.054   6.543  12.405  0.00  0.00    +0.000 C 
BRANCH  15  16
ATOM     16  O   UNL     1      45.665   6.405  12.690  0.00  0.00    +0.000 OA
BRANCH  16  21
ATOM     17  C   UNL     1      44.413   3.600  10.613  0.00  0.00    +0.000 A 
ATOM     18  C   UNL     1      43.700   2.959  11.617  0.00  0.00    +0.000 A 
ATOM     19  N   UNL     1      43.642   3.407  12.894  0.00  0.00    +0.000 NA
ATOM     20  C   UNL     1      44.319   4.551  13.163  0.00  0.00    +0.000 A 
ATOM     21  C   UNL     1      45.050   5.278  12.225  0.00  0.00    +0.000 A 
ATOM     22  C   UNL     1      45.085   4.789  10.920  0.00  0.00    +0.000 A 
BRANCH  17  24
ATOM     23  N   UNL     1      44.309   3.848   8.199  0.00  0.00    +0.000 N 
ATOM     24  C   UNL     1      44.425   3.000   9.265  0.00  0.00    +0.000 C 
ATOM     25  O   UNL     1      44.577   1.794   9.101  0.00  0.00    +0.000 OA
ATOM     26  H   UNL     1      44.452   3.432   7.285  0.00  0.00    +0.000 HD
ATOM     27  H   UNL     1      44.468   4.843   8.280  0.00  0.00    +0.000 HD
ENDBRANCH  17  24
ENDBRANCH  16  21
ENDBRANCH  15  16
ENDBRANCH   1  15
TORSDOF 5
ENDMDL
