MODEL 1
REMARK VINA RESULT:    -7.388      0.000      0.000
REMARK INTER + INTRA:         -10.282
REMARK INTER:                  -9.547
REMARK INTRA:                  -0.735
REMARK UNBOUND:                -0.735
REMARK  Name = 
REMARK  8 active torsions:
REMARK  status: ('A' for Active; 'I' for Inactive)
REMARK    1  A    between atoms: C_1  and  C_2
REMARK    2  A    between atoms: C_2  and  C_3
REMARK    3  A    between atoms: C_2  and  C_4
REMARK    4  A    between atoms: C_2  and  C_5
REMARK    5  A    between atoms: C_8  and  O_9
REMARK    6  A    between atoms: O_9  and  C_10
REMARK    7  A    between atoms: C_10  and  C_11
REMARK    8  A    between atoms: C_16  and  N_17
REMARK                            x       y       z     vdW  Elec       q    Type
REMARK                         _______ _______ _______ _____ _____    ______ ____
ROOT
ATOM      1  C   UNL     1      46.575   6.661  12.712  0.00  0.00    +0.000 C 
ATOM      2  C   UNL     1      46.690   7.883  11.815  0.00  0.00    +0.000 C 
ATOM      3  C   UNL     1      46.018   8.005  13.142  0.00  0.00    +0.000 C 
ENDROOT
BRANCH   1   4
ATOM      4  C   UNL     1      45.608   5.540  12.353  0.00  0.00    +0.000 A 
ATOM      5  C   UNL     1      44.607   5.126  13.241  0.00  0.00    +0.000 A 
ATOM      6  C   UNL     1      43.680   4.154  12.869  0.00  0.00    +0.000 A 
ATOM      7  C   UNL     1      43.742   3.579  11.598  0.00  0.00    +0.000 A 
ATOM      8  F   UNL     1      42.832   2.634  11.308  0.00  0.00    +0.000 F 
ATOM      9  C   UNL     1      44.724   3.935  10.660  0.00  0.00    +0.000 A 
ATOM     10  C   UNL     1      45.639   4.920  11.079  0.00  0.00    +0.000 A 
BRANCH   9  11
ATOM     11  N   UNL     1      44.799   3.382   9.390  0.00  0.00    +0.000 N 
ATOM     12  C   UNL     1      44.788   1.940   9.154  0.00  0.00    +0.000 C 
ATOM     13  C   UNL     1      46.085   1.513   8.469  0.00  0.00    +0.000 C 
ATOM     14  C   UNL     1      46.334   2.334   7.204  0.00  0.00    +0.000 C 
ATOM     15  C   UNL     1      46.285   3.831   7.505  0.00  0.00    +0.000 C 
ATOM     16  C   UNL     1      44.986   4.230   8.211  0.00  0.00    +0.000 C 
ENDBRANCH   9  11
ENDBRANCH   1   4
BRANCH   1  17
ATOM     17  O   UNL     1      47.895   6.278  13.171  0.00  0.00    +0.000 OA
BRANCH  17  21
ATOM     18  C   UNL     1      48.444   5.425  17.183  0.00  0.00    +0.000 A 
ATOM     19  C   UNL     1      48.904   6.626  16.624  0.00  0.00    +0.000 A 
ATOM     20  C   UNL     1      48.708   6.895  15.274  0.00  0.00    +0.000 A 
ATOM     21  C   UNL     1      48.039   5.959  14.506  0.00  0.00    +0.000 A 
ATOM     22  N   UNL     1      47.538   4.812  14.998  0.00  0.00    +0.000 NA
ATOM     23  C   UNL     1      47.761   4.570  16.313  0.00  0.00    +0.000 A 
BRANCH  18  25
ATOM     24  C   UNL     1      48.644   3.557  18.871  0.00  0.00    +0.000 C 
ATOM     25  C   UNL     1      48.734   5.081  18.648  0.00  0.00    +0.000 C 
ATOM     26  C   UNL     1      47.692   5.787  19.541  0.00  0.00    +0.000 C 
ATOM     27  C   UNL     1      50.132   5.534  19.124  0.00  0.00    +0.000 C 
ENDBRANCH  18  25
ENDBRANCH  17  21
ENDBRANCH   1  17
TORSDOF 5
ENDMDL
MODEL 2
REMARK VINA RESULT:    -7.045      2.166      8.178
REMARK INTER + INTRA:          -9.839
REMARK INTER:                 -10.322
REMARK INTRA:                   0.482
REMARK UNBOUND:                -0.735
REMARK  Name = 
REMARK  8 active torsions:
REMARK  status: ('A' for Active; 'I' for Inactive)
REMARK    1  A    between atoms: C_1  and  C_2
REMARK    2  A    between atoms: C_2  and  C_3
REMARK    3  A    between atoms: C_2  and  C_4
REMARK    4  A    between atoms: C_2  and  C_5
REMARK    5  A    between atoms: C_8  and  O_9
REMARK    6  A    between atoms: O_9  and  C_10
REMARK    7  A    between atoms: C_10  and  C_11
REMARK    8  A    between atoms: C_16  and  N_17
REMARK                            x       y       z     vdW  Elec       q    Type
REMARK                         _______ _______ _______ _____ _____    ______ ____
ROOT
ATOM      1  C   UNL     1      44.074   4.716  11.947  0.00  0.00    +0.000 C 
ATOM      2  C   UNL     1      43.553   3.441  12.591  0.00  0.00    +0.000 C 
ATOM      3  C   UNL     1      42.950   4.755  12.966  0.00  0.00    +0.000 C 
ENDROOT
BRANCH   1   4
ATOM      4  C   UNL     1      45.442   5.261  12.333  0.00  0.00    +0.000 A 
ATOM      5  C   UNL     1      46.096   6.220  11.548  0.00  0.00    +0.000 A 
ATOM      6  C   UNL     1      47.311   6.768  11.955  0.00  0.00    +0.000 A 
ATOM      7  C   UNL     1      47.893   6.363  13.157  0.00  0.00    +0.000 A 
ATOM      8  F   UNL     1      49.075   6.914  13.482  0.00  0.00    +0.000 F 
ATOM      9  C   UNL     1      47.303   5.399  13.989  0.00  0.00    +0.000 A 
ATOM     10  C   UNL     1      46.076   4.872  13.540  0.00  0.00    +0.000 A 
BRANCH   9  11
ATOM     11  N   UNL     1      47.860   4.987  15.192  0.00  0.00    +0.000 N 
ATOM     12  C   UNL     1      47.641   3.653  15.747  0.00  0.00    +0.000 C 
ATOM     13  C   UNL     1      46.950   3.761  17.106  0.00  0.00    +0.000 C 
ATOM     14  C   UNL     1      47.720   4.691  18.042  0.00  0.00    +0.000 C 
ATOM     15  C   UNL     1      47.960   6.051  17.388  0.00  0.00    +0.000 C 
ATOM     16  C   UNL     1      48.633   5.915  16.020  0.00  0.00    +0.000 C 
ENDBRANCH   9  11
ENDBRANCH   1   4
BRANCH   1  17
ATOM     17  O   UNL     1      43.733   4.714  10.538  0.00  0.00    +0.000 OA
BRANCH  17  21
ATOM     18  C   UNL     1      46.134   2.630   7.891  0.00  0.00    +0.000 A 
ATOM     19  C   UNL     1      46.044   4.029   7.846  0.00  0.00    +0.000 A 
ATOM     20  C   UNL     1      45.233   4.712   8.746  0.00  0.00    +0.000 A 
ATOM     21  C   UNL     1      44.534   3.979   9.689  0.00  0.00    +0.000 A 
ATOM     22  N   UNL     1      44.616   2.641   9.806  0.00  0.00    +0.000 NA
ATOM     23  C   UNL     1      45.401   2.004   8.903  0.00  0.00    +0.000 A 
BRANCH  18  25
ATOM     24  C   UNL     1      47.042   0.370   7.221  0.00  0.00    +0.000 C 
ATOM     25  C   UNL     1      46.955   1.865   6.847  0.00  0.00    +0.000 C 
ATOM     26  C   UNL     1      48.379   2.459   6.799  0.00  0.00    +0.000 C 
ATOM     27  C   UNL     1      46.371   1.948   5.419  0.00  0.00    +0.000 C 
ENDBRANCH  18  25
ENDBRANCH  17  21
ENDBRANCH   1  17
TORSDOF 5
ENDMDL
MODEL 3
REMARK VINA RESULT:    -6.868      3.251      8.181
REMARK INTER + INTRA:          -9.611
REMARK INTER:                  -9.576
REMARK INTRA:                  -0.034
REMARK UNBOUND:                -0.735
REMARK  Name = 
REMARK  8 active torsions:
REMARK  status: ('A' for Active; 'I' for Inactive)
REMARK    1  A    between atoms: C_1  and  C_2
REMARK    2  A    between atoms: C_2  and  C_3
REMARK    3  A    between atoms: C_2  and  C_4
REMARK    4  A    between atoms: C_2  and  C_5
REMARK    5  A    between atoms: C_8  and  O_9
REMARK    6  A    between atoms: O_9  and  C_10
REMARK    7  A    between atoms: C_10  and  C_11
REMARK    8  A    between atoms: C_16  and  N_17
REMARK                            x       y       z     vdW  Elec       q    Type
REMARK                         _______ _______ _______ _____ _____    ______ ____
ROOT
ATOM      1  C   UNL     1      44.441   4.820  11.709  0.00  0.00    +0.000 C 
ATOM      2  C   UNL     1      45.010   3.544  12.310  0.00  0.00    +0.000 C 
ATOM      3  C   UNL     1      43.853   4.217  12.971  0.00  0.00    +0.000 C 
ENDROOT
BRANCH   1   4
ATOM      4  C   UNL     1      45.223   6.123  11.808  0.00  0.00    +0.000 A 
ATOM      5  C   UNL     1      44.602   7.365  11.620  0.00  0.00    +0.000 A 
ATOM      6  C   UNL     1      45.312   8.551  11.791  0.00  0.00    +0.000 A 
ATOM      7  C   UNL     1      46.661   8.514  12.151  0.00  0.00    +0.000 A 
ATOM      8  F   UNL     1      47.294   9.692  12.280  0.00  0.00    +0.000 F 
ATOM      9  C   UNL     1      47.353   7.308  12.344  0.00  0.00    +0.000 A 
ATOM     10  C   UNL     1      46.596   6.134  12.162  0.00  0.00    +0.000 A 
BRANCH   9  11
ATOM     11  N   UNL     1      48.689   7.247  12.710  0.00  0.00    +0.000 N 
ATOM     12  C   UNL     1      49.121   7.066  14.094  0.00  0.00    +0.000 C 
ATOM     13  C   UNL     1      49.954   8.266  14.542  0.00  0.00    +0.000 C 
ATOM     14  C   UNL     1      51.108   8.525  13.574  0.00  0.00    +0.000 C 
ATOM     15  C   UNL     1      50.600   8.656  12.139  0.00  0.00    +0.000 C 
ATOM     16  C   UNL     1      49.751   7.452  11.722  0.00  0.00    +0.000 C 
ENDBRANCH   9  11
ENDBRANCH   1   4
BRANCH   1  17
ATOM     17  O   UNL     1      43.817   4.513  10.438  0.00  0.00    +0.000 OA
BRANCH  17  21
ATOM     18  C   UNL     1      46.189   2.741   7.548  0.00  0.00    +0.000 A 
ATOM     19  C   UNL     1      45.309   1.982   8.334  0.00  0.00    +0.000 A 
ATOM     20  C   UNL     1      44.519   2.597   9.299  0.00  0.00    +0.000 A 
ATOM     21  C   UNL     1      44.613   3.969   9.451  0.00  0.00    +0.000 A 
ATOM     22  N   UNL     1      45.405   4.751   8.696  0.00  0.00    +0.000 NA
ATOM     23  C   UNL     1      46.176   4.120   7.777  0.00  0.00    +0.000 A 
BRANCH  18  25
ATOM     24  C   UNL     1      47.211   0.546   6.830  0.00  0.00    +0.000 C 
ATOM     25  C   UNL     1      47.127   2.061   6.545  0.00  0.00    +0.000 C 
ATOM     26  C   UNL     1      48.534   2.680   6.680  0.00  0.00    +0.000 C 
ATOM     27  C   UNL     1      46.687   2.228   5.074  0.00  0.00    +0.000 C 
ENDBRANCH  18  25
ENDBRANCH  17  21
ENDBRANCH   1  17
TORSDOF 5
ENDMDL
MODEL 4
REMARK VINA RESULT:    -6.691      3.216      7.995
REMARK INTER + INTRA:          -9.382
REMARK INTER:                  -9.672
REMARK INTRA:                   0.290
REMARK UNBOUND:                -0.735
REMARK  Name = 
REMARK  8 active torsions:
REMARK  status: ('A' for Active; 'I' for Inactive)
REMARK    1  A    between atoms: C_1  and  C_2
REMARK    2  A    between atoms: C_2  and  C_3
REMARK    3  A    between atoms: C_2  and  C_4
REMARK    4  A    between atoms: C_2  and  C_5
REMARK    5  A    between atoms: C_8  and  O_9
REMARK    6  A    between atoms: O_9  and  C_10
REMARK    7  A    between atoms: C_10  and  C_11
REMARK    8  A    between atoms: C_16  and  N_17
REMARK                            x       y       z     vdW  Elec       q    Type
REMARK                         _______ _______ _______ _____ _____    ______ ____
ROOT
ATOM      1  C   UNL     1      44.117   4.655  11.859  0.00  0.00    +0.000 C 
ATOM      2  C   UNL     1      43.660   3.239  12.172  0.00  0.00    +0.000 C 
ATOM      3  C   UNL     1      42.935   4.396  12.774  0.00  0.00    +0.000 C 
ENDROOT
BRANCH   1   4
ATOM      4  C   UNL     1      45.413   5.187  12.458  0.00  0.00    +0.000 A 
ATOM      5  C   UNL     1      46.081   4.502  13.481  0.00  0.00    +0.000 A 
ATOM      6  C   UNL     1      47.305   4.959  13.965  0.00  0.00    +0.000 A 
ATOM      7  C   UNL     1      47.881   6.114  13.432  0.00  0.00    +0.000 A 
ATOM      8  F   UNL     1      49.052   6.513  13.956  0.00  0.00    +0.000 F 
ATOM      9  C   UNL     1      47.264   6.859  12.415  0.00  0.00    +0.000 A 
ATOM     10  C   UNL     1      46.029   6.361  11.956  0.00  0.00    +0.000 A 
BRANCH   9  11
ATOM     11  N   UNL     1      47.822   8.005  11.865  0.00  0.00    +0.000 N 
ATOM     12  C   UNL     1      49.084   7.992  11.127  0.00  0.00    +0.000 C 
ATOM     13  C   UNL     1      50.106   8.884  11.830  0.00  0.00    +0.000 C 
ATOM     14  C   UNL     1      49.548  10.288  12.057  0.00  0.00    +0.000 C 
ATOM     15  C   UNL     1      48.207  10.233  12.787  0.00  0.00    +0.000 C 
ATOM     16  C   UNL     1      47.207   9.317  12.075  0.00  0.00    +0.000 C 
ENDBRANCH   9  11
ENDBRANCH   1   4
BRANCH   1  17
ATOM     17  O   UNL     1      43.864   4.943  10.462  0.00  0.00    +0.000 OA
BRANCH  17  21
ATOM     18  C   UNL     1      46.097   2.785   7.728  0.00  0.00    +0.000 A 
ATOM     19  C   UNL     1      45.151   2.158   8.553  0.00  0.00    +0.000 A 
ATOM     20  C   UNL     1      44.409   2.901   9.464  0.00  0.00    +0.000 A 
ATOM     21  C   UNL     1      44.617   4.267   9.524  0.00  0.00    +0.000 A 
ATOM     22  N   UNL     1      45.478   4.927   8.729  0.00  0.00    +0.000 NA
ATOM     23  C   UNL     1      46.199   4.172   7.864  0.00  0.00    +0.000 A 
BRANCH  18  25
ATOM     24  C   UNL     1      47.051   0.494   7.259  0.00  0.00    +0.000 C 
ATOM     25  C   UNL     1      46.982   1.962   6.786  0.00  0.00    +0.000 C 
ATOM     26  C   UNL     1      48.403   2.562   6.784  0.00  0.00    +0.000 C 
ATOM     27  C   UNL     1      46.484   1.950   5.323  0.00  0.00    +0.000 C 
ENDBRANCH  18  25
ENDBRANCH  17  21
ENDBRANCH   1  17
TORSDOF 5
ENDMDL
MODEL 5
REMARK VINA RESULT:    -6.686      2.145      3.355
REMARK INTER + INTRA:          -9.376
REMARK INTER:                  -7.967
REMARK INTRA:                  -1.409
REMARK UNBOUND:                -0.735
REMARK  Name = 
REMARK  8 active torsions:
REMARK  status: ('A' for Active; 'I' for Inactive)
REMARK    1  A    between atoms: C_1  and  C_2
REMARK    2  A    between atoms: C_2  and  C_3
REMARK    3  A    between atoms: C_2  and  C_4
REMARK    4  A    between atoms: C_2  and  C_5
REMARK    5  A    between atoms: C_8  and  O_9
REMARK    6  A    between atoms: O_9  and  C_10
REMARK    7  A    between atoms: C_10  and  C_11
REMARK    8  A    between atoms: C_16  and  N_17
REMARK                            x       y       z     vdW  Elec       q    Type
REMARK                         _______ _______ _______ _____ _____    ______ ____
ROOT
ATOM      1  C   UNL     1      49.290   8.381  12.614  0.00  0.00    +0.000 C 
ATOM      2  C   UNL     1      50.153   8.704  11.404  0.00  0.00    +0.000 C 
ATOM      3  C   UNL     1      49.786   9.793  12.358  0.00  0.00    +0.000 C 
ENDROOT
BRANCH   1   4
ATOM      4  C   UNL     1      47.810   8.074  12.434  0.00  0.00    +0.000 A 
ATOM      5  C   UNL     1      46.835   9.072  12.559  0.00  0.00    +0.000 A 
ATOM      6  C   UNL     1      45.492   8.793  12.314  0.00  0.00    +0.000 A 
ATOM      7  C   UNL     1      45.101   7.505  11.941  0.00  0.00    +0.000 A 
ATOM      8  F   UNL     1      43.790   7.296  11.739  0.00  0.00    +0.000 F 
ATOM      9  C   UNL     1      46.020   6.452  11.808  0.00  0.00    +0.000 A 
ATOM     10  C   UNL     1      47.366   6.779  12.064  0.00  0.00    +0.000 A 
BRANCH   9  11
ATOM     11  N   UNL     1      45.656   5.167  11.431  0.00  0.00    +0.000 N 
ATOM     12  C   UNL     1      45.335   4.811  10.050  0.00  0.00    +0.000 C 
ATOM     13  C   UNL     1      43.896   4.307   9.963  0.00  0.00    +0.000 C 
ATOM     14  C   UNL     1      43.650   3.172  10.956  0.00  0.00    +0.000 C 
ATOM     15  C   UNL     1      44.050   3.587  12.371  0.00  0.00    +0.000 C 
ATOM     16  C   UNL     1      45.488   4.109  12.428  0.00  0.00    +0.000 C 
ENDBRANCH   9  11
ENDBRANCH   1   4
BRANCH   1  17
ATOM     17  O   UNL     1      50.039   7.538  13.524  0.00  0.00    +0.000 OA
BRANCH  17  21
ATOM     18  C   UNL     1      48.581   7.128  17.374  0.00  0.00    +0.000 A 
ATOM     19  C   UNL     1      49.025   8.368  16.892  0.00  0.00    +0.000 A 
ATOM     20  C   UNL     1      49.509   8.486  15.594  0.00  0.00    +0.000 A 
ATOM     21  C   UNL     1      49.528   7.358  14.793  0.00  0.00    +0.000 A 
ATOM     22  N   UNL     1      49.075   6.155  15.188  0.00  0.00    +0.000 NA
ATOM     23  C   UNL     1      48.626   6.068  16.464  0.00  0.00    +0.000 A 
BRANCH  18  25
ATOM     24  C   UNL     1      47.122   5.808  18.958  0.00  0.00    +0.000 C 
ATOM     25  C   UNL     1      48.129   6.971  18.831  0.00  0.00    +0.000 C 
ATOM     26  C   UNL     1      47.453   8.281  19.287  0.00  0.00    +0.000 C 
ATOM     27  C   UNL     1      49.289   6.684  19.810  0.00  0.00    +0.000 C 
ENDBRANCH  18  25
ENDBRANCH  17  21
ENDBRANCH   1  17
TORSDOF 5
ENDMDL
MODEL 6
REMARK VINA RESULT:    -6.385      3.140      7.444
REMARK INTER + INTRA:          -8.987
REMARK INTER:                  -7.633
REMARK INTRA:                  -1.354
REMARK UNBOUND:                -0.735
REMARK  Name = 
REMARK  8 active torsions:
REMARK  status: ('A' for Active; 'I' for Inactive)
REMARK    1  A    between atoms: C_1  and  C_2
REMARK    2  A    between atoms: C_2  and  C_3
REMARK    3  A    between atoms: C_2  and  C_4
REMARK    4  A    between atoms: C_2  and  C_5
REMARK    5  A    between atoms: C_8  and  O_9
REMARK    6  A    between atoms: O_9  and  C_10
REMARK    7  A    between atoms: C_10  and  C_11
REMARK    8  A    between atoms: C_16  and  N_17
REMARK                            x       y       z     vdW  Elec       q    Type
REMARK                         _______ _______ _______ _____ _____    ______ ____
ROOT
ATOM      1  C   UNL     1      49.466   8.856  14.796  0.00  0.00    +0.000 C 
ATOM      2  C   UNL     1      50.575   9.894  14.754  0.00  0.00    +0.000 C 
ATOM      3  C   UNL     1      50.871   8.484  14.363  0.00  0.00    +0.000 C 
ENDROOT
BRANCH   1   4
ATOM      4  C   UNL     1      48.947   8.349  16.136  0.00  0.00    +0.000 A 
ATOM      5  C   UNL     1      48.327   9.209  17.052  0.00  0.00    +0.000 A 
ATOM      6  C   UNL     1      47.786   8.718  18.239  0.00  0.00    +0.000 A 
ATOM      7  C   UNL     1      47.860   7.354  18.529  0.00  0.00    +0.000 A 
ATOM      8  F   UNL     1      47.338   6.947  19.699  0.00  0.00    +0.000 F 
ATOM      9  C   UNL     1      48.476   6.435  17.665  0.00  0.00    +0.000 A 
ATOM     10  C   UNL     1      49.008   6.975  16.478  0.00  0.00    +0.000 A 
BRANCH   9  11
ATOM     11  N   UNL     1      48.553   5.075  17.929  0.00  0.00    +0.000 N 
ATOM     12  C   UNL     1      49.729   4.454  18.536  0.00  0.00    +0.000 C 
ATOM     13  C   UNL     1      50.321   3.417  17.583  0.00  0.00    +0.000 C 
ATOM     14  C   UNL     1      49.261   2.409  17.141  0.00  0.00    +0.000 C 
ATOM     15  C   UNL     1      48.039   3.119  16.561  0.00  0.00    +0.000 C 
ATOM     16  C   UNL     1      47.478   4.168  17.525  0.00  0.00    +0.000 C 
ENDBRANCH   9  11
ENDBRANCH   1   4
BRANCH   1  17
ATOM     17  O   UNL     1      48.484   9.162  13.776  0.00  0.00    +0.000 OA
BRANCH  17  21
ATOM     18  C   UNL     1      45.940   6.148  12.525  0.00  0.00    +0.000 A 
ATOM     19  C   UNL     1      45.454   7.424  12.845  0.00  0.00    +0.000 A 
ATOM     20  C   UNL     1      46.326   8.425  13.262  0.00  0.00    +0.000 A 
ATOM     21  C   UNL     1      47.676   8.133  13.337  0.00  0.00    +0.000 A 
ATOM     22  N   UNL     1      48.202   6.942  13.000  0.00  0.00    +0.000 NA
ATOM     23  C   UNL     1      47.325   5.983  12.615  0.00  0.00    +0.000 A 
BRANCH  18  25
ATOM     24  C   UNL     1      44.725   5.006  10.628  0.00  0.00    +0.000 C 
ATOM     25  C   UNL     1      44.977   5.016  12.151  0.00  0.00    +0.000 C 
ATOM     26  C   UNL     1      43.638   5.238  12.885  0.00  0.00    +0.000 C 
ATOM     27  C   UNL     1      45.491   3.613  12.541  0.00  0.00    +0.000 C 
ENDBRANCH  18  25
ENDBRANCH  17  21
ENDBRANCH   1  17
TORSDOF 5
ENDMDL
MODEL 7
REMARK VINA RESULT:    -6.360      2.955      7.567
REMARK INTER + INTRA:          -8.954
REMARK INTER:                  -7.660
REMARK INTRA:                  -1.294
REMARK UNBOUND:                -0.735
REMARK  Name = 
REMARK  8 active torsions:
REMARK  status: ('A' for Active; 'I' for Inactive)
REMARK    1  A    between atoms: C_1  and  C_2
REMARK    2  A    between atoms: C_2  and  C_3
REMARK    3  A    between atoms: C_2  and  C_4
REMARK    4  A    between atoms: C_2  and  C_5
REMARK    5  A    between atoms: C_8  and  O_9
REMARK    6  A    between atoms: O_9  and  C_10
REMARK    7  A    between atoms: C_10  and  C_11
REMARK    8  A    between atoms: C_16  and  N_17
REMARK                            x       y       z     vdW  Elec       q    Type
REMARK                         _______ _______ _______ _____ _____    ______ ____
ROOT
ATOM      1  C   UNL     1      48.942   8.594  12.900  0.00  0.00    +0.000 C 
ATOM      2  C   UNL     1      50.058   9.483  12.375  0.00  0.00    +0.000 C 
ATOM      3  C   UNL     1      50.093   8.017  12.099  0.00  0.00    +0.000 C 
ENDROOT
BRANCH   1   4
ATOM      4  C   UNL     1      48.849   8.287  14.389  0.00  0.00    +0.000 A 
ATOM      5  C   UNL     1      48.581   9.292  15.328  0.00  0.00    +0.000 A 
ATOM      6  C   UNL     1      48.421   8.983  16.677  0.00  0.00    +0.000 A 
ATOM      7  C   UNL     1      48.529   7.660  17.110  0.00  0.00    +0.000 A 
ATOM      8  F   UNL     1      48.384   7.431  18.426  0.00  0.00    +0.000 F 
ATOM      9  C   UNL     1      48.808   6.603  16.229  0.00  0.00    +0.000 A 
ATOM     10  C   UNL     1      48.961   6.960  14.875  0.00  0.00    +0.000 A 
BRANCH   9  11
ATOM     11  N   UNL     1      48.911   5.280  16.636  0.00  0.00    +0.000 N 
ATOM     12  C   UNL     1      47.877   4.285  16.356  0.00  0.00    +0.000 C 
ATOM     13  C   UNL     1      47.316   3.733  17.665  0.00  0.00    +0.000 C 
ATOM     14  C   UNL     1      48.436   3.211  18.565  0.00  0.00    +0.000 C 
ATOM     15  C   UNL     1      49.508   4.277  18.780  0.00  0.00    +0.000 C 
ATOM     16  C   UNL     1      50.038   4.830  17.454  0.00  0.00    +0.000 C 
ENDBRANCH   9  11
ENDBRANCH   1   4
BRANCH   1  17
ATOM     17  O   UNL     1      47.709   8.916  12.210  0.00  0.00    +0.000 OA
BRANCH  17  21
ATOM     18  C   UNL     1      44.886   5.916  11.814  0.00  0.00    +0.000 A 
ATOM     19  C   UNL     1      46.073   5.902  11.067  0.00  0.00    +0.000 A 
ATOM     20  C   UNL     1      47.011   6.919  11.216  0.00  0.00    +0.000 A 
ATOM     21  C   UNL     1      46.749   7.928  12.125  0.00  0.00    +0.000 A 
ATOM     22  N   UNL     1      45.649   7.969  12.899  0.00  0.00    +0.000 NA
ATOM     23  C   UNL     1      44.747   6.974  12.717  0.00  0.00    +0.000 A 
BRANCH  18  25
ATOM     24  C   UNL     1      43.898   4.288  10.156  0.00  0.00    +0.000 C 
ATOM     25  C   UNL     1      43.809   4.849  11.591  0.00  0.00    +0.000 C 
ATOM     26  C   UNL     1      42.421   5.491  11.800  0.00  0.00    +0.000 C 
ATOM     27  C   UNL     1      43.915   3.652  12.561  0.00  0.00    +0.000 C 
ENDBRANCH  18  25
ENDBRANCH  17  21
ENDBRANCH   1  17
TORSDOF 5
ENDMDL
MODEL 8
REMARK VINA RESULT:    -6.114      4.779      7.684
REMARK INTER + INTRA:          -8.636
REMARK INTER:                  -7.513
REMARK INTRA:                  -1.123
REMARK UNBOUND:                -0.735
REMARK  Name = 
REMARK  8 active torsions:
REMARK  status: ('A' for Active; 'I' for Inactive)
REMARK    1  A    between atoms: C_1  and  C_2
REMARK    2  A    between atoms: C_2  and  C_3
REMARK    3  A    between atoms: C_2  and  C_4
REMARK    4  A    between atoms: C_2  and  C_5
REMARK    5  A    between atoms: C_8  and  O_9
REMARK    6  A    between atoms: O_9  and  C_10
REMARK    7  A    between atoms: C_10  and  C_11
REMARK    8  A    between atoms: C_16  and  N_17
REMARK                            x       y       z     vdW  Elec       q    Type
REMARK                         _______ _______ _______ _____ _____    ______ ____
ROOT
ATOM      1  C   UNL     1      48.967   7.836  13.567  0.00  0.00    +0.000 C 
ATOM      2  C   UNL     1      49.303   8.093  15.027  0.00  0.00    +0.000 C 
ATOM      3  C   UNL     1      48.004   8.577  14.474  0.00  0.00    +0.000 C 
ENDROOT
BRANCH   1   4
ATOM      4  C   UNL     1      49.693   8.606  12.471  0.00  0.00    +0.000 A 
ATOM      5  C   UNL     1      49.244   9.861  12.039  0.00  0.00    +0.000 A 
ATOM      6  C   UNL     1      49.962  10.589  11.093  0.00  0.00    +0.000 A 
ATOM      7  C   UNL     1      51.144  10.071  10.561  0.00  0.00    +0.000 A 
ATOM      8  F   UNL     1      51.778  10.813   9.638  0.00  0.00    +0.000 F 
ATOM      9  C   UNL     1      51.649   8.816  10.936  0.00  0.00    +0.000 A 
ATOM     10  C   UNL     1      50.892   8.115  11.896  0.00  0.00    +0.000 A 
BRANCH   9  11
ATOM     11  N   UNL     1      52.825   8.285  10.428  0.00  0.00    +0.000 N 
ATOM     12  C   UNL     1      52.865   7.479   9.209  0.00  0.00    +0.000 C 
ATOM     13  C   UNL     1      53.395   6.081   9.525  0.00  0.00    +0.000 C 
ATOM     14  C   UNL     1      54.738   6.153  10.251  0.00  0.00    +0.000 C 
ATOM     15  C   UNL     1      54.645   7.047  11.486  0.00  0.00    +0.000 C 
ATOM     16  C   UNL     1      54.092   8.434  11.147  0.00  0.00    +0.000 C 
ENDBRANCH   9  11
ENDBRANCH   1   4
BRANCH   1  17
ATOM     17  O   UNL     1      48.773   6.415  13.363  0.00  0.00    +0.000 OA
BRANCH  17  21
ATOM     18  C   UNL     1      45.107   5.042  12.023  0.00  0.00    +0.000 A 
ATOM     19  C   UNL     1      45.663   4.579  13.225  0.00  0.00    +0.000 A 
ATOM     20  C   UNL     1      46.896   5.054  13.659  0.00  0.00    +0.000 A 
ATOM     21  C   UNL     1      47.547   5.999  12.886  0.00  0.00    +0.000 A 
ATOM     22  N   UNL     1      47.041   6.511  11.749  0.00  0.00    +0.000 NA
ATOM     23  C   UNL     1      45.847   6.014  11.344  0.00  0.00    +0.000 A 
BRANCH  18  25
ATOM     24  C   UNL     1      43.528   3.074  12.123  0.00  0.00    +0.000 C 
ATOM     25  C   UNL     1      43.793   4.458  11.494  0.00  0.00    +0.000 C 
ATOM     26  C   UNL     1      43.897   4.307   9.961  0.00  0.00    +0.000 C 
ATOM     27  C   UNL     1      42.560   5.341  11.788  0.00  0.00    +0.000 C 
ENDBRANCH  18  25
ENDBRANCH  17  21
ENDBRANCH   1  17
TORSDOF 5
ENDMDL
MODEL 9
REMARK VINA RESULT:    -6.074      4.028      6.152
REMARK INTER + INTRA:          -8.584
REMARK INTER:                  -7.454
REMARK INTRA:                  -1.130
REMARK UNBOUND:                -0.735
REMARK  Name = 
REMARK  8 active torsions:
REMARK  status: ('A' for Active; 'I' for Inactive)
REMARK    1  A    between atoms: C_1  and  C_2
REMARK    2  A    between atoms: C_2  and  C_3
REMARK    3  A    between atoms: C_2  and  C_4
REMARK    4  A    between atoms: C_2  and  C_5
REMARK    5  A    between atoms: C_8  and  O_9
REMARK    6  A    between atoms: O_9  and  C_10
REMARK    7  A    between atoms: C_10  and  C_11
REMARK    8  A    between atoms: C_16  and  N_17
REMARK                            x       y       z     vdW  Elec       q    Type
REMARK                         _______ _______ _______ _____ _____    ______ ____
ROOT
ATOM      1  C   UNL     1      48.872   8.072  14.089  0.00  0.00    +0.000 C 
ATOM      2  C   UNL     1      48.986   8.122  15.604  0.00  0.00    +0.000 C 
ATOM      3  C   UNL     1      49.472   6.917  14.869  0.00  0.00    +0.000 C 
ENDROOT
BRANCH   1   4
ATOM      4  C   UNL     1      47.509   7.892  13.433  0.00  0.00    +0.000 A 
ATOM      5  C   UNL     1      46.668   8.984  13.183  0.00  0.00    +0.000 A 
ATOM      6  C   UNL     1      45.459   8.815  12.511  0.00  0.00    +0.000 A 
ATOM      7  C   UNL     1      45.070   7.545  12.079  0.00  0.00    +0.000 A 
ATOM      8  F   UNL     1      43.884   7.445  11.456  0.00  0.00    +0.000 F 
ATOM      9  C   UNL     1      45.855   6.403  12.305  0.00  0.00    +0.000 A 
ATOM     10  C   UNL     1      47.068   6.621  12.987  0.00  0.00    +0.000 A 
BRANCH   9  11
ATOM     11  N   UNL     1      45.493   5.133  11.878  0.00  0.00    +0.000 N 
ATOM     12  C   UNL     1      45.307   4.798  10.468  0.00  0.00    +0.000 C 
ATOM     13  C   UNL     1      43.870   4.341  10.226  0.00  0.00    +0.000 C 
ATOM     14  C   UNL     1      43.486   3.207  11.176  0.00  0.00    +0.000 C 
ATOM     15  C   UNL     1      43.749   3.598  12.629  0.00  0.00    +0.000 C 
ATOM     16  C   UNL     1      45.189   4.073  12.841  0.00  0.00    +0.000 C 
ENDBRANCH   9  11
ENDBRANCH   1   4
BRANCH   1  17
ATOM     17  O   UNL     1      49.763   9.056  13.509  0.00  0.00    +0.000 OA
BRANCH  17  21
ATOM     18  C   UNL     1      52.425   7.638  10.677  0.00  0.00    +0.000 A 
ATOM     19  C   UNL     1      51.039   7.547  10.483  0.00  0.00    +0.000 A 
ATOM     20  C   UNL     1      50.160   8.031  11.446  0.00  0.00    +0.000 A 
ATOM     21  C   UNL     1      50.688   8.614  12.585  0.00  0.00    +0.000 A 
ATOM     22  N   UNL     1      52.006   8.767  12.803  0.00  0.00    +0.000 NA
ATOM     23  C   UNL     1      52.836   8.268  11.854  0.00  0.00    +0.000 A 
BRANCH  18  25
ATOM     24  C   UNL     1      53.857   5.630  10.132  0.00  0.00    +0.000 C 
ATOM     25  C   UNL     1      53.398   7.027   9.662  0.00  0.00    +0.000 C 
ATOM     26  C   UNL     1      54.629   7.948   9.535  0.00  0.00    +0.000 C 
ATOM     27  C   UNL     1      52.796   6.862   8.249  0.00  0.00    +0.000 C 
ENDBRANCH  18  25
ENDBRANCH  17  21
ENDBRANCH   1  17
TORSDOF 5
ENDMDL
