MODEL 1
REMARK VINA RESULT:    -8.230      0.000      0.000
REMARK INTER + INTRA:         -12.437
REMARK INTER:                 -11.117
REMARK INTRA:                  -1.320
REMARK UNBOUND:                -1.320
REMARK  Name = 
REMARK  7 active torsions:
REMARK  status: ('A' for Active; 'I' for Inactive)
REMARK    1  A    between atoms: C_1  and  C_2
REMARK    2  A    between atoms: C_2  and  C_3
REMARK    3  A    between atoms: C_2  and  C_14
REMARK    4  A    between atoms: C_3  and  O_4
REMARK    5  A    between atoms: O_4  and  C_5
REMARK    6  A    between atoms: C_8  and  C_9
REMARK    7  A    between atoms: C_18  and  C_19
REMARK                            x       y       z     vdW  Elec       q    Type
REMARK                         _______ _______ _______ _____ _____    ______ ____
ROOT
ATOM      1  C   UNL     1      43.257   4.251  13.054  0.00  0.00    +0.000 C 
ATOM      2  C   UNL     1      43.705   5.359  12.097  0.00  0.00    +0.000 C 
ENDROOT
BRANCH   2   3
ATOM      3  C   UNL     1      45.154   5.735  12.385  0.00  0.00    +0.000 A 
ATOM      4  C   UNL     1      45.918   6.517  11.512  0.00  0.00    +0.000 A 
ATOM      5  C   UNL     1      47.266   6.761  11.791  0.00  0.00    +0.000 A 
ATOM      6  C   UNL     1      47.858   6.243  12.946  0.00  0.00    +0.000 A 
ATOM      7  C   UNL     1      47.112   5.491  13.870  0.00  0.00    +0.000 A 
ATOM      8  C   UNL     1      45.761   5.255  13.555  0.00  0.00    +0.000 A 
BRANCH   7   9
ATOM      9  C   UNL     1      47.678   5.012  15.156  0.00  0.00    +0.000 A 
ATOM     10  C   UNL     1      48.501   5.831  15.951  0.00  0.00    +0.000 A 
ATOM     11  C   UNL     1      48.919   5.432  17.224  0.00  0.00    +0.000 A 
ATOM     12  C   UNL     1      48.524   4.202  17.737  0.00  0.00    +0.000 A 
ATOM     13  C   UNL     1      47.747   3.350  16.959  0.00  0.00    +0.000 A 
ATOM     14  C   UNL     1      47.345   3.746  15.680  0.00  0.00    +0.000 A 
ENDBRANCH   7   9
ENDBRANCH   2   3
BRANCH   2  15
ATOM     15  C   UNL     1      43.451   4.962  10.635  0.00  0.00    +0.000 C 
BRANCH  15  16
ATOM     16  O   UNL     1      43.624   3.548  10.480  0.00  0.00    +0.000 OA
BRANCH  16  17
ATOM     17  C   UNL     1      44.513   3.219   9.478  0.00  0.00    +0.000 A 
ATOM     18  C   UNL     1      45.034   4.267   8.739  0.00  0.00    +0.000 A 
ATOM     19  C   UNL     1      45.998   3.982   7.770  0.00  0.00    +0.000 A 
ATOM     20  C   UNL     1      46.412   2.662   7.569  0.00  0.00    +0.000 A 
ATOM     21  C   UNL     1      45.798   1.682   8.335  0.00  0.00    +0.000 A 
ATOM     22  N   UNL     1      44.857   1.927   9.281  0.00  0.00    +0.000 NA
BRANCH  20  23
ATOM     23  C   UNL     1      47.494   2.384   6.591  0.00  0.00    +0.000 C 
ATOM     24  N   UNL     1      47.449   2.977   5.359  0.00  0.00    +0.000 N 
ATOM     25  O   UNL     1      48.411   1.619   6.865  0.00  0.00    +0.000 OA
ATOM     26  H   UNL     1      46.733   3.599   5.020  0.00  0.00    +0.000 HD
ATOM     27  H   UNL     1      48.186   2.723   4.714  0.00  0.00    +0.000 HD
ENDBRANCH  20  23
ENDBRANCH  16  17
ENDBRANCH  15  16
ENDBRANCH   2  15
TORSDOF 6
ENDMDL
MODEL 2
REMARK VINA RESULT:    -7.950      1.845      3.779
REMARK INTER + INTRA:         -12.059
REMARK INTER:                 -10.912
REMARK INTRA:                  -1.147
REMARK UNBOUND:                -1.320
REMARK  Name = 
REMARK  7 active torsions:
REMARK  status: ('A' for Active; 'I' for Inactive)
REMARK    1  A    between atoms: C_1  and  C_2
REMARK    2  A    between atoms: C_2  and  C_3
REMARK    3  A    between atoms: C_2  and  C_14
REMARK    4  A    between atoms: C_3  and  O_4
REMARK    5  A    between atoms: O_4  and  C_5
REMARK    6  A    between atoms: C_8  and  C_9
REMARK    7  A    between atoms: C_18  and  C_19
REMARK                            x       y       z     vdW  Elec       q    Type
REMARK                         _______ _______ _______ _____ _____    ______ ____
ROOT
ATOM      1  C   UNL     1      42.875   4.663  13.259  0.00  0.00    +0.000 C 
ATOM      2  C   UNL     1      43.705   5.120  12.058  0.00  0.00    +0.000 C 
ENDROOT
BRANCH   2   3
ATOM      3  C   UNL     1      45.144   5.373  12.491  0.00  0.00    +0.000 A 
ATOM      4  C   UNL     1      45.874   4.459  13.259  0.00  0.00    +0.000 A 
ATOM      5  C   UNL     1      47.162   4.783  13.694  0.00  0.00    +0.000 A 
ATOM      6  C   UNL     1      47.739   6.011  13.357  0.00  0.00    +0.000 A 
ATOM      7  C   UNL     1      47.055   6.938  12.549  0.00  0.00    +0.000 A 
ATOM      8  C   UNL     1      45.757   6.585  12.137  0.00  0.00    +0.000 A 
BRANCH   7   9
ATOM      9  C   UNL     1      47.673   8.205  12.086  0.00  0.00    +0.000 A 
ATOM     10  C   UNL     1      46.966   9.421  12.103  0.00  0.00    +0.000 A 
ATOM     11  C   UNL     1      47.590  10.635  11.800  0.00  0.00    +0.000 A 
ATOM     12  C   UNL     1      48.941  10.664  11.471  0.00  0.00    +0.000 A 
ATOM     13  C   UNL     1      49.658   9.475  11.402  0.00  0.00    +0.000 A 
ATOM     14  C   UNL     1      49.026   8.261  11.690  0.00  0.00    +0.000 A 
ENDBRANCH   7   9
ENDBRANCH   2   3
BRANCH   2  15
ATOM     15  C   UNL     1      43.579   4.130  10.890  0.00  0.00    +0.000 C 
BRANCH  15  16
ATOM     16  O   UNL     1      43.972   4.768   9.669  0.00  0.00    +0.000 OA
BRANCH  16  17
ATOM     17  C   UNL     1      44.921   4.054   8.967  0.00  0.00    +0.000 A 
ATOM     18  C   UNL     1      44.922   2.681   9.143  0.00  0.00    +0.000 A 
ATOM     19  C   UNL     1      45.813   1.916   8.389  0.00  0.00    +0.000 A 
ATOM     20  C   UNL     1      46.674   2.543   7.483  0.00  0.00    +0.000 A 
ATOM     21  C   UNL     1      46.620   3.927   7.413  0.00  0.00    +0.000 A 
ATOM     22  N   UNL     1      45.768   4.698   8.134  0.00  0.00    +0.000 NA
BRANCH  20  23
ATOM     23  C   UNL     1      47.560   1.710   6.632  0.00  0.00    +0.000 C 
ATOM     24  N   UNL     1      48.640   2.290   6.024  0.00  0.00    +0.000 N 
ATOM     25  O   UNL     1      47.327   0.521   6.451  0.00  0.00    +0.000 OA
ATOM     26  H   UNL     1      48.911   3.258   6.082  0.00  0.00    +0.000 HD
ATOM     27  H   UNL     1      49.188   1.690   5.420  0.00  0.00    +0.000 HD
ENDBRANCH  20  23
ENDBRANCH  16  17
ENDBRANCH  15  16
ENDBRANCH   2  15
TORSDOF 6
ENDMDL
MODEL 3
REMARK VINA RESULT:    -7.476      3.283      7.655
REMARK INTER + INTRA:         -11.418
REMARK INTER:                 -10.672
REMARK INTRA:                  -0.746
REMARK UNBOUND:                -1.320
REMARK  Name = 
REMARK  7 active torsions:
REMARK  status: ('A' for Active; 'I' for Inactive)
REMARK    1  A    between atoms: C_1  and  C_2
REMARK    2  A    between atoms: C_2  and  C_3
REMARK    3  A    between atoms: C_2  and  C_14
REMARK    4  A    between atoms: C_3  and  O_4
REMARK    5  A    between atoms: O_4  and  C_5
REMARK    6  A    between atoms: C_8  and  C_9
REMARK    7  A    between atoms: C_18  and  C_19
REMARK                            x       y       z     vdW  Elec       q    Type
REMARK                         _______ _______ _______ _____ _____    ______ ____
ROOT
ATOM      1  C   UNL     1      45.950   8.890  11.937  0.00  0.00    +0.000 C 
ATOM      2  C   UNL     1      46.184   7.450  12.398  0.00  0.00    +0.000 C 
ENDROOT
BRANCH   2   3
ATOM      3  C   UNL     1      45.191   6.520  11.711  0.00  0.00    +0.000 A 
ATOM      4  C   UNL     1      43.823   6.526  12.005  0.00  0.00    +0.000 A 
ATOM      5  C   UNL     1      42.974   5.593  11.401  0.00  0.00    +0.000 A 
ATOM      6  C   UNL     1      43.477   4.660  10.489  0.00  0.00    +0.000 A 
ATOM      7  C   UNL     1      44.838   4.652  10.134  0.00  0.00    +0.000 A 
ATOM      8  C   UNL     1      45.666   5.597  10.768  0.00  0.00    +0.000 A 
BRANCH   7   9
ATOM      9  C   UNL     1      45.388   3.746   9.095  0.00  0.00    +0.000 A 
ATOM     10  C   UNL     1      46.098   4.239   7.986  0.00  0.00    +0.000 A 
ATOM     11  C   UNL     1      46.735   3.381   7.084  0.00  0.00    +0.000 A 
ATOM     12  C   UNL     1      46.679   2.004   7.269  0.00  0.00    +0.000 A 
ATOM     13  C   UNL     1      45.948   1.483   8.331  0.00  0.00    +0.000 A 
ATOM     14  C   UNL     1      45.298   2.344   9.221  0.00  0.00    +0.000 A 
ENDBRANCH   7   9
ENDBRANCH   2   3
BRANCH   2  15
ATOM     15  C   UNL     1      47.651   7.038  12.201  0.00  0.00    +0.000 C 
BRANCH  15  16
ATOM     16  O   UNL     1      48.389   7.289  13.403  0.00  0.00    +0.000 OA
BRANCH  16  17
ATOM     17  C   UNL     1      48.172   6.339  14.380  0.00  0.00    +0.000 A 
ATOM     18  C   UNL     1      48.692   6.608  15.635  0.00  0.00    +0.000 A 
ATOM     19  C   UNL     1      48.425   5.710  16.670  0.00  0.00    +0.000 A 
ATOM     20  C   UNL     1      47.649   4.574  16.422  0.00  0.00    +0.000 A 
ATOM     21  C   UNL     1      47.211   4.378  15.120  0.00  0.00    +0.000 A 
ATOM     22  N   UNL     1      47.457   5.230  14.093  0.00  0.00    +0.000 NA
BRANCH  20  23
ATOM     23  C   UNL     1      47.308   3.670  17.549  0.00  0.00    +0.000 C 
ATOM     24  N   UNL     1      48.018   3.760  18.715  0.00  0.00    +0.000 N 
ATOM     25  O   UNL     1      46.417   2.836  17.442  0.00  0.00    +0.000 OA
ATOM     26  H   UNL     1      48.783   4.387  18.904  0.00  0.00    +0.000 HD
ATOM     27  H   UNL     1      47.776   3.094  19.438  0.00  0.00    +0.000 HD
ENDBRANCH  20  23
ENDBRANCH  16  17
ENDBRANCH  15  16
ENDBRANCH   2  15
TORSDOF 6
ENDMDL
MODEL 4
REMARK VINA RESULT:    -7.378      2.310      4.475
REMARK INTER + INTRA:         -11.286
REMARK INTER:                 -10.471
REMARK INTRA:                  -0.815
REMARK UNBOUND:                -1.320
REMARK  Name = 
REMARK  7 active torsions:
REMARK  status: ('A' for Active; 'I' for Inactive)
REMARK    1  A    between atoms: C_1  and  C_2
REMARK    2  A    between atoms: C_2  and  C_3
REMARK    3  A    between atoms: C_2  and  C_14
REMARK    4  A    between atoms: C_3  and  O_4
REMARK    5  A    between atoms: O_4  and  C_5
REMARK    6  A    between atoms: C_8  and  C_9
REMARK    7  A    between atoms: C_18  and  C_19
REMARK                            x       y       z     vdW  Elec       q    Type
REMARK                         _______ _______ _______ _____ _____    ______ ____
ROOT
ATOM      1  C   UNL     1      45.226   3.213  12.494  0.00  0.00    +0.000 C 
ATOM      2  C   UNL     1      44.468   4.536  12.364  0.00  0.00    +0.000 C 
ENDROOT
BRANCH   2   3
ATOM      3  C   UNL     1      45.414   5.701  12.629  0.00  0.00    +0.000 A 
ATOM      4  C   UNL     1      46.600   5.561  13.357  0.00  0.00    +0.000 A 
ATOM      5  C   UNL     1      47.386   6.682  13.637  0.00  0.00    +0.000 A 
ATOM      6  C   UNL     1      47.006   7.948  13.182  0.00  0.00    +0.000 A 
ATOM      7  C   UNL     1      45.845   8.124  12.409  0.00  0.00    +0.000 A 
ATOM      8  C   UNL     1      45.071   6.976  12.154  0.00  0.00    +0.000 A 
BRANCH   7   9
ATOM      9  C   UNL     1      45.464   9.433  11.822  0.00  0.00    +0.000 A 
ATOM     10  C   UNL     1      46.357  10.519  11.800  0.00  0.00    +0.000 A 
ATOM     11  C   UNL     1      46.051  11.705  11.124  0.00  0.00    +0.000 A 
ATOM     12  C   UNL     1      44.840  11.834  10.452  0.00  0.00    +0.000 A 
ATOM     13  C   UNL     1      43.917  10.795  10.491  0.00  0.00    +0.000 A 
ATOM     14  C   UNL     1      44.221   9.618  11.182  0.00  0.00    +0.000 A 
ENDBRANCH   7   9
ENDBRANCH   2   3
BRANCH   2  15
ATOM     15  C   UNL     1      43.742   4.628  11.013  0.00  0.00    +0.000 C 
BRANCH  15  16
ATOM     16  O   UNL     1      43.601   3.318  10.450  0.00  0.00    +0.000 OA
BRANCH  16  17
ATOM     17  C   UNL     1      44.508   3.062   9.443  0.00  0.00    +0.000 A 
ATOM     18  C   UNL     1      44.967   4.154   8.725  0.00  0.00    +0.000 A 
ATOM     19  C   UNL     1      45.946   3.945   7.752  0.00  0.00    +0.000 A 
ATOM     20  C   UNL     1      46.437   2.657   7.525  0.00  0.00    +0.000 A 
ATOM     21  C   UNL     1      45.882   1.626   8.271  0.00  0.00    +0.000 A 
ATOM     22  N   UNL     1      44.928   1.797   9.220  0.00  0.00    +0.000 NA
BRANCH  20  23
ATOM     23  C   UNL     1      47.533   2.463   6.544  0.00  0.00    +0.000 C 
ATOM     24  N   UNL     1      47.492   3.138   5.355  0.00  0.00    +0.000 N 
ATOM     25  O   UNL     1      48.460   1.695   6.775  0.00  0.00    +0.000 OA
ATOM     26  H   UNL     1      46.770   3.771   5.050  0.00  0.00    +0.000 HD
ATOM     27  H   UNL     1      48.240   2.940   4.702  0.00  0.00    +0.000 HD
ENDBRANCH  20  23
ENDBRANCH  16  17
ENDBRANCH  15  16
ENDBRANCH   2  15
TORSDOF 6
ENDMDL
MODEL 5
REMARK VINA RESULT:    -7.322      2.244      3.145
REMARK INTER + INTRA:         -11.211
REMARK INTER:                 -10.336
REMARK INTRA:                  -0.875
REMARK UNBOUND:                -1.320
REMARK  Name = 
REMARK  7 active torsions:
REMARK  status: ('A' for Active; 'I' for Inactive)
REMARK    1  A    between atoms: C_1  and  C_2
REMARK    2  A    between atoms: C_2  and  C_3
REMARK    3  A    between atoms: C_2  and  C_14
REMARK    4  A    between atoms: C_3  and  O_4
REMARK    5  A    between atoms: O_4  and  C_5
REMARK    6  A    between atoms: C_8  and  C_9
REMARK    7  A    between atoms: C_18  and  C_19
REMARK                            x       y       z     vdW  Elec       q    Type
REMARK                         _______ _______ _______ _____ _____    ______ ____
ROOT
ATOM      1  C   UNL     1      45.620   3.164  12.573  0.00  0.00    +0.000 C 
ATOM      2  C   UNL     1      44.439   4.047  12.162  0.00  0.00    +0.000 C 
ENDROOT
BRANCH   2   3
ATOM      3  C   UNL     1      44.892   5.497  12.050  0.00  0.00    +0.000 A 
ATOM      4  C   UNL     1      44.014   6.541  11.739  0.00  0.00    +0.000 A 
ATOM      5  C   UNL     1      44.504   7.840  11.571  0.00  0.00    +0.000 A 
ATOM      6  C   UNL     1      45.866   8.112  11.725  0.00  0.00    +0.000 A 
ATOM      7  C   UNL     1      46.774   7.098  12.081  0.00  0.00    +0.000 A 
ATOM      8  C   UNL     1      46.250   5.801  12.234  0.00  0.00    +0.000 A 
BRANCH   7   9
ATOM      9  C   UNL     1      48.208   7.367  12.354  0.00  0.00    +0.000 A 
ATOM     10  C   UNL     1      49.086   7.788  11.339  0.00  0.00    +0.000 A 
ATOM     11  C   UNL     1      50.399   8.175  11.623  0.00  0.00    +0.000 A 
ATOM     12  C   UNL     1      50.869   8.151  12.931  0.00  0.00    +0.000 A 
ATOM     13  C   UNL     1      50.040   7.699  13.951  0.00  0.00    +0.000 A 
ATOM     14  C   UNL     1      48.733   7.296  13.662  0.00  0.00    +0.000 A 
ENDBRANCH   7   9
ENDBRANCH   2   3
BRANCH   2  15
ATOM     15  C   UNL     1      43.766   3.512  10.888  0.00  0.00    +0.000 C 
BRANCH  15  16
ATOM     16  O   UNL     1      44.084   4.362   9.780  0.00  0.00    +0.000 OA
BRANCH  16  17
ATOM     17  C   UNL     1      45.039   3.824   8.942  0.00  0.00    +0.000 A 
ATOM     18  C   UNL     1      45.139   2.443   8.918  0.00  0.00    +0.000 A 
ATOM     19  C   UNL     1      46.038   1.858   8.024  0.00  0.00    +0.000 A 
ATOM     20  C   UNL     1      46.807   2.667   7.183  0.00  0.00    +0.000 A 
ATOM     21  C   UNL     1      46.660   4.040   7.315  0.00  0.00    +0.000 A 
ATOM     22  N   UNL     1      45.798   4.638   8.176  0.00  0.00    +0.000 NA
BRANCH  20  23
ATOM     23  C   UNL     1      47.700   2.028   6.184  0.00  0.00    +0.000 C 
ATOM     24  N   UNL     1      48.240   2.793   5.186  0.00  0.00    +0.000 N 
ATOM     25  O   UNL     1      47.943   0.828   6.230  0.00  0.00    +0.000 OA
ATOM     26  H   UNL     1      48.089   3.778   5.038  0.00  0.00    +0.000 HD
ATOM     27  H   UNL     1      48.807   2.303   4.505  0.00  0.00    +0.000 HD
ENDBRANCH  20  23
ENDBRANCH  16  17
ENDBRANCH  15  16
ENDBRANCH   2  15
TORSDOF 6
ENDMDL
MODEL 6
REMARK VINA RESULT:    -7.313      4.158      8.149
REMARK INTER + INTRA:         -11.198
REMARK INTER:                 -10.363
REMARK INTRA:                  -0.835
REMARK UNBOUND:                -1.320
REMARK  Name = 
REMARK  7 active torsions:
REMARK  status: ('A' for Active; 'I' for Inactive)
REMARK    1  A    between atoms: C_1  and  C_2
REMARK    2  A    between atoms: C_2  and  C_3
REMARK    3  A    between atoms: C_2  and  C_14
REMARK    4  A    between atoms: C_3  and  O_4
REMARK    5  A    between atoms: O_4  and  C_5
REMARK    6  A    between atoms: C_8  and  C_9
REMARK    7  A    between atoms: C_18  and  C_19
REMARK                            x       y       z     vdW  Elec       q    Type
REMARK                         _______ _______ _______ _____ _____    ______ ____
ROOT
ATOM      1  C   UNL     1      47.412   6.242  13.123  0.00  0.00    +0.000 C 
ATOM      2  C   UNL     1      46.241   5.524  13.799  0.00  0.00    +0.000 C 
ENDROOT
BRANCH   2   3
ATOM      3  C   UNL     1      45.213   5.114  12.752  0.00  0.00    +0.000 A 
ATOM      4  C   UNL     1      43.837   5.283  12.939  0.00  0.00    +0.000 A 
ATOM      5  C   UNL     1      42.937   4.813  11.977  0.00  0.00    +0.000 A 
ATOM      6  C   UNL     1      43.401   4.187  10.816  0.00  0.00    +0.000 A 
ATOM      7  C   UNL     1      44.778   4.040  10.570  0.00  0.00    +0.000 A 
ATOM      8  C   UNL     1      45.655   4.514  11.563  0.00  0.00    +0.000 A 
BRANCH   7   9
ATOM      9  C   UNL     1      45.310   3.474   9.305  0.00  0.00    +0.000 A 
ATOM     10  C   UNL     1      45.779   4.300   8.268  0.00  0.00    +0.000 A 
ATOM     11  C   UNL     1      46.408   3.768   7.137  0.00  0.00    +0.000 A 
ATOM     12  C   UNL     1      46.582   2.395   7.014  0.00  0.00    +0.000 A 
ATOM     13  C   UNL     1      46.090   1.548   8.002  0.00  0.00    +0.000 A 
ATOM     14  C   UNL     1      45.448   2.083   9.123  0.00  0.00    +0.000 A 
ENDBRANCH   7   9
ENDBRANCH   2   3
BRANCH   2  15
ATOM     15  C   UNL     1      46.736   4.356  14.666  0.00  0.00    +0.000 C 
BRANCH  15  16
ATOM     16  O   UNL     1      47.160   4.847  15.943  0.00  0.00    +0.000 OA
BRANCH  16  17
ATOM     17  C   UNL     1      48.240   4.159  16.455  0.00  0.00    +0.000 A 
ATOM     18  C   UNL     1      48.205   2.778  16.350  0.00  0.00    +0.000 A 
ATOM     19  C   UNL     1      49.316   2.052  16.784  0.00  0.00    +0.000 A 
ATOM     20  C   UNL     1      50.424   2.723  17.309  0.00  0.00    +0.000 A 
ATOM     21  C   UNL     1      50.340   4.104  17.407  0.00  0.00    +0.000 A 
ATOM     22  N   UNL     1      49.275   4.838  16.997  0.00  0.00    +0.000 NA
BRANCH  20  23
ATOM     23  C   UNL     1      51.627   1.943  17.692  0.00  0.00    +0.000 C 
ATOM     24  N   UNL     1      51.543   0.579  17.767  0.00  0.00    +0.000 N 
ATOM     25  O   UNL     1      52.684   2.502  17.960  0.00  0.00    +0.000 OA
ATOM     26  H   UNL     1      50.724   0.019  17.594  0.00  0.00    +0.000 HD
ATOM     27  H   UNL     1      52.378   0.096  18.074  0.00  0.00    +0.000 HD
ENDBRANCH  20  23
ENDBRANCH  16  17
ENDBRANCH  15  16
ENDBRANCH   2  15
TORSDOF 6
ENDMDL
MODEL 7
REMARK VINA RESULT:    -7.284      3.666      8.222
REMARK INTER + INTRA:         -11.159
REMARK INTER:                 -10.187
REMARK INTRA:                  -0.971
REMARK UNBOUND:                -1.320
REMARK  Name = 
REMARK  7 active torsions:
REMARK  status: ('A' for Active; 'I' for Inactive)
REMARK    1  A    between atoms: C_1  and  C_2
REMARK    2  A    between atoms: C_2  and  C_3
REMARK    3  A    between atoms: C_2  and  C_14
REMARK    4  A    between atoms: C_3  and  O_4
REMARK    5  A    between atoms: O_4  and  C_5
REMARK    6  A    between atoms: C_8  and  C_9
REMARK    7  A    between atoms: C_18  and  C_19
REMARK                            x       y       z     vdW  Elec       q    Type
REMARK                         _______ _______ _______ _____ _____    ______ ____
ROOT
ATOM      1  C   UNL     1      46.325   6.677  10.961  0.00  0.00    +0.000 C 
ATOM      2  C   UNL     1      45.226   6.047  11.819  0.00  0.00    +0.000 C 
ENDROOT
BRANCH   2   3
ATOM      3  C   UNL     1      44.793   4.719  11.211  0.00  0.00    +0.000 A 
ATOM      4  C   UNL     1      43.791   3.921  11.775  0.00  0.00    +0.000 A 
ATOM      5  C   UNL     1      43.494   2.674  11.217  0.00  0.00    +0.000 A 
ATOM      6  C   UNL     1      44.180   2.219  10.088  0.00  0.00    +0.000 A 
ATOM      7  C   UNL     1      45.162   3.010   9.466  0.00  0.00    +0.000 A 
ATOM      8  C   UNL     1      45.444   4.256  10.058  0.00  0.00    +0.000 A 
BRANCH   7   9
ATOM      9  C   UNL     1      45.838   2.606   8.208  0.00  0.00    +0.000 A 
ATOM     10  C   UNL     1      46.055   3.519   7.160  0.00  0.00    +0.000 A 
ATOM     11  C   UNL     1      46.814   3.176   6.037  0.00  0.00    +0.000 A 
ATOM     12  C   UNL     1      47.375   1.908   5.931  0.00  0.00    +0.000 A 
ATOM     13  C   UNL     1      47.142   0.968   6.929  0.00  0.00    +0.000 A 
ATOM     14  C   UNL     1      46.370   1.310   8.043  0.00  0.00    +0.000 A 
ENDBRANCH   7   9
ENDBRANCH   2   3
BRANCH   2  15
ATOM     15  C   UNL     1      45.666   5.938  13.287  0.00  0.00    +0.000 C 
BRANCH  15  16
ATOM     16  O   UNL     1      47.087   5.771  13.356  0.00  0.00    +0.000 OA
BRANCH  16  17
ATOM     17  C   UNL     1      47.532   5.436  14.618  0.00  0.00    +0.000 A 
ATOM     18  C   UNL     1      46.967   4.313  15.200  0.00  0.00    +0.000 A 
ATOM     19  C   UNL     1      47.448   3.896  16.442  0.00  0.00    +0.000 A 
ATOM     20  C   UNL     1      48.476   4.610  17.064  0.00  0.00    +0.000 A 
ATOM     21  C   UNL     1      48.945   5.743  16.415  0.00  0.00    +0.000 A 
ATOM     22  N   UNL     1      48.495   6.176  15.210  0.00  0.00    +0.000 NA
BRANCH  20  23
ATOM     23  C   UNL     1      49.031   4.109  18.347  0.00  0.00    +0.000 C 
ATOM     24  N   UNL     1      48.352   3.142  19.036  0.00  0.00    +0.000 N 
ATOM     25  O   UNL     1      50.074   4.561  18.803  0.00  0.00    +0.000 OA
ATOM     26  H   UNL     1      47.478   2.718  18.769  0.00  0.00    +0.000 HD
ATOM     27  H   UNL     1      48.749   2.864  19.925  0.00  0.00    +0.000 HD
ENDBRANCH  20  23
ENDBRANCH  16  17
ENDBRANCH  15  16
ENDBRANCH   2  15
TORSDOF 6
ENDMDL
MODEL 8
REMARK VINA RESULT:    -6.737      4.316      7.833
REMARK INTER + INTRA:         -10.420
REMARK INTER:                  -9.067
REMARK INTRA:                  -1.353
REMARK UNBOUND:                -1.320
REMARK  Name = 
REMARK  7 active torsions:
REMARK  status: ('A' for Active; 'I' for Inactive)
REMARK    1  A    between atoms: C_1  and  C_2
REMARK    2  A    between atoms: C_2  and  C_3
REMARK    3  A    between atoms: C_2  and  C_14
REMARK    4  A    between atoms: C_3  and  O_4
REMARK    5  A    between atoms: O_4  and  C_5
REMARK    6  A    between atoms: C_8  and  C_9
REMARK    7  A    between atoms: C_18  and  C_19
REMARK                            x       y       z     vdW  Elec       q    Type
REMARK                         _______ _______ _______ _____ _____    ______ ____
ROOT
ATOM      1  C   UNL     1      50.166   7.712  11.192  0.00  0.00    +0.000 C 
ATOM      2  C   UNL     1      49.402   8.181  12.432  0.00  0.00    +0.000 C 
ENDROOT
BRANCH   2   3
ATOM      3  C   UNL     1      47.902   8.069  12.189  0.00  0.00    +0.000 A 
ATOM      4  C   UNL     1      47.005   9.091  12.519  0.00  0.00    +0.000 A 
ATOM      5  C   UNL     1      45.631   8.898  12.347  0.00  0.00    +0.000 A 
ATOM      6  C   UNL     1      45.141   7.694  11.832  0.00  0.00    +0.000 A 
ATOM      7  C   UNL     1      46.014   6.660  11.446  0.00  0.00    +0.000 A 
ATOM      8  C   UNL     1      47.390   6.883  11.642  0.00  0.00    +0.000 A 
BRANCH   7   9
ATOM      9  C   UNL     1      45.539   5.411  10.801  0.00  0.00    +0.000 A 
ATOM     10  C   UNL     1      44.856   4.419  11.528  0.00  0.00    +0.000 A 
ATOM     11  C   UNL     1      44.286   3.310  10.894  0.00  0.00    +0.000 A 
ATOM     12  C   UNL     1      44.386   3.163   9.515  0.00  0.00    +0.000 A 
ATOM     13  C   UNL     1      45.093   4.104   8.774  0.00  0.00    +0.000 A 
ATOM     14  C   UNL     1      45.675   5.203   9.413  0.00  0.00    +0.000 A 
ENDBRANCH   7   9
ENDBRANCH   2   3
BRANCH   2  15
ATOM     15  C   UNL     1      49.879   7.437  13.689  0.00  0.00    +0.000 C 
BRANCH  15  16
ATOM     16  O   UNL     1      49.121   7.870  14.825  0.00  0.00    +0.000 OA
BRANCH  16  17
ATOM     17  C   UNL     1      48.681   6.826  15.611  0.00  0.00    +0.000 A 
ATOM     18  C   UNL     1      47.947   5.836  14.978  0.00  0.00    +0.000 A 
ATOM     19  C   UNL     1      47.553   4.723  15.722  0.00  0.00    +0.000 A 
ATOM     20  C   UNL     1      47.900   4.632  17.073  0.00  0.00    +0.000 A 
ATOM     21  C   UNL     1      48.601   5.696  17.621  0.00  0.00    +0.000 A 
ATOM     22  N   UNL     1      48.996   6.792  16.925  0.00  0.00    +0.000 NA
BRANCH  20  23
ATOM     23  C   UNL     1      47.542   3.407  17.831  0.00  0.00    +0.000 C 
ATOM     24  N   UNL     1      48.334   3.010  18.873  0.00  0.00    +0.000 N 
ATOM     25  O   UNL     1      46.561   2.739  17.524  0.00  0.00    +0.000 OA
ATOM     26  H   UNL     1      49.173   3.466  19.195  0.00  0.00    +0.000 HD
ATOM     27  H   UNL     1      48.071   2.146  19.331  0.00  0.00    +0.000 HD
ENDBRANCH  20  23
ENDBRANCH  16  17
ENDBRANCH  15  16
ENDBRANCH   2  15
TORSDOF 6
ENDMDL
MODEL 9
REMARK VINA RESULT:    -6.393      4.100      8.319
REMARK INTER + INTRA:          -9.955
REMARK INTER:                  -8.996
REMARK INTRA:                  -0.959
REMARK UNBOUND:                -1.320
REMARK  Name = 
REMARK  7 active torsions:
REMARK  status: ('A' for Active; 'I' for Inactive)
REMARK    1  A    between atoms: C_1  and  C_2
REMARK    2  A    between atoms: C_2  and  C_3
REMARK    3  A    between atoms: C_2  and  C_14
REMARK    4  A    between atoms: C_3  and  O_4
REMARK    5  A    between atoms: O_4  and  C_5
REMARK    6  A    between atoms: C_8  and  C_9
REMARK    7  A    between atoms: C_18  and  C_19
REMARK                            x       y       z     vdW  Elec       q    Type
REMARK                         _______ _______ _______ _____ _____    ______ ____
ROOT
ATOM      1  C   UNL     1      45.380   8.512  11.803  0.00  0.00    +0.000 C 
ATOM      2  C   UNL     1      45.769   7.158  12.401  0.00  0.00    +0.000 C 
ENDROOT
BRANCH   2   3
ATOM      3  C   UNL     1      44.927   6.054  11.773  0.00  0.00    +0.000 A 
ATOM      4  C   UNL     1      43.633   5.751  12.210  0.00  0.00    +0.000 A 
ATOM      5  C   UNL     1      42.939   4.674  11.650  0.00  0.00    +0.000 A 
ATOM      6  C   UNL     1      43.522   3.901  10.641  0.00  0.00    +0.000 A 
ATOM      7  C   UNL     1      44.803   4.202  10.143  0.00  0.00    +0.000 A 
ATOM      8  C   UNL     1      45.477   5.286  10.736  0.00  0.00    +0.000 A 
BRANCH   7   9
ATOM      9  C   UNL     1      45.411   3.470   9.004  0.00  0.00    +0.000 A 
ATOM     10  C   UNL     1      45.987   4.148   7.914  0.00  0.00    +0.000 A 
ATOM     11  C   UNL     1      46.682   3.464   6.912  0.00  0.00    +0.000 A 
ATOM     12  C   UNL     1      46.821   2.082   6.975  0.00  0.00    +0.000 A 
ATOM     13  C   UNL     1      46.227   1.378   8.017  0.00  0.00    +0.000 A 
ATOM     14  C   UNL     1      45.517   2.063   9.007  0.00  0.00    +0.000 A 
ENDBRANCH   7   9
ENDBRANCH   2   3
BRANCH   2  15
ATOM     15  C   UNL     1      47.282   6.918  12.286  0.00  0.00    +0.000 C 
BRANCH  15  16
ATOM     16  O   UNL     1      47.993   8.022  12.860  0.00  0.00    +0.000 OA
BRANCH  16  17
ATOM     17  C   UNL     1      48.334   7.817  14.180  0.00  0.00    +0.000 A 
ATOM     18  C   UNL     1      48.227   8.907  15.027  0.00  0.00    +0.000 A 
ATOM     19  C   UNL     1      48.487   8.721  16.386  0.00  0.00    +0.000 A 
ATOM     20  C   UNL     1      48.844   7.454  16.858  0.00  0.00    +0.000 A 
ATOM     21  C   UNL     1      48.962   6.439  15.920  0.00  0.00    +0.000 A 
ATOM     22  N   UNL     1      48.720   6.589  14.594  0.00  0.00    +0.000 NA
BRANCH  20  23
ATOM     23  C   UNL     1      49.039   7.254  18.316  0.00  0.00    +0.000 C 
ATOM     24  N   UNL     1      48.193   7.873  19.194  0.00  0.00    +0.000 N 
ATOM     25  O   UNL     1      49.955   6.560  18.741  0.00  0.00    +0.000 OA
ATOM     26  H   UNL     1      47.425   8.482  18.959  0.00  0.00    +0.000 HD
ATOM     27  H   UNL     1      48.393   7.739  20.178  0.00  0.00    +0.000 HD
ENDBRANCH  20  23
ENDBRANCH  16  17
ENDBRANCH  15  16
ENDBRANCH   2  15
TORSDOF 6
ENDMDL
