MODEL 1
REMARK VINA RESULT:    -8.258      0.000      0.000
REMARK INTER + INTRA:         -13.057
REMARK INTER:                 -11.637
REMARK INTRA:                  -1.420
REMARK UNBOUND:                -1.420
REMARK  Name = 
REMARK  7 active torsions:
REMARK  status: ('A' for Active; 'I' for Inactive)
REMARK    1  A    between atoms: C_2  and  C_20
REMARK    2  A    between atoms: N_3  and  C_4
REMARK    3  A    between atoms: C_4  and  C_5
REMARK    4  A    between atoms: C_8  and  C_9
REMARK    5  A    between atoms: C_9  and  N_10
REMARK    6  A    between atoms: N_10  and  C_11
REMARK    7  A    between atoms: C_11  and  C_12
REMARK                            x       y       z     vdW  Elec       q    Type
REMARK                         _______ _______ _______ _____ _____    ______ ____
ROOT
ATOM      1  C   UNL     1      45.916   6.786  12.286  0.00  0.00    +0.000 A 
ATOM      2  C   UNL     1      46.147   6.317  10.987  0.00  0.00    +0.000 A 
ATOM      3  C   UNL     1      45.409   5.249  10.474  0.00  0.00    +0.000 A 
ATOM      4  C   UNL     1      44.416   4.631  11.251  0.00  0.00    +0.000 A 
ATOM      5  C   UNL     1      44.173   5.114  12.543  0.00  0.00    +0.000 A 
ATOM      6  C   UNL     1      44.912   6.186  13.055  0.00  0.00    +0.000 A 
ENDROOT
BRANCH   1   7
ATOM      7  C   UNL     1      46.738   7.923  12.833  0.00  0.00    +0.000 C 
BRANCH   7  10
ATOM      8  O   UNL     1      49.176   6.590  13.239  0.00  0.00    +0.000 OA
ATOM      9  C   UNL     1      48.528   6.942  14.216  0.00  0.00    +0.000 C 
ATOM     10  N   UNL     1      47.315   7.594  14.113  0.00  0.00    +0.000 N 
ATOM     11  H   UNL     1      46.893   7.995  14.937  0.00  0.00    +0.000 HD
BRANCH   9  12
ATOM     12  C   UNL     1      48.945   6.645  15.590  0.00  0.00    +0.000 A 
ATOM     13  C   UNL     1      49.779   7.507  16.289  0.00  0.00    +0.000 A 
ATOM     14  S   UNL     1      50.037   7.039  17.904  0.00  0.00    +0.000 S 
ATOM     15  C   UNL     1      49.040   5.681  17.717  0.00  0.00    +0.000 A 
ATOM     16  N   UNL     1      48.826   4.854  18.761  0.00  0.00    +0.000 NA
ATOM     17  N   UNL     1      48.066   3.803  18.595  0.00  0.00    +0.000 NA
ATOM     18  C   UNL     1      47.538   3.554  17.382  0.00  0.00    +0.000 A 
ATOM     19  C   UNL     1      47.738   4.370  16.283  0.00  0.00    +0.000 A 
ATOM     20 CL   UNL     1      47.128   3.934  14.754  0.00  0.00    +0.000 Cl
ATOM     21  C   UNL     1      48.520   5.533  16.432  0.00  0.00    +0.000 A 
ENDBRANCH   9  12
ENDBRANCH   7  10
ENDBRANCH   1   7
BRANCH   4  22
ATOM     22  C   UNL     1      43.612   3.475  10.699  0.00  0.00    +0.000 C 
BRANCH  22  23
ATOM     23  N   UNL     1      43.998   3.171   9.325  0.00  0.00    +0.000 NA
ATOM     24  H   UNL     1      44.483   3.973   8.924  0.00  0.00    +0.000 HD
BRANCH  23  25
ATOM     25  C   UNL     1      44.872   2.003   9.258  0.00  0.00    +0.000 C 
BRANCH  25  26
ATOM     26  C   UNL     1      45.847   2.125   8.111  0.00  0.00    +0.000 A 
ATOM     27  C   UNL     1      46.690   1.063   7.756  0.00  0.00    +0.000 A 
ATOM     28  C   UNL     1      47.568   1.186   6.677  0.00  0.00    +0.000 A 
ATOM     29  C   UNL     1      47.614   2.370   5.943  0.00  0.00    +0.000 A 
ATOM     30  C   UNL     1      46.788   3.436   6.291  0.00  0.00    +0.000 A 
ATOM     31  C   UNL     1      45.910   3.314   7.368  0.00  0.00    +0.000 A 
ENDBRANCH  25  26
ENDBRANCH  23  25
ENDBRANCH  22  23
ENDBRANCH   4  22
TORSDOF 7
ENDMDL
MODEL 2
REMARK VINA RESULT:    -7.927      2.127      2.865
REMARK INTER + INTRA:         -12.591
REMARK INTER:                 -11.476
REMARK INTRA:                  -1.115
REMARK UNBOUND:                -1.420
REMARK  Name = 
REMARK  7 active torsions:
REMARK  status: ('A' for Active; 'I' for Inactive)
REMARK    1  A    between atoms: C_2  and  C_20
REMARK    2  A    between atoms: N_3  and  C_4
REMARK    3  A    between atoms: C_4  and  C_5
REMARK    4  A    between atoms: C_8  and  C_9
REMARK    5  A    between atoms: C_9  and  N_10
REMARK    6  A    between atoms: N_10  and  C_11
REMARK    7  A    between atoms: C_11  and  C_12
REMARK                            x       y       z     vdW  Elec       q    Type
REMARK                         _______ _______ _______ _____ _____    ______ ____
ROOT
ATOM      1  C   UNL     1      46.940   6.112  12.959  0.00  0.00    +0.000 A 
ATOM      2  C   UNL     1      46.021   5.206  13.501  0.00  0.00    +0.000 A 
ATOM      3  C   UNL     1      44.864   4.860  12.799  0.00  0.00    +0.000 A 
ATOM      4  C   UNL     1      44.607   5.411  11.534  0.00  0.00    +0.000 A 
ATOM      5  C   UNL     1      45.538   6.302  10.984  0.00  0.00    +0.000 A 
ATOM      6  C   UNL     1      46.698   6.646  11.688  0.00  0.00    +0.000 A 
ENDROOT
BRANCH   1   7
ATOM      7  C   UNL     1      48.169   6.494  13.739  0.00  0.00    +0.000 C 
BRANCH   7  10
ATOM      8  O   UNL     1      50.217   6.484  15.662  0.00  0.00    +0.000 OA
ATOM      9  C   UNL     1      49.065   6.284  16.027  0.00  0.00    +0.000 C 
ATOM     10  N   UNL     1      47.997   6.262  15.152  0.00  0.00    +0.000 N 
ATOM     11  H   UNL     1      47.056   6.244  15.515  0.00  0.00    +0.000 HD
BRANCH   9  12
ATOM     12  C   UNL     1      48.719   5.983  17.419  0.00  0.00    +0.000 A 
ATOM     13  C   UNL     1      48.871   4.703  17.936  0.00  0.00    +0.000 A 
ATOM     14  S   UNL     1      48.533   4.600  19.599  0.00  0.00    +0.000 S 
ATOM     15  C   UNL     1      48.184   6.257  19.678  0.00  0.00    +0.000 A 
ATOM     16  N   UNL     1      47.836   6.817  20.855  0.00  0.00    +0.000 NA
ATOM     17  N   UNL     1      47.555   8.094  20.893  0.00  0.00    +0.000 NA
ATOM     18  C   UNL     1      47.592   8.813  19.757  0.00  0.00    +0.000 A 
ATOM     19  C   UNL     1      47.935   8.278  18.528  0.00  0.00    +0.000 A 
ATOM     20 CL   UNL     1      47.854   9.225  17.115  0.00  0.00    +0.000 Cl
ATOM     21  C   UNL     1      48.281   6.914  18.453  0.00  0.00    +0.000 A 
ENDBRANCH   9  12
ENDBRANCH   7  10
ENDBRANCH   1   7
BRANCH   4  22
ATOM     22  C   UNL     1      43.357   5.037  10.768  0.00  0.00    +0.000 C 
BRANCH  22  23
ATOM     23  N   UNL     1      43.687   4.452   9.472  0.00  0.00    +0.000 NA
ATOM     24  H   UNL     1      44.374   5.039   9.001  0.00  0.00    +0.000 HD
BRANCH  23  25
ATOM     25  C   UNL     1      44.228   3.103   9.613  0.00  0.00    +0.000 C 
BRANCH  25  26
ATOM     26  C   UNL     1      45.335   2.860   8.615  0.00  0.00    +0.000 A 
ATOM     27  C   UNL     1      45.864   3.904   7.845  0.00  0.00    +0.000 A 
ATOM     28  C   UNL     1      46.905   3.665   6.945  0.00  0.00    +0.000 A 
ATOM     29  C   UNL     1      47.426   2.379   6.804  0.00  0.00    +0.000 A 
ATOM     30  C   UNL     1      46.903   1.331   7.557  0.00  0.00    +0.000 A 
ATOM     31  C   UNL     1      45.864   1.570   8.457  0.00  0.00    +0.000 A 
ENDBRANCH  25  26
ENDBRANCH  23  25
ENDBRANCH  22  23
ENDBRANCH   4  22
TORSDOF 7
ENDMDL
MODEL 3
REMARK VINA RESULT:    -7.473      1.778      2.051
REMARK INTER + INTRA:         -11.951
REMARK INTER:                 -11.095
REMARK INTRA:                  -0.856
REMARK UNBOUND:                -1.420
REMARK  Name = 
REMARK  7 active torsions:
REMARK  status: ('A' for Active; 'I' for Inactive)
REMARK    1  A    between atoms: C_2  and  C_20
REMARK    2  A    between atoms: N_3  and  C_4
REMARK    3  A    between atoms: C_4  and  C_5
REMARK    4  A    between atoms: C_8  and  C_9
REMARK    5  A    between atoms: C_9  and  N_10
REMARK    6  A    between atoms: N_10  and  C_11
REMARK    7  A    between atoms: C_11  and  C_12
REMARK                            x       y       z     vdW  Elec       q    Type
REMARK                         _______ _______ _______ _____ _____    ______ ____
ROOT
ATOM      1  C   UNL     1      47.237   6.171  13.012  0.00  0.00    +0.000 A 
ATOM      2  C   UNL     1      46.692   6.999  12.024  0.00  0.00    +0.000 A 
ATOM      3  C   UNL     1      45.543   6.617  11.329  0.00  0.00    +0.000 A 
ATOM      4  C   UNL     1      44.911   5.396  11.615  0.00  0.00    +0.000 A 
ATOM      5  C   UNL     1      45.446   4.578  12.618  0.00  0.00    +0.000 A 
ATOM      6  C   UNL     1      46.596   4.964  13.316  0.00  0.00    +0.000 A 
ENDROOT
BRANCH   1   7
ATOM      7  C   UNL     1      48.491   6.587  13.735  0.00  0.00    +0.000 C 
BRANCH   7  10
ATOM      8  O   UNL     1      50.385   6.508  15.806  0.00  0.00    +0.000 OA
ATOM      9  C   UNL     1      49.233   6.822  16.074  0.00  0.00    +0.000 C 
ATOM     10  N   UNL     1      48.233   6.879  15.123  0.00  0.00    +0.000 N 
ATOM     11  H   UNL     1      47.341   7.285  15.362  0.00  0.00    +0.000 HD
BRANCH   9  12
ATOM     12  C   UNL     1      48.789   7.103  17.442  0.00  0.00    +0.000 A 
ATOM     13  C   UNL     1      48.292   8.352  17.794  0.00  0.00    +0.000 A 
ATOM     14  S   UNL     1      47.718   8.426  19.393  0.00  0.00    +0.000 S 
ATOM     15  C   UNL     1      48.107   6.797  19.657  0.00  0.00    +0.000 A 
ATOM     16  N   UNL     1      47.844   6.227  20.851  0.00  0.00    +0.000 NA
ATOM     17  N   UNL     1      48.165   4.974  21.042  0.00  0.00    +0.000 NA
ATOM     18  C   UNL     1      48.774   4.290  20.055  0.00  0.00    +0.000 A 
ATOM     19  C   UNL     1      49.071   4.838  18.820  0.00  0.00    +0.000 A 
ATOM     20 CL   UNL     1      49.941   3.945  17.660  0.00  0.00    +0.000 Cl
ATOM     21  C   UNL     1      48.705   6.174  18.563  0.00  0.00    +0.000 A 
ENDBRANCH   9  12
ENDBRANCH   7  10
ENDBRANCH   1   7
BRANCH   4  22
ATOM     22  C   UNL     1      43.664   4.978  10.868  0.00  0.00    +0.000 C 
BRANCH  22  23
ATOM     23  N   UNL     1      43.985   4.520   9.520  0.00  0.00    +0.000 NA
ATOM     24  H   UNL     1      44.777   5.052   9.161  0.00  0.00    +0.000 HD
BRANCH  23  25
ATOM     25  C   UNL     1      44.317   3.098   9.500  0.00  0.00    +0.000 C 
BRANCH  25  26
ATOM     26  C   UNL     1      45.422   2.816   8.510  0.00  0.00    +0.000 A 
ATOM     27  C   UNL     1      45.984   1.538   8.391  0.00  0.00    +0.000 A 
ATOM     28  C   UNL     1      46.988   1.290   7.452  0.00  0.00    +0.000 A 
ATOM     29  C   UNL     1      47.442   2.317   6.625  0.00  0.00    +0.000 A 
ATOM     30  C   UNL     1      46.898   3.593   6.741  0.00  0.00    +0.000 A 
ATOM     31  C   UNL     1      45.895   3.842   7.677  0.00  0.00    +0.000 A 
ENDBRANCH  25  26
ENDBRANCH  23  25
ENDBRANCH  22  23
ENDBRANCH   4  22
TORSDOF 7
ENDMDL
MODEL 4
REMARK VINA RESULT:    -7.190      2.180      2.649
REMARK INTER + INTRA:         -11.551
REMARK INTER:                 -10.725
REMARK INTRA:                  -0.826
REMARK UNBOUND:                -1.420
REMARK  Name = 
REMARK  7 active torsions:
REMARK  status: ('A' for Active; 'I' for Inactive)
REMARK    1  A    between atoms: C_2  and  C_20
REMARK    2  A    between atoms: N_3  and  C_4
REMARK    3  A    between atoms: C_4  and  C_5
REMARK    4  A    between atoms: C_8  and  C_9
REMARK    5  A    between atoms: C_9  and  N_10
REMARK    6  A    between atoms: N_10  and  C_11
REMARK    7  A    between atoms: C_11  and  C_12
REMARK                            x       y       z     vdW  Elec       q    Type
REMARK                         _______ _______ _______ _____ _____    ______ ____
ROOT
ATOM      1  C   UNL     1      46.586   6.661  12.911  0.00  0.00    +0.000 A 
ATOM      2  C   UNL     1      46.300   5.304  13.094  0.00  0.00    +0.000 A 
ATOM      3  C   UNL     1      45.316   4.674  12.330  0.00  0.00    +0.000 A 
ATOM      4  C   UNL     1      44.600   5.392  11.359  0.00  0.00    +0.000 A 
ATOM      5  C   UNL     1      44.902   6.746  11.163  0.00  0.00    +0.000 A 
ATOM      6  C   UNL     1      45.891   7.375  11.928  0.00  0.00    +0.000 A 
ENDROOT
BRANCH   1   7
ATOM      7  C   UNL     1      47.633   7.331  13.760  0.00  0.00    +0.000 C 
BRANCH   7  10
ATOM      8  O   UNL     1      48.724   8.094  16.233  0.00  0.00    +0.000 OA
ATOM      9  C   UNL     1      48.671   6.903  15.955  0.00  0.00    +0.000 C 
ATOM     10  N   UNL     1      48.161   6.436  14.760  0.00  0.00    +0.000 N 
ATOM     11  H   UNL     1      48.000   5.447  14.639  0.00  0.00    +0.000 HD
BRANCH   9  12
ATOM     12  C   UNL     1      49.206   5.861  16.837  0.00  0.00    +0.000 A 
ATOM     13  C   UNL     1      48.364   4.972  17.491  0.00  0.00    +0.000 A 
ATOM     14  S   UNL     1      49.194   3.769  18.362  0.00  0.00    +0.000 S 
ATOM     15  C   UNL     1      50.695   4.396  17.885  0.00  0.00    +0.000 A 
ATOM     16  N   UNL     1      51.834   3.796  18.289  0.00  0.00    +0.000 NA
ATOM     17  N   UNL     1      52.984   4.302  17.924  0.00  0.00    +0.000 NA
ATOM     18  C   UNL     1      53.005   5.423  17.179  0.00  0.00    +0.000 A 
ATOM     19  C   UNL     1      51.863   6.074  16.750  0.00  0.00    +0.000 A 
ATOM     20 CL   UNL     1      51.969   7.547  15.903  0.00  0.00    +0.000 Cl
ATOM     21  C   UNL     1      50.605   5.537  17.091  0.00  0.00    +0.000 A 
ENDBRANCH   9  12
ENDBRANCH   7  10
ENDBRANCH   1   7
BRANCH   4  22
ATOM     22  C   UNL     1      43.535   4.715  10.526  0.00  0.00    +0.000 C 
BRANCH  22  23
ATOM     23  N   UNL     1      44.068   4.279   9.239  0.00  0.00    +0.000 NA
ATOM     24  H   UNL     1      44.876   4.851   8.997  0.00  0.00    +0.000 HD
BRANCH  23  25
ATOM     25  C   UNL     1      44.468   2.875   9.270  0.00  0.00    +0.000 C 
BRANCH  25  26
ATOM     26  C   UNL     1      45.559   2.604   8.262  0.00  0.00    +0.000 A 
ATOM     27  C   UNL     1      46.195   1.356   8.196  0.00  0.00    +0.000 A 
ATOM     28  C   UNL     1      47.186   1.115   7.242  0.00  0.00    +0.000 A 
ATOM     29  C   UNL     1      47.552   2.118   6.345  0.00  0.00    +0.000 A 
ATOM     30  C   UNL     1      46.935   3.365   6.407  0.00  0.00    +0.000 A 
ATOM     31  C   UNL     1      45.945   3.606   7.359  0.00  0.00    +0.000 A 
ENDBRANCH  25  26
ENDBRANCH  23  25
ENDBRANCH  22  23
ENDBRANCH   4  22
TORSDOF 7
ENDMDL
MODEL 5
REMARK VINA RESULT:    -7.163      1.836      2.399
REMARK INTER + INTRA:         -11.514
REMARK INTER:                 -10.010
REMARK INTRA:                  -1.504
REMARK UNBOUND:                -1.420
REMARK  Name = 
REMARK  7 active torsions:
REMARK  status: ('A' for Active; 'I' for Inactive)
REMARK    1  A    between atoms: C_2  and  C_20
REMARK    2  A    between atoms: N_3  and  C_4
REMARK    3  A    between atoms: C_4  and  C_5
REMARK    4  A    between atoms: C_8  and  C_9
REMARK    5  A    between atoms: C_9  and  N_10
REMARK    6  A    between atoms: N_10  and  C_11
REMARK    7  A    between atoms: C_11  and  C_12
REMARK                            x       y       z     vdW  Elec       q    Type
REMARK                         _______ _______ _______ _____ _____    ______ ____
ROOT
ATOM      1  C   UNL     1      47.130   6.708  12.742  0.00  0.00    +0.000 A 
ATOM      2  C   UNL     1      45.900   7.309  12.451  0.00  0.00    +0.000 A 
ATOM      3  C   UNL     1      44.715   6.575  12.519  0.00  0.00    +0.000 A 
ATOM      4  C   UNL     1      44.736   5.220  12.888  0.00  0.00    +0.000 A 
ATOM      5  C   UNL     1      45.966   4.626  13.199  0.00  0.00    +0.000 A 
ATOM      6  C   UNL     1      47.153   5.364  13.133  0.00  0.00    +0.000 A 
ENDROOT
BRANCH   1   7
ATOM      7  C   UNL     1      48.402   7.508  12.639  0.00  0.00    +0.000 C 
BRANCH   7  10
ATOM      8  O   UNL     1      48.656   8.294  15.323  0.00  0.00    +0.000 OA
ATOM      9  C   UNL     1      49.445   7.474  14.872  0.00  0.00    +0.000 C 
ATOM     10  N   UNL     1      49.403   7.036  13.564  0.00  0.00    +0.000 N 
ATOM     11  H   UNL     1      49.975   6.254  13.281  0.00  0.00    +0.000 HD
BRANCH   9  12
ATOM     12  C   UNL     1      50.554   6.929  15.661  0.00  0.00    +0.000 A 
ATOM     13  C   UNL     1      51.848   7.411  15.510  0.00  0.00    +0.000 A 
ATOM     14  S   UNL     1      52.956   6.732  16.607  0.00  0.00    +0.000 S 
ATOM     15  C   UNL     1      51.743   5.785  17.318  0.00  0.00    +0.000 A 
ATOM     16  N   UNL     1      52.042   4.972  18.352  0.00  0.00    +0.000 NA
ATOM     17  N   UNL     1      51.096   4.238  18.878  0.00  0.00    +0.000 NA
ATOM     18  C   UNL     1      49.855   4.288  18.359  0.00  0.00    +0.000 A 
ATOM     19  C   UNL     1      49.507   5.099  17.294  0.00  0.00    +0.000 A 
ATOM     20 CL   UNL     1      47.944   5.028  16.622  0.00  0.00    +0.000 Cl
ATOM     21  C   UNL     1      50.490   5.934  16.726  0.00  0.00    +0.000 A 
ENDBRANCH   9  12
ENDBRANCH   7  10
ENDBRANCH   1   7
BRANCH   4  22
ATOM     22  C   UNL     1      43.455   4.420  12.967  0.00  0.00    +0.000 C 
BRANCH  22  23
ATOM     23  N   UNL     1      42.976   4.060  11.637  0.00  0.00    +0.000 NA
ATOM     24  H   UNL     1      43.212   4.801  10.979  0.00  0.00    +0.000 HD
BRANCH  23  25
ATOM     25  C   UNL     1      43.564   2.806  11.175  0.00  0.00    +0.000 C 
BRANCH  25  26
ATOM     26  C   UNL     1      44.466   3.039   9.986  0.00  0.00    +0.000 A 
ATOM     27  C   UNL     1      44.985   1.969   9.245  0.00  0.00    +0.000 A 
ATOM     28  C   UNL     1      45.798   2.205   8.133  0.00  0.00    +0.000 A 
ATOM     29  C   UNL     1      46.101   3.512   7.753  0.00  0.00    +0.000 A 
ATOM     30  C   UNL     1      45.600   4.583   8.487  0.00  0.00    +0.000 A 
ATOM     31  C   UNL     1      44.787   4.349   9.597  0.00  0.00    +0.000 A 
ENDBRANCH  25  26
ENDBRANCH  23  25
ENDBRANCH  22  23
ENDBRANCH   4  22
TORSDOF 7
ENDMDL
MODEL 6
REMARK VINA RESULT:    -6.924      2.561      4.129
REMARK INTER + INTRA:         -11.177
REMARK INTER:                 -10.328
REMARK INTRA:                  -0.849
REMARK UNBOUND:                -1.420
REMARK  Name = 
REMARK  7 active torsions:
REMARK  status: ('A' for Active; 'I' for Inactive)
REMARK    1  A    between atoms: C_2  and  C_20
REMARK    2  A    between atoms: N_3  and  C_4
REMARK    3  A    between atoms: C_4  and  C_5
REMARK    4  A    between atoms: C_8  and  C_9
REMARK    5  A    between atoms: C_9  and  N_10
REMARK    6  A    between atoms: N_10  and  C_11
REMARK    7  A    between atoms: C_11  and  C_12
REMARK                            x       y       z     vdW  Elec       q    Type
REMARK                         _______ _______ _______ _____ _____    ______ ____
ROOT
ATOM      1  C   UNL     1      46.420   5.160  13.053  0.00  0.00    +0.000 A 
ATOM      2  C   UNL     1      46.239   6.168  12.099  0.00  0.00    +0.000 A 
ATOM      3  C   UNL     1      45.405   5.964  10.999  0.00  0.00    +0.000 A 
ATOM      4  C   UNL     1      44.727   4.745  10.834  0.00  0.00    +0.000 A 
ATOM      5  C   UNL     1      44.895   3.745  11.800  0.00  0.00    +0.000 A 
ATOM      6  C   UNL     1      45.729   3.951  12.904  0.00  0.00    +0.000 A 
ENDROOT
BRANCH   1   7
ATOM      7  C   UNL     1      47.343   5.386  14.221  0.00  0.00    +0.000 C 
BRANCH   7  10
ATOM      8  O   UNL     1      49.704   6.510  15.244  0.00  0.00    +0.000 OA
ATOM      9  C   UNL     1      48.777   7.254  14.951  0.00  0.00    +0.000 C 
ATOM     10  N   UNL     1      47.576   6.791  14.451  0.00  0.00    +0.000 N 
ATOM     11  H   UNL     1      46.902   7.446  14.086  0.00  0.00    +0.000 HD
BRANCH   9  12
ATOM     12  C   UNL     1      48.829   8.703  15.166  0.00  0.00    +0.000 A 
ATOM     13  C   UNL     1      48.714   9.243  16.441  0.00  0.00    +0.000 A 
ATOM     14  S   UNL     1      48.926  10.931  16.482  0.00  0.00    +0.000 S 
ATOM     15  C   UNL     1      49.185  10.985  14.807  0.00  0.00    +0.000 A 
ATOM     16  N   UNL     1      49.445  12.163  14.204  0.00  0.00    +0.000 NA
ATOM     17  N   UNL     1      49.627  12.189  12.910  0.00  0.00    +0.000 NA
ATOM     18  C   UNL     1      49.523  11.046  12.205  0.00  0.00    +0.000 A 
ATOM     19  C   UNL     1      49.248   9.819  12.781  0.00  0.00    +0.000 A 
ATOM     20 CL   UNL     1      49.023   8.436  11.814  0.00  0.00    +0.000 Cl
ATOM     21  C   UNL     1      49.084   9.745  14.179  0.00  0.00    +0.000 A 
ENDBRANCH   9  12
ENDBRANCH   7  10
ENDBRANCH   1   7
BRANCH   4  22
ATOM     22  C   UNL     1      43.820   4.521   9.644  0.00  0.00    +0.000 C 
BRANCH  22  23
ATOM     23  N   UNL     1      44.399   3.558   8.714  0.00  0.00    +0.000 NA
ATOM     24  H   UNL     1      43.789   3.461   7.903  0.00  0.00    +0.000 HD
BRANCH  23  25
ATOM     25  C   UNL     1      45.725   3.973   8.266  0.00  0.00    +0.000 C 
BRANCH  25  26
ATOM     26  C   UNL     1      46.307   2.970   7.298  0.00  0.00    +0.000 A 
ATOM     27  C   UNL     1      46.487   3.284   5.944  0.00  0.00    +0.000 A 
ATOM     28  C   UNL     1      47.049   2.351   5.069  0.00  0.00    +0.000 A 
ATOM     29  C   UNL     1      47.434   1.096   5.537  0.00  0.00    +0.000 A 
ATOM     30  C   UNL     1      47.251   0.768   6.878  0.00  0.00    +0.000 A 
ATOM     31  C   UNL     1      46.691   1.699   7.753  0.00  0.00    +0.000 A 
ENDBRANCH  25  26
ENDBRANCH  23  25
ENDBRANCH  22  23
ENDBRANCH   4  22
TORSDOF 7
ENDMDL
MODEL 7
REMARK VINA RESULT:    -6.771      2.277      2.843
REMARK INTER + INTRA:         -10.962
REMARK INTER:                 -10.256
REMARK INTRA:                  -0.706
REMARK UNBOUND:                -1.420
REMARK  Name = 
REMARK  7 active torsions:
REMARK  status: ('A' for Active; 'I' for Inactive)
REMARK    1  A    between atoms: C_2  and  C_20
REMARK    2  A    between atoms: N_3  and  C_4
REMARK    3  A    between atoms: C_4  and  C_5
REMARK    4  A    between atoms: C_8  and  C_9
REMARK    5  A    between atoms: C_9  and  N_10
REMARK    6  A    between atoms: N_10  and  C_11
REMARK    7  A    between atoms: C_11  and  C_12
REMARK                            x       y       z     vdW  Elec       q    Type
REMARK                         _______ _______ _______ _____ _____    ______ ____
ROOT
ATOM      1  C   UNL     1      47.002   8.238  13.211  0.00  0.00    +0.000 A 
ATOM      2  C   UNL     1      47.450   7.000  12.737  0.00  0.00    +0.000 A 
ATOM      3  C   UNL     1      46.607   6.178  11.987  0.00  0.00    +0.000 A 
ATOM      4  C   UNL     1      45.296   6.583  11.690  0.00  0.00    +0.000 A 
ATOM      5  C   UNL     1      44.856   7.831  12.148  0.00  0.00    +0.000 A 
ATOM      6  C   UNL     1      45.703   8.656  12.898  0.00  0.00    +0.000 A 
ENDROOT
BRANCH   1   7
ATOM      7  C   UNL     1      47.915   9.102  14.041  0.00  0.00    +0.000 C 
BRANCH   7  10
ATOM      8  O   UNL     1      49.401  10.279  16.113  0.00  0.00    +0.000 OA
ATOM      9  C   UNL     1      48.459   9.553  16.402  0.00  0.00    +0.000 C 
ATOM     10  N   UNL     1      47.680   8.924  15.452  0.00  0.00    +0.000 N 
ATOM     11  H   UNL     1      46.829   8.460  15.733  0.00  0.00    +0.000 HD
BRANCH   9  12
ATOM     12  C   UNL     1      48.112   9.226  17.789  0.00  0.00    +0.000 A 
ATOM     13  C   UNL     1      47.615  10.195  18.651  0.00  0.00    +0.000 A 
ATOM     14  S   UNL     1      47.159   9.580  20.170  0.00  0.00    +0.000 S 
ATOM     15  C   UNL     1      47.603   8.008  19.717  0.00  0.00    +0.000 A 
ATOM     16  N   UNL     1      47.442   6.986  20.584  0.00  0.00    +0.000 NA
ATOM     17  N   UNL     1      47.804   5.783  20.223  0.00  0.00    +0.000 NA
ATOM     18  C   UNL     1      48.353   5.594  19.009  0.00  0.00    +0.000 A 
ATOM     19  C   UNL     1      48.545   6.613  18.093  0.00  0.00    +0.000 A 
ATOM     20 CL   UNL     1      49.346   6.318  16.620  0.00  0.00    +0.000 Cl
ATOM     21  C   UNL     1      48.132   7.917  18.431  0.00  0.00    +0.000 A 
ENDBRANCH   9  12
ENDBRANCH   7  10
ENDBRANCH   1   7
BRANCH   4  22
ATOM     22  C   UNL     1      44.380   5.698  10.875  0.00  0.00    +0.000 C 
BRANCH  22  23
ATOM     23  N   UNL     1      45.045   5.218   9.668  0.00  0.00    +0.000 NA
ATOM     24  H   UNL     1      46.035   5.074   9.862  0.00  0.00    +0.000 HD
BRANCH  23  25
ATOM     25  C   UNL     1      44.464   3.965   9.195  0.00  0.00    +0.000 C 
BRANCH  25  26
ATOM     26  C   UNL     1      45.471   3.169   8.400  0.00  0.00    +0.000 A 
ATOM     27  C   UNL     1      46.261   3.774   7.413  0.00  0.00    +0.000 A 
ATOM     28  C   UNL     1      47.205   3.027   6.705  0.00  0.00    +0.000 A 
ATOM     29  C   UNL     1      47.369   1.669   6.975  0.00  0.00    +0.000 A 
ATOM     30  C   UNL     1      46.584   1.054   7.947  0.00  0.00    +0.000 A 
ATOM     31  C   UNL     1      45.641   1.800   8.656  0.00  0.00    +0.000 A 
ENDBRANCH  25  26
ENDBRANCH  23  25
ENDBRANCH  22  23
ENDBRANCH   4  22
TORSDOF 7
ENDMDL
MODEL 8
REMARK VINA RESULT:    -6.764      2.437      2.939
REMARK INTER + INTRA:         -10.952
REMARK INTER:                 -10.060
REMARK INTRA:                  -0.892
REMARK UNBOUND:                -1.420
REMARK  Name = 
REMARK  7 active torsions:
REMARK  status: ('A' for Active; 'I' for Inactive)
REMARK    1  A    between atoms: C_2  and  C_20
REMARK    2  A    between atoms: N_3  and  C_4
REMARK    3  A    between atoms: C_4  and  C_5
REMARK    4  A    between atoms: C_8  and  C_9
REMARK    5  A    between atoms: C_9  and  N_10
REMARK    6  A    between atoms: N_10  and  C_11
REMARK    7  A    between atoms: C_11  and  C_12
REMARK                            x       y       z     vdW  Elec       q    Type
REMARK                         _______ _______ _______ _____ _____    ______ ____
ROOT
ATOM      1  C   UNL     1      46.900   4.789  13.901  0.00  0.00    +0.000 A 
ATOM      2  C   UNL     1      46.492   5.986  13.300  0.00  0.00    +0.000 A 
ATOM      3  C   UNL     1      45.585   5.976  12.239  0.00  0.00    +0.000 A 
ATOM      4  C   UNL     1      45.063   4.764  11.759  0.00  0.00    +0.000 A 
ATOM      5  C   UNL     1      45.457   3.569  12.374  0.00  0.00    +0.000 A 
ATOM      6  C   UNL     1      46.364   3.581  13.440  0.00  0.00    +0.000 A 
ENDROOT
BRANCH   1   7
ATOM      7  C   UNL     1      47.898   4.815  15.028  0.00  0.00    +0.000 C 
BRANCH   7  10
ATOM      8  O   UNL     1      50.101   6.452  15.622  0.00  0.00    +0.000 OA
ATOM      9  C   UNL     1      48.989   6.806  15.990  0.00  0.00    +0.000 C 
ATOM     10  N   UNL     1      47.851   6.062  15.752  0.00  0.00    +0.000 N 
ATOM     11  H   UNL     1      46.944   6.463  15.941  0.00  0.00    +0.000 HD
BRANCH   9  12
ATOM     12  C   UNL     1      48.768   8.021  16.779  0.00  0.00    +0.000 A 
ATOM     13  C   UNL     1      48.906   9.281  16.211  0.00  0.00    +0.000 A 
ATOM     14  S   UNL     1      48.484  10.549  17.263  0.00  0.00    +0.000 S 
ATOM     15  C   UNL     1      48.098   9.455  18.499  0.00  0.00    +0.000 A 
ATOM     16  N   UNL     1      47.646   9.912  19.685  0.00  0.00    +0.000 NA
ATOM     17  N   UNL     1      47.368   9.054  20.633  0.00  0.00    +0.000 NA
ATOM     18  C   UNL     1      47.565   7.741  20.414  0.00  0.00    +0.000 A 
ATOM     19  C   UNL     1      48.035   7.230  19.218  0.00  0.00    +0.000 A 
ATOM     20 CL   UNL     1      48.364   5.568  19.052  0.00  0.00    +0.000 Cl
ATOM     21  C   UNL     1      48.310   8.120  18.160  0.00  0.00    +0.000 A 
ENDBRANCH   9  12
ENDBRANCH   7  10
ENDBRANCH   1   7
BRANCH   4  22
ATOM     22  C   UNL     1      44.078   4.748  10.611  0.00  0.00    +0.000 C 
BRANCH  22  23
ATOM     23  N   UNL     1      44.244   3.553   9.790  0.00  0.00    +0.000 NA
ATOM     24  H   UNL     1      43.385   3.006   9.810  0.00  0.00    +0.000 HD
BRANCH  23  25
ATOM     25  C   UNL     1      44.562   3.891   8.406  0.00  0.00    +0.000 C 
BRANCH  25  26
ATOM     26  C   UNL     1      45.639   2.982   7.862  0.00  0.00    +0.000 A 
ATOM     27  C   UNL     1      45.758   1.655   8.297  0.00  0.00    +0.000 A 
ATOM     28  C   UNL     1      46.744   0.821   7.765  0.00  0.00    +0.000 A 
ATOM     29  C   UNL     1      47.622   1.305   6.796  0.00  0.00    +0.000 A 
ATOM     30  C   UNL     1      47.519   2.624   6.362  0.00  0.00    +0.000 A 
ATOM     31  C   UNL     1      46.534   3.458   6.892  0.00  0.00    +0.000 A 
ENDBRANCH  25  26
ENDBRANCH  23  25
ENDBRANCH  22  23
ENDBRANCH   4  22
TORSDOF 7
ENDMDL
MODEL 9
REMARK VINA RESULT:    -6.598      3.970      5.857
REMARK INTER + INTRA:         -10.718
REMARK INTER:                  -9.780
REMARK INTRA:                  -0.937
REMARK UNBOUND:                -1.420
REMARK  Name = 
REMARK  7 active torsions:
REMARK  status: ('A' for Active; 'I' for Inactive)
REMARK    1  A    between atoms: C_2  and  C_20
REMARK    2  A    between atoms: N_3  and  C_4
REMARK    3  A    between atoms: C_4  and  C_5
REMARK    4  A    between atoms: C_8  and  C_9
REMARK    5  A    between atoms: C_9  and  N_10
REMARK    6  A    between atoms: N_10  and  C_11
REMARK    7  A    between atoms: C_11  and  C_12
REMARK                            x       y       z     vdW  Elec       q    Type
REMARK                         _______ _______ _______ _____ _____    ______ ____
ROOT
ATOM      1  C   UNL     1      46.162   6.540  12.511  0.00  0.00    +0.000 A 
ATOM      2  C   UNL     1      45.320   5.772  13.323  0.00  0.00    +0.000 A 
ATOM      3  C   UNL     1      44.483   4.803  12.766  0.00  0.00    +0.000 A 
ATOM      4  C   UNL     1      44.478   4.579  11.380  0.00  0.00    +0.000 A 
ATOM      5  C   UNL     1      45.336   5.335  10.571  0.00  0.00    +0.000 A 
ATOM      6  C   UNL     1      46.177   6.304  11.131  0.00  0.00    +0.000 A 
ENDROOT
BRANCH   1   7
ATOM      7  C   UNL     1      47.040   7.598  13.125  0.00  0.00    +0.000 C 
BRANCH   7  10
ATOM      8  O   UNL     1      48.793   9.741  13.598  0.00  0.00    +0.000 OA
ATOM      9  C   UNL     1      48.337   9.590  12.471  0.00  0.00    +0.000 C 
ATOM     10  N   UNL     1      47.463   8.572  12.149  0.00  0.00    +0.000 N 
ATOM     11  H   UNL     1      47.234   8.399  11.181  0.00  0.00    +0.000 HD
BRANCH   9  12
ATOM     12  C   UNL     1      48.625  10.517  11.373  0.00  0.00    +0.000 A 
ATOM     13  C   UNL     1      47.661  11.404  10.911  0.00  0.00    +0.000 A 
ATOM     14  S   UNL     1      48.239  12.473   9.721  0.00  0.00    +0.000 S 
ATOM     15  C   UNL     1      49.789  11.790   9.795  0.00  0.00    +0.000 A 
ATOM     16  N   UNL     1      50.778  12.277   9.018  0.00  0.00    +0.000 NA
ATOM     17  N   UNL     1      51.963  11.728   9.077  0.00  0.00    +0.000 NA
ATOM     18  C   UNL     1      52.163  10.674   9.890  0.00  0.00    +0.000 A 
ATOM     19  C   UNL     1      51.177  10.137  10.697  0.00  0.00    +0.000 A 
ATOM     20 CL   UNL     1      51.474   8.735  11.616  0.00  0.00    +0.000 Cl
ATOM     21  C   UNL     1      49.896  10.726  10.689  0.00  0.00    +0.000 A 
ENDBRANCH   9  12
ENDBRANCH   7  10
ENDBRANCH   1   7
BRANCH   4  22
ATOM     22  C   UNL     1      43.576   3.528  10.771  0.00  0.00    +0.000 C 
BRANCH  22  23
ATOM     23  N   UNL     1      43.976   3.219   9.402  0.00  0.00    +0.000 NA
ATOM     24  H   UNL     1      44.424   4.035   8.987  0.00  0.00    +0.000 HD
BRANCH  23  25
ATOM     25  C   UNL     1      44.901   2.090   9.354  0.00  0.00    +0.000 C 
BRANCH  25  26
ATOM     26  C   UNL     1      45.817   2.194   8.157  0.00  0.00    +0.000 A 
ATOM     27  C   UNL     1      45.894   3.370   7.400  0.00  0.00    +0.000 A 
ATOM     28  C   UNL     1      46.765   3.456   6.311  0.00  0.00    +0.000 A 
ATOM     29  C   UNL     1      47.566   2.368   5.968  0.00  0.00    +0.000 A 
ATOM     30  C   UNL     1      47.491   1.190   6.708  0.00  0.00    +0.000 A 
ATOM     31  C   UNL     1      46.622   1.103   7.796  0.00  0.00    +0.000 A 
ENDBRANCH  25  26
ENDBRANCH  23  25
ENDBRANCH  22  23
ENDBRANCH   4  22
TORSDOF 7
ENDMDL
