MODEL 1
REMARK VINA RESULT:    -7.733      0.000      0.000
REMARK INTER + INTRA:         -11.848
REMARK INTER:                 -10.898
REMARK INTRA:                  -0.950
REMARK UNBOUND:                -0.950
REMARK  Name = 
REMARK  7 active torsions:
REMARK  status: ('A' for Active; 'I' for Inactive)
REMARK    1  A    between atoms: C_2  and  C_4
REMARK    2  A    between atoms: C_7  and  O_8
REMARK    3  A    between atoms: O_8  and  C_9
REMARK    4  A    between atoms: C_9  and  C_10
REMARK    5  A    between atoms: C_10  and  C_11
REMARK    6  A    between atoms: C_15  and  O_16
REMARK    7  A    between atoms: O_16  and  C_17
REMARK                            x       y       z     vdW  Elec       q    Type
REMARK                         _______ _______ _______ _____ _____    ______ ____
ROOT
ATOM      1  C   UNL     1      43.940   3.169  11.826  0.00  0.00    +0.000 C 
ENDROOT
BRANCH   1   2
ATOM      2  O   UNL     1      43.427   3.251  10.487  0.00  0.00    +0.000 OA
BRANCH   2   6
ATOM      3  C   UNL     1      46.363   2.704   7.645  0.00  0.00    +0.000 A 
ATOM      4  C   UNL     1      45.793   3.967   7.813  0.00  0.00    +0.000 A 
ATOM      5  C   UNL     1      44.797   4.141   8.778  0.00  0.00    +0.000 A 
ATOM      6  C   UNL     1      44.411   3.046   9.539  0.00  0.00    +0.000 A 
ATOM      7  N   UNL     1      44.944   1.815   9.392  0.00  0.00    +0.000 NA
ATOM      8  C   UNL     1      45.897   1.667   8.442  0.00  0.00    +0.000 A 
BRANCH   3  10
ATOM      9  N   UNL     1      47.440   3.146   5.511  0.00  0.00    +0.000 N 
ATOM     10  C   UNL     1      47.417   2.402   6.654  0.00  0.00    +0.000 C 
ATOM     11  O   UNL     1      48.268   1.548   6.869  0.00  0.00    +0.000 OA
ATOM     12  H   UNL     1      48.242   3.003   4.907  0.00  0.00    +0.000 HD
ATOM     13  H   UNL     1      46.935   4.015   5.414  0.00  0.00    +0.000 HD
ENDBRANCH   3  10
ENDBRANCH   2   6
ENDBRANCH   1   2
BRANCH   1  14
ATOM     14  C   UNL     1      43.865   4.549  12.477  0.00  0.00    +0.000 C 
BRANCH  14  15
ATOM     15  C   UNL     1      45.230   5.166  12.659  0.00  0.00    +0.000 A 
ATOM     16  C   UNL     1      45.741   6.062  11.714  0.00  0.00    +0.000 A 
ATOM     17  C   UNL     1      47.007   6.627  11.887  0.00  0.00    +0.000 A 
ATOM     18  C   UNL     1      47.781   6.297  13.002  0.00  0.00    +0.000 A 
ATOM     19  C   UNL     1      47.293   5.388  13.937  0.00  0.00    +0.000 A 
ATOM     20  C   UNL     1      46.021   4.830  13.767  0.00  0.00    +0.000 A 
BRANCH  19  21
ATOM     21  O   UNL     1      47.954   4.999  15.075  0.00  0.00    +0.000 OA
BRANCH  21  22
ATOM     22  C   UNL     1      47.258   4.184  16.045  0.00  0.00    +0.000 C 
ATOM     23  C   UNL     1      47.321   4.602  17.519  0.00  0.00    +0.000 C 
ATOM     24  O   UNL     1      47.893   3.332  17.912  0.00  0.00    +0.000 OA
ATOM     25  C   UNL     1      48.027   2.946  16.525  0.00  0.00    +0.000 C 
ENDBRANCH  21  22
ENDBRANCH  19  21
ENDBRANCH  14  15
ENDBRANCH   1  14
TORSDOF 7
ENDMDL
MODEL 2
REMARK VINA RESULT:    -6.975      2.389      3.725
REMARK INTER + INTRA:         -10.779
REMARK INTER:                  -9.964
REMARK INTRA:                  -0.815
REMARK UNBOUND:                -0.950
REMARK  Name = 
REMARK  7 active torsions:
REMARK  status: ('A' for Active; 'I' for Inactive)
REMARK    1  A    between atoms: C_2  and  C_4
REMARK    2  A    between atoms: C_7  and  O_8
REMARK    3  A    between atoms: O_8  and  C_9
REMARK    4  A    between atoms: C_9  and  C_10
REMARK    5  A    between atoms: C_10  and  C_11
REMARK    6  A    between atoms: C_15  and  O_16
REMARK    7  A    between atoms: O_16  and  C_17
REMARK                            x       y       z     vdW  Elec       q    Type
REMARK                         _______ _______ _______ _____ _____    ______ ____
ROOT
ATOM      1  C   UNL     1      43.679   2.911  11.408  0.00  0.00    +0.000 C 
ENDROOT
BRANCH   1   2
ATOM      2  O   UNL     1      43.556   3.527  10.117  0.00  0.00    +0.000 OA
BRANCH   2   6
ATOM      3  C   UNL     1      46.542   2.382   7.515  0.00  0.00    +0.000 A 
ATOM      4  C   UNL     1      46.167   3.725   7.586  0.00  0.00    +0.000 A 
ATOM      5  C   UNL     1      45.152   4.103   8.470  0.00  0.00    +0.000 A 
ATOM      6  C   UNL     1      44.553   3.123   9.250  0.00  0.00    +0.000 A 
ATOM      7  N   UNL     1      44.895   1.819   9.195  0.00  0.00    +0.000 NA
ATOM      8  C   UNL     1      45.871   1.475   8.322  0.00  0.00    +0.000 A 
BRANCH   3  10
ATOM      9  N   UNL     1      48.695   2.653   6.418  0.00  0.00    +0.000 N 
ATOM     10  C   UNL     1      47.596   1.869   6.616  0.00  0.00    +0.000 C 
ATOM     11  O   UNL     1      47.511   0.760   6.102  0.00  0.00    +0.000 OA
ATOM     12  H   UNL     1      49.453   2.228   5.898  0.00  0.00    +0.000 HD
ATOM     13  H   UNL     1      48.922   3.436   7.015  0.00  0.00    +0.000 HD
ENDBRANCH   3  10
ENDBRANCH   2   6
ENDBRANCH   1   2
BRANCH   1  14
ATOM     14  C   UNL     1      43.574   3.986  12.489  0.00  0.00    +0.000 C 
BRANCH  14  15
ATOM     15  C   UNL     1      44.871   4.739  12.667  0.00  0.00    +0.000 A 
ATOM     16  C   UNL     1      45.918   4.190  13.415  0.00  0.00    +0.000 A 
ATOM     17  C   UNL     1      47.114   4.894  13.578  0.00  0.00    +0.000 A 
ATOM     18  C   UNL     1      47.274   6.158  13.005  0.00  0.00    +0.000 A 
ATOM     19  C   UNL     1      46.229   6.724  12.279  0.00  0.00    +0.000 A 
ATOM     20  C   UNL     1      45.036   6.014  12.108  0.00  0.00    +0.000 A 
BRANCH  19  21
ATOM     21  O   UNL     1      46.275   7.948  11.660  0.00  0.00    +0.000 OA
BRANCH  21  22
ATOM     22  C   UNL     1      46.189   9.144  12.469  0.00  0.00    +0.000 C 
ATOM     23  C   UNL     1      45.744  10.445  11.789  0.00  0.00    +0.000 C 
ATOM     24  O   UNL     1      46.962  11.126  12.172  0.00  0.00    +0.000 OA
ATOM     25  C   UNL     1      47.515   9.887  12.673  0.00  0.00    +0.000 C 
ENDBRANCH  21  22
ENDBRANCH  19  21
ENDBRANCH  14  15
ENDBRANCH   1  14
TORSDOF 7
ENDMDL
MODEL 3
REMARK VINA RESULT:    -6.905      1.561      1.793
REMARK INTER + INTRA:         -10.681
REMARK INTER:                  -9.918
REMARK INTRA:                  -0.763
REMARK UNBOUND:                -0.950
REMARK  Name = 
REMARK  7 active torsions:
REMARK  status: ('A' for Active; 'I' for Inactive)
REMARK    1  A    between atoms: C_2  and  C_4
REMARK    2  A    between atoms: C_7  and  O_8
REMARK    3  A    between atoms: O_8  and  C_9
REMARK    4  A    between atoms: C_9  and  C_10
REMARK    5  A    between atoms: C_10  and  C_11
REMARK    6  A    between atoms: C_15  and  O_16
REMARK    7  A    between atoms: O_16  and  C_17
REMARK                            x       y       z     vdW  Elec       q    Type
REMARK                         _______ _______ _______ _____ _____    ______ ____
ROOT
ATOM      1  C   UNL     1      43.667   4.096  11.063  0.00  0.00    +0.000 C 
ENDROOT
BRANCH   1   2
ATOM      2  O   UNL     1      43.644   2.824  10.398  0.00  0.00    +0.000 OA
BRANCH   2   6
ATOM      3  C   UNL     1      46.525   2.612   7.457  0.00  0.00    +0.000 A 
ATOM      4  C   UNL     1      45.912   3.835   7.734  0.00  0.00    +0.000 A 
ATOM      5  C   UNL     1      44.935   3.895   8.731  0.00  0.00    +0.000 A 
ATOM      6  C   UNL     1      44.610   2.732   9.415  0.00  0.00    +0.000 A 
ATOM      7  N   UNL     1      45.186   1.538   9.162  0.00  0.00    +0.000 NA
ATOM      8  C   UNL     1      46.120   1.500   8.182  0.00  0.00    +0.000 A 
BRANCH   3  10
ATOM      9  N   UNL     1      47.450   3.158   5.276  0.00  0.00    +0.000 N 
ATOM     10  C   UNL     1      47.565   2.428   6.423  0.00  0.00    +0.000 C 
ATOM     11  O   UNL     1      48.521   1.685   6.605  0.00  0.00    +0.000 OA
ATOM     12  H   UNL     1      48.236   3.106   4.639  0.00  0.00    +0.000 HD
ATOM     13  H   UNL     1      46.839   3.959   5.197  0.00  0.00    +0.000 HD
ENDBRANCH   3  10
ENDBRANCH   2   6
ENDBRANCH   1   2
BRANCH   1  14
ATOM     14  C   UNL     1      44.477   3.973  12.353  0.00  0.00    +0.000 C 
BRANCH  14  15
ATOM     15  C   UNL     1      45.361   5.174  12.585  0.00  0.00    +0.000 A 
ATOM     16  C   UNL     1      45.002   6.432  12.088  0.00  0.00    +0.000 A 
ATOM     17  C   UNL     1      45.827   7.539  12.304  0.00  0.00    +0.000 A 
ATOM     18  C   UNL     1      47.024   7.400  13.011  0.00  0.00    +0.000 A 
ATOM     19  C   UNL     1      47.403   6.148  13.488  0.00  0.00    +0.000 A 
ATOM     20  C   UNL     1      46.572   5.043  13.280  0.00  0.00    +0.000 A 
BRANCH  19  21
ATOM     21  O   UNL     1      48.546   5.894  14.205  0.00  0.00    +0.000 OA
BRANCH  21  22
ATOM     22  C   UNL     1      48.865   6.737  15.335  0.00  0.00    +0.000 C 
ATOM     23  C   UNL     1      50.250   7.395  15.378  0.00  0.00    +0.000 C 
ATOM     24  O   UNL     1      50.564   6.779  16.649  0.00  0.00    +0.000 OA
ATOM     25  C   UNL     1      49.352   5.992  16.585  0.00  0.00    +0.000 C 
ENDBRANCH  21  22
ENDBRANCH  19  21
ENDBRANCH  14  15
ENDBRANCH   1  14
TORSDOF 7
ENDMDL
MODEL 4
REMARK VINA RESULT:    -6.509      3.249      4.908
REMARK INTER + INTRA:         -10.123
REMARK INTER:                  -9.452
REMARK INTRA:                  -0.671
REMARK UNBOUND:                -0.950
REMARK  Name = 
REMARK  7 active torsions:
REMARK  status: ('A' for Active; 'I' for Inactive)
REMARK    1  A    between atoms: C_2  and  C_4
REMARK    2  A    between atoms: C_7  and  O_8
REMARK    3  A    between atoms: O_8  and  C_9
REMARK    4  A    between atoms: C_9  and  C_10
REMARK    5  A    between atoms: C_10  and  C_11
REMARK    6  A    between atoms: C_15  and  O_16
REMARK    7  A    between atoms: O_16  and  C_17
REMARK                            x       y       z     vdW  Elec       q    Type
REMARK                         _______ _______ _______ _____ _____    ______ ____
ROOT
ATOM      1  C   UNL     1      43.606   4.559  10.917  0.00  0.00    +0.000 C 
ENDROOT
BRANCH   1   2
ATOM      2  O   UNL     1      43.554   3.248  10.334  0.00  0.00    +0.000 OA
BRANCH   2   6
ATOM      3  C   UNL     1      46.503   2.743   7.498  0.00  0.00    +0.000 A 
ATOM      4  C   UNL     1      45.851   3.973   7.603  0.00  0.00    +0.000 A 
ATOM      5  C   UNL     1      44.852   4.134   8.566  0.00  0.00    +0.000 A 
ATOM      6  C   UNL     1      44.543   3.058   9.388  0.00  0.00    +0.000 A 
ATOM      7  N   UNL     1      45.155   1.859   9.302  0.00  0.00    +0.000 NA
ATOM      8  C   UNL     1      46.111   1.723   8.353  0.00  0.00    +0.000 A 
BRANCH   3  10
ATOM      9  N   UNL     1      47.556   3.164   5.347  0.00  0.00    +0.000 N 
ATOM     10  C   UNL     1      47.569   2.458   6.515  0.00  0.00    +0.000 C 
ATOM     11  O   UNL     1      48.459   1.652   6.756  0.00  0.00    +0.000 OA
ATOM     12  H   UNL     1      48.362   3.039   4.747  0.00  0.00    +0.000 HD
ATOM     13  H   UNL     1      47.010   4.004   5.223  0.00  0.00    +0.000 HD
ENDBRANCH   3  10
ENDBRANCH   2   6
ENDBRANCH   1   2
BRANCH   1  14
ATOM     14  C   UNL     1      44.749   4.613  11.930  0.00  0.00    +0.000 C 
BRANCH  14  15
ATOM     15  C   UNL     1      45.226   6.024  12.173  0.00  0.00    +0.000 A 
ATOM     16  C   UNL     1      46.281   6.280  13.055  0.00  0.00    +0.000 A 
ATOM     17  C   UNL     1      46.715   7.589  13.277  0.00  0.00    +0.000 A 
ATOM     18  C   UNL     1      46.094   8.660  12.629  0.00  0.00    +0.000 A 
ATOM     19  C   UNL     1      45.026   8.419  11.767  0.00  0.00    +0.000 A 
ATOM     20  C   UNL     1      44.599   7.107  11.538  0.00  0.00    +0.000 A 
BRANCH  19  21
ATOM     21  O   UNL     1      44.349   9.385  11.066  0.00  0.00    +0.000 OA
BRANCH  21  22
ATOM     22  C   UNL     1      44.476  10.765  11.478  0.00  0.00    +0.000 C 
ATOM     23  C   UNL     1      43.274  11.696  11.266  0.00  0.00    +0.000 C 
ATOM     24  O   UNL     1      44.052  12.605  10.452  0.00  0.00    +0.000 OA
ATOM     25  C   UNL     1      45.168  11.685  10.464  0.00  0.00    +0.000 C 
ENDBRANCH  21  22
ENDBRANCH  19  21
ENDBRANCH  14  15
ENDBRANCH   1  14
TORSDOF 7
ENDMDL
MODEL 5
REMARK VINA RESULT:    -6.418      2.782      3.771
REMARK INTER + INTRA:          -9.994
REMARK INTER:                  -9.339
REMARK INTRA:                  -0.656
REMARK UNBOUND:                -0.950
REMARK  Name = 
REMARK  7 active torsions:
REMARK  status: ('A' for Active; 'I' for Inactive)
REMARK    1  A    between atoms: C_2  and  C_4
REMARK    2  A    between atoms: C_7  and  O_8
REMARK    3  A    between atoms: O_8  and  C_9
REMARK    4  A    between atoms: C_9  and  C_10
REMARK    5  A    between atoms: C_10  and  C_11
REMARK    6  A    between atoms: C_15  and  O_16
REMARK    7  A    between atoms: O_16  and  C_17
REMARK                            x       y       z     vdW  Elec       q    Type
REMARK                         _______ _______ _______ _____ _____    ______ ____
ROOT
ATOM      1  C   UNL     1      44.226   5.408  10.518  0.00  0.00    +0.000 C 
ENDROOT
BRANCH   1   2
ATOM      2  O   UNL     1      43.819   4.143   9.976  0.00  0.00    +0.000 OA
BRANCH   2   6
ATOM      3  C   UNL     1      46.664   2.465   7.509  0.00  0.00    +0.000 A 
ATOM      4  C   UNL     1      45.945   1.651   8.385  0.00  0.00    +0.000 A 
ATOM      5  C   UNL     1      44.984   2.230   9.219  0.00  0.00    +0.000 A 
ATOM      6  C   UNL     1      44.778   3.600   9.143  0.00  0.00    +0.000 A 
ATOM      7  N   UNL     1      45.464   4.408   8.308  0.00  0.00    +0.000 NA
ATOM      8  C   UNL     1      46.399   3.828   7.519  0.00  0.00    +0.000 A 
BRANCH   3  10
ATOM      9  N   UNL     1      48.723   2.815   6.264  0.00  0.00    +0.000 N 
ATOM     10  C   UNL     1      47.705   1.965   6.587  0.00  0.00    +0.000 C 
ATOM     11  O   UNL     1      47.684   0.816   6.166  0.00  0.00    +0.000 OA
ATOM     12  H   UNL     1      49.484   2.410   5.732  0.00  0.00    +0.000 HD
ATOM     13  H   UNL     1      48.917   3.658   6.784  0.00  0.00    +0.000 HD
ENDBRANCH   3  10
ENDBRANCH   2   6
ENDBRANCH   1   2
BRANCH   1  14
ATOM     14  C   UNL     1      44.957   5.176  11.840  0.00  0.00    +0.000 C 
BRANCH  14  15
ATOM     15  C   UNL     1      45.819   6.353  12.226  0.00  0.00    +0.000 A 
ATOM     16  C   UNL     1      45.242   7.549  12.666  0.00  0.00    +0.000 A 
ATOM     17  C   UNL     1      46.047   8.635  13.018  0.00  0.00    +0.000 A 
ATOM     18  C   UNL     1      47.438   8.543  12.926  0.00  0.00    +0.000 A 
ATOM     19  C   UNL     1      48.023   7.366  12.466  0.00  0.00    +0.000 A 
ATOM     20  C   UNL     1      47.216   6.276  12.122  0.00  0.00    +0.000 A 
BRANCH  19  21
ATOM     21  O   UNL     1      49.373   7.155  12.346  0.00  0.00    +0.000 OA
BRANCH  21  22
ATOM     22  C   UNL     1      50.238   8.285  12.092  0.00  0.00    +0.000 C 
ATOM     23  C   UNL     1      51.397   8.102  11.103  0.00  0.00    +0.000 C 
ATOM     24  O   UNL     1      52.378   8.475  12.099  0.00  0.00    +0.000 OA
ATOM     25  C   UNL     1      51.356   8.492  13.122  0.00  0.00    +0.000 C 
ENDBRANCH  21  22
ENDBRANCH  19  21
ENDBRANCH  14  15
ENDBRANCH   1  14
TORSDOF 7
ENDMDL
MODEL 6
REMARK VINA RESULT:    -6.125      2.773      7.678
REMARK INTER + INTRA:          -9.582
REMARK INTER:                  -9.064
REMARK INTRA:                  -0.518
REMARK UNBOUND:                -0.950
REMARK  Name = 
REMARK  7 active torsions:
REMARK  status: ('A' for Active; 'I' for Inactive)
REMARK    1  A    between atoms: C_2  and  C_4
REMARK    2  A    between atoms: C_7  and  O_8
REMARK    3  A    between atoms: O_8  and  C_9
REMARK    4  A    between atoms: C_9  and  C_10
REMARK    5  A    between atoms: C_10  and  C_11
REMARK    6  A    between atoms: C_15  and  O_16
REMARK    7  A    between atoms: O_16  and  C_17
REMARK                            x       y       z     vdW  Elec       q    Type
REMARK                         _______ _______ _______ _____ _____    ______ ____
ROOT
ATOM      1  C   UNL     1      47.454   6.693  12.151  0.00  0.00    +0.000 C 
ENDROOT
BRANCH   1   2
ATOM      2  O   UNL     1      48.149   7.112  13.335  0.00  0.00    +0.000 OA
BRANCH   2   6
ATOM      3  C   UNL     1      47.851   4.399  16.426  0.00  0.00    +0.000 A 
ATOM      4  C   UNL     1      48.549   5.592  16.620  0.00  0.00    +0.000 A 
ATOM      5  C   UNL     1      48.646   6.504  15.566  0.00  0.00    +0.000 A 
ATOM      6  C   UNL     1      48.040   6.189  14.358  0.00  0.00    +0.000 A 
ATOM      7  N   UNL     1      47.363   5.041  14.144  0.00  0.00    +0.000 NA
ATOM      8  C   UNL     1      47.293   4.167  15.176  0.00  0.00    +0.000 A 
BRANCH   3  10
ATOM      9  N   UNL     1      48.746   3.128  18.295  0.00  0.00    +0.000 N 
ATOM     10  C   UNL     1      47.688   3.361  17.465  0.00  0.00    +0.000 C 
ATOM     11  O   UNL     1      46.629   2.764  17.609  0.00  0.00    +0.000 OA
ATOM     12  H   UNL     1      48.569   2.503  19.072  0.00  0.00    +0.000 HD
ATOM     13  H   UNL     1      49.525   3.766  18.380  0.00  0.00    +0.000 HD
ENDBRANCH   3  10
ENDBRANCH   2   6
ENDBRANCH   1   2
BRANCH   1  14
ATOM     14  C   UNL     1      46.016   7.206  12.205  0.00  0.00    +0.000 C 
BRANCH  14  15
ATOM     15  C   UNL     1      45.016   6.128  11.864  0.00  0.00    +0.000 A 
ATOM     16  C   UNL     1      44.020   5.763  12.776  0.00  0.00    +0.000 A 
ATOM     17  C   UNL     1      43.099   4.762  12.455  0.00  0.00    +0.000 A 
ATOM     18  C   UNL     1      43.169   4.107  11.222  0.00  0.00    +0.000 A 
ATOM     19  C   UNL     1      44.172   4.445  10.317  0.00  0.00    +0.000 A 
ATOM     20  C   UNL     1      45.086   5.454  10.636  0.00  0.00    +0.000 A 
BRANCH  19  21
ATOM     21  O   UNL     1      44.331   3.882   9.075  0.00  0.00    +0.000 OA
BRANCH  21  22
ATOM     22  C   UNL     1      45.651   3.459   8.664  0.00  0.00    +0.000 C 
ATOM     23  C   UNL     1      45.979   3.470   7.165  0.00  0.00    +0.000 C 
ATOM     24  O   UNL     1      46.298   2.058   7.169  0.00  0.00    +0.000 OA
ATOM     25  C   UNL     1      45.835   1.941   8.534  0.00  0.00    +0.000 C 
ENDBRANCH  21  22
ENDBRANCH  19  21
ENDBRANCH  14  15
ENDBRANCH   1  14
TORSDOF 7
ENDMDL
MODEL 7
REMARK VINA RESULT:    -6.109      3.089      7.485
REMARK INTER + INTRA:          -9.559
REMARK INTER:                  -9.460
REMARK INTRA:                  -0.098
REMARK UNBOUND:                -0.950
REMARK  Name = 
REMARK  7 active torsions:
REMARK  status: ('A' for Active; 'I' for Inactive)
REMARK    1  A    between atoms: C_2  and  C_4
REMARK    2  A    between atoms: C_7  and  O_8
REMARK    3  A    between atoms: O_8  and  C_9
REMARK    4  A    between atoms: C_9  and  C_10
REMARK    5  A    between atoms: C_10  and  C_11
REMARK    6  A    between atoms: C_15  and  O_16
REMARK    7  A    between atoms: O_16  and  C_17
REMARK                            x       y       z     vdW  Elec       q    Type
REMARK                         _______ _______ _______ _____ _____    ______ ____
ROOT
ATOM      1  C   UNL     1      43.678   3.699  12.609  0.00  0.00    +0.000 C 
ENDROOT
BRANCH   1   2
ATOM      2  O   UNL     1      45.012   3.619  13.133  0.00  0.00    +0.000 OA
BRANCH   2   6
ATOM      3  C   UNL     1      46.745   7.351  13.387  0.00  0.00    +0.000 A 
ATOM      4  C   UNL     1      45.462   7.222  12.852  0.00  0.00    +0.000 A 
ATOM      5  C   UNL     1      44.885   5.952  12.768  0.00  0.00    +0.000 A 
ATOM      6  C   UNL     1      45.611   4.861  13.225  0.00  0.00    +0.000 A 
ATOM      7  N   UNL     1      46.853   4.960  13.742  0.00  0.00    +0.000 NA
ATOM      8  C   UNL     1      47.398   6.199  13.800  0.00  0.00    +0.000 A 
BRANCH   3  10
ATOM      9  N   UNL     1      47.572   9.171  14.771  0.00  0.00    +0.000 N 
ATOM     10  C   UNL     1      47.456   8.640  13.519  0.00  0.00    +0.000 C 
ATOM     11  O   UNL     1      47.963   9.190  12.550  0.00  0.00    +0.000 OA
ATOM     12  H   UNL     1      48.166   9.988  14.851  0.00  0.00    +0.000 HD
ATOM     13  H   UNL     1      47.405   8.635  15.610  0.00  0.00    +0.000 HD
ENDBRANCH   3  10
ENDBRANCH   2   6
ENDBRANCH   1   2
BRANCH   1  14
ATOM     14  C   UNL     1      43.518   2.677  11.484  0.00  0.00    +0.000 C 
BRANCH  14  15
ATOM     15  C   UNL     1      44.311   3.056  10.257  0.00  0.00    +0.000 A 
ATOM     16  C   UNL     1      44.394   4.391   9.843  0.00  0.00    +0.000 A 
ATOM     17  C   UNL     1      45.127   4.734   8.704  0.00  0.00    +0.000 A 
ATOM     18  C   UNL     1      45.779   3.747   7.960  0.00  0.00    +0.000 A 
ATOM     19  C   UNL     1      45.684   2.413   8.349  0.00  0.00    +0.000 A 
ATOM     20  C   UNL     1      44.957   2.072   9.494  0.00  0.00    +0.000 A 
BRANCH  19  21
ATOM     21  O   UNL     1      46.290   1.363   7.707  0.00  0.00    +0.000 OA
BRANCH  21  22
ATOM     22  C   UNL     1      47.282   1.642   6.693  0.00  0.00    +0.000 C 
ATOM     23  C   UNL     1      46.884   2.550   5.522  0.00  0.00    +0.000 C 
ATOM     24  O   UNL     1      47.203   1.528   4.549  0.00  0.00    +0.000 OA
ATOM     25  C   UNL     1      47.422   0.567   5.607  0.00  0.00    +0.000 C 
ENDBRANCH  21  22
ENDBRANCH  19  21
ENDBRANCH  14  15
ENDBRANCH   1  14
TORSDOF 7
ENDMDL
MODEL 8
REMARK VINA RESULT:    -6.061      3.974      6.566
REMARK INTER + INTRA:          -9.492
REMARK INTER:                  -8.975
REMARK INTRA:                  -0.517
REMARK UNBOUND:                -0.950
REMARK  Name = 
REMARK  7 active torsions:
REMARK  status: ('A' for Active; 'I' for Inactive)
REMARK    1  A    between atoms: C_2  and  C_4
REMARK    2  A    between atoms: C_7  and  O_8
REMARK    3  A    between atoms: O_8  and  C_9
REMARK    4  A    between atoms: C_9  and  C_10
REMARK    5  A    between atoms: C_10  and  C_11
REMARK    6  A    between atoms: C_15  and  O_16
REMARK    7  A    between atoms: O_16  and  C_17
REMARK                            x       y       z     vdW  Elec       q    Type
REMARK                         _______ _______ _______ _____ _____    ______ ____
ROOT
ATOM      1  C   UNL     1      47.526   3.884  15.848  0.00  0.00    +0.000 C 
ENDROOT
BRANCH   1   2
ATOM      2  O   UNL     1      47.518   3.300  14.536  0.00  0.00    +0.000 OA
BRANCH   2   6
ATOM      3  C   UNL     1      44.737   5.109  12.088  0.00  0.00    +0.000 A 
ATOM      4  C   UNL     1      45.557   5.896  12.899  0.00  0.00    +0.000 A 
ATOM      5  C   UNL     1      46.495   5.272  13.727  0.00  0.00    +0.000 A 
ATOM      6  C   UNL     1      46.578   3.887  13.710  0.00  0.00    +0.000 A 
ATOM      7  N   UNL     1      45.794   3.106  12.938  0.00  0.00    +0.000 NA
ATOM      8  C   UNL     1      44.884   3.731  12.154  0.00  0.00    +0.000 A 
BRANCH   3  10
ATOM      9  N   UNL     1      43.421   6.987  11.282  0.00  0.00    +0.000 N 
ATOM     10  C   UNL     1      43.709   5.657  11.179  0.00  0.00    +0.000 C 
ATOM     11  O   UNL     1      43.169   4.957  10.332  0.00  0.00    +0.000 OA
ATOM     12  H   UNL     1      42.805   7.362  10.569  0.00  0.00    +0.000 HD
ATOM     13  H   UNL     1      44.016   7.639  11.771  0.00  0.00    +0.000 HD
ENDBRANCH   3  10
ENDBRANCH   2   6
ENDBRANCH   1   2
BRANCH   1  14
ATOM     14  C   UNL     1      47.974   2.833  16.863  0.00  0.00    +0.000 C 
BRANCH  14  15
ATOM     15  C   UNL     1      49.441   2.954  17.195  0.00  0.00    +0.000 A 
ATOM     16  C   UNL     1      50.036   4.210  17.357  0.00  0.00    +0.000 A 
ATOM     17  C   UNL     1      51.396   4.314  17.661  0.00  0.00    +0.000 A 
ATOM     18  C   UNL     1      52.179   3.166  17.798  0.00  0.00    +0.000 A 
ATOM     19  C   UNL     1      51.603   1.911  17.615  0.00  0.00    +0.000 A 
ATOM     20  C   UNL     1      50.239   1.808  17.320  0.00  0.00    +0.000 A 
BRANCH  19  21
ATOM     21  O   UNL     1      52.267   0.716  17.737  0.00  0.00    +0.000 OA
BRANCH  21  22
ATOM     22  C   UNL     1      53.691   0.679  17.489  0.00  0.00    +0.000 C 
ATOM     23  C   UNL     1      54.199  -0.181  16.324  0.00  0.00    +0.000 C 
ATOM     24  O   UNL     1      55.046  -0.963  17.199  0.00  0.00    +0.000 OA
ATOM     25  C   UNL     1      54.476  -0.312  18.358  0.00  0.00    +0.000 C 
ENDBRANCH  21  22
ENDBRANCH  19  21
ENDBRANCH  14  15
ENDBRANCH   1  14
TORSDOF 7
ENDMDL
MODEL 9
REMARK VINA RESULT:    -5.941      4.069      7.467
REMARK INTER + INTRA:          -9.323
REMARK INTER:                  -8.360
REMARK INTRA:                  -0.963
REMARK UNBOUND:                -0.950
REMARK  Name = 
REMARK  7 active torsions:
REMARK  status: ('A' for Active; 'I' for Inactive)
REMARK    1  A    between atoms: C_2  and  C_4
REMARK    2  A    between atoms: C_7  and  O_8
REMARK    3  A    between atoms: O_8  and  C_9
REMARK    4  A    between atoms: C_9  and  C_10
REMARK    5  A    between atoms: C_10  and  C_11
REMARK    6  A    between atoms: C_15  and  O_16
REMARK    7  A    between atoms: O_16  and  C_17
REMARK                            x       y       z     vdW  Elec       q    Type
REMARK                         _______ _______ _______ _____ _____    ______ ____
ROOT
ATOM      1  C   UNL     1      49.583   7.310  13.235  0.00  0.00    +0.000 C 
ENDROOT
BRANCH   1   2
ATOM      2  O   UNL     1      49.149   7.758  14.528  0.00  0.00    +0.000 OA
BRANCH   2   6
ATOM      3  C   UNL     1      48.025   4.660  17.005  0.00  0.00    +0.000 A 
ATOM      4  C   UNL     1      48.782   5.714  17.519  0.00  0.00    +0.000 A 
ATOM      5  C   UNL     1      49.160   6.758  16.671  0.00  0.00    +0.000 A 
ATOM      6  C   UNL     1      48.764   6.710  15.341  0.00  0.00    +0.000 A 
ATOM      7  N   UNL     1      48.036   5.700  14.820  0.00  0.00    +0.000 NA
ATOM      8  C   UNL     1      47.693   4.693  15.658  0.00  0.00    +0.000 A 
BRANCH   3  10
ATOM      9  N   UNL     1      48.288   3.196  18.927  0.00  0.00    +0.000 N 
ATOM     10  C   UNL     1      47.574   3.503  17.805  0.00  0.00    +0.000 C 
ATOM     11  O   UNL     1      46.571   2.871  17.502  0.00  0.00    +0.000 OA
ATOM     12  H   UNL     1      47.889   2.478  19.521  0.00  0.00    +0.000 HD
ATOM     13  H   UNL     1      48.946   3.835  19.348  0.00  0.00    +0.000 HD
ENDBRANCH   3  10
ENDBRANCH   2   6
ENDBRANCH   1   2
BRANCH   1  14
ATOM     14  C   UNL     1      49.127   8.313  12.176  0.00  0.00    +0.000 C 
BRANCH  14  15
ATOM     15  C   UNL     1      47.623   8.400  12.087  0.00  0.00    +0.000 A 
ATOM     16  C   UNL     1      46.972   9.635  12.177  0.00  0.00    +0.000 A 
ATOM     17  C   UNL     1      45.579   9.707  12.096  0.00  0.00    +0.000 A 
ATOM     18  C   UNL     1      44.819   8.545  11.934  0.00  0.00    +0.000 A 
ATOM     19  C   UNL     1      45.456   7.308  11.868  0.00  0.00    +0.000 A 
ATOM     20  C   UNL     1      46.851   7.238  11.939  0.00  0.00    +0.000 A 
BRANCH  19  21
ATOM     21  O   UNL     1      44.818   6.105  11.696  0.00  0.00    +0.000 OA
BRANCH  21  22
ATOM     22  C   UNL     1      44.749   5.185  12.810  0.00  0.00    +0.000 C 
ATOM     23  C   UNL     1      45.344   3.783  12.627  0.00  0.00    +0.000 C 
ATOM     24  O   UNL     1      44.081   3.147  12.938  0.00  0.00    +0.000 OA
ATOM     25  C   UNL     1      43.419   4.433  12.950  0.00  0.00    +0.000 C 
ENDBRANCH  21  22
ENDBRANCH  19  21
ENDBRANCH  14  15
ENDBRANCH   1  14
TORSDOF 7
ENDMDL
