MODEL 1
REMARK VINA RESULT:    -8.229      0.000      0.000
REMARK INTER + INTRA:         -12.920
REMARK INTER:                 -11.837
REMARK INTRA:                  -1.083
REMARK UNBOUND:                -1.083
REMARK  Name = 
REMARK  8 active torsions:
REMARK  status: ('A' for Active; 'I' for Inactive)
REMARK    1  A    between atoms: N_1  and  C_2
REMARK    2  A    between atoms: C_2  and  C_3
REMARK    3  A    between atoms: C_2  and  C_18
REMARK    4  A    between atoms: C_3  and  C_4
REMARK    5  A    between atoms: C_7  and  O_8
REMARK    6  A    between atoms: O_8  and  C_9
REMARK    7  A    between atoms: C_9  and  C_10
REMARK    8  A    between atoms: N_20  and  C_21
REMARK                            x       y       z     vdW  Elec       q    Type
REMARK                         _______ _______ _______ _____ _____    ______ ____
ROOT
ATOM      1  C   UNL     1      47.002   8.025  12.746  0.00  0.00    +0.000 C 
ENDROOT
BRANCH   1   2
ATOM      2  C   UNL     1      47.933   7.081  13.529  0.00  0.00    +0.000 C 
ATOM      3  O   UNL     1      48.666   6.280  12.952  0.00  0.00    +0.000 OA
ATOM      4  N   UNL     1      47.801   7.182  14.904  0.00  0.00    +0.000 N 
ATOM      5  H   UNL     1      47.031   7.724  15.290  0.00  0.00    +0.000 HD
BRANCH   4   6
ATOM      6  C   UNL     1      48.619   6.516  15.815  0.00  0.00    +0.000 A 
ATOM      7  C   UNL     1      49.758   7.031  16.404  0.00  0.00    +0.000 A 
ATOM      8  S   UNL     1      50.487   5.953  17.514  0.00  0.00    +0.000 S 
ATOM      9  C   UNL     1      49.298   4.771  17.226  0.00  0.00    +0.000 A 
ATOM     10  N   UNL     1      49.320   3.577  17.869  0.00  0.00    +0.000 NA
ATOM     11  C   UNL     1      48.357   2.777  17.535  0.00  0.00    +0.000 A 
ATOM     12  N   UNL     1      47.383   3.064  16.609  0.00  0.00    +0.000 N 
ATOM     13  C   UNL     1      47.328   4.260  15.930  0.00  0.00    +0.000 A 
ATOM     14  O   UNL     1      46.466   4.508  15.091  0.00  0.00    +0.000 OA
ATOM     15  C   UNL     1      48.371   5.191  16.293  0.00  0.00    +0.000 A 
ATOM     16  H   UNL     1      46.673   2.384  16.383  0.00  0.00    +0.000 HD
ENDBRANCH   4   6
ENDBRANCH   1   2
BRANCH   1  17
ATOM     17  N   UNL     1      47.162   9.396  13.281  0.00  0.00    +0.000 NA
ATOM     18  H   UNL     1      46.632   9.510  14.142  0.00  0.00    +0.000 HD
ATOM     19  H   UNL     1      46.772  10.058  12.609  0.00  0.00    +0.000 HD
ENDBRANCH   1  17
BRANCH   1  20
ATOM     20  C   UNL     1      45.567   7.480  12.897  0.00  0.00    +0.000 C 
BRANCH  20  21
ATOM     21  C   UNL     1      45.156   6.468  11.863  0.00  0.00    +0.000 A 
ATOM     22  C   UNL     1      45.853   6.321  10.659  0.00  0.00    +0.000 A 
ATOM     23  C   UNL     1      45.485   5.320   9.757  0.00  0.00    +0.000 A 
ATOM     24  C   UNL     1      44.426   4.462  10.055  0.00  0.00    +0.000 A 
ATOM     25  C   UNL     1      43.683   4.657  11.220  0.00  0.00    +0.000 A 
ATOM     26  C   UNL     1      44.058   5.642  12.125  0.00  0.00    +0.000 A 
BRANCH  24  27
ATOM     27  O   UNL     1      44.202   3.449   9.161  0.00  0.00    +0.000 OA
BRANCH  27  28
ATOM     28  C   UNL     1      45.061   2.317   9.336  0.00  0.00    +0.000 C 
BRANCH  28  29
ATOM     29  C   UNL     1      45.880   2.076   8.093  0.00  0.00    +0.000 A 
ATOM     30  C   UNL     1      46.020   3.088   7.145  0.00  0.00    +0.000 A 
ATOM     31  C   UNL     1      46.849   2.870   6.051  0.00  0.00    +0.000 A 
ATOM     32  C   UNL     1      47.513   1.654   5.933  0.00  0.00    +0.000 A 
ATOM     33  C   UNL     1      47.323   0.705   6.920  0.00  0.00    +0.000 A 
ATOM     34  N   UNL     1      46.531   0.889   7.997  0.00  0.00    +0.000 NA
ENDBRANCH  28  29
ENDBRANCH  27  28
ENDBRANCH  24  27
ENDBRANCH  20  21
ENDBRANCH   1  20
TORSDOF 8
ENDMDL
MODEL 2
REMARK VINA RESULT:    -7.868      2.143      3.151
REMARK INTER + INTRA:         -12.400
REMARK INTER:                 -11.583
REMARK INTRA:                  -0.817
REMARK UNBOUND:                -1.083
REMARK  Name = 
REMARK  8 active torsions:
REMARK  status: ('A' for Active; 'I' for Inactive)
REMARK    1  A    between atoms: N_1  and  C_2
REMARK    2  A    between atoms: C_2  and  C_3
REMARK    3  A    between atoms: C_2  and  C_18
REMARK    4  A    between atoms: C_3  and  C_4
REMARK    5  A    between atoms: C_7  and  O_8
REMARK    6  A    between atoms: O_8  and  C_9
REMARK    7  A    between atoms: C_9  and  C_10
REMARK    8  A    between atoms: N_20  and  C_21
REMARK                            x       y       z     vdW  Elec       q    Type
REMARK                         _______ _______ _______ _____ _____    ______ ____
ROOT
ATOM      1  C   UNL     1      47.016   4.158  15.391  0.00  0.00    +0.000 C 
ENDROOT
BRANCH   1   2
ATOM      2  C   UNL     1      47.531   4.684  16.743  0.00  0.00    +0.000 C 
ATOM      3  O   UNL     1      46.902   4.500  17.784  0.00  0.00    +0.000 OA
ATOM      4  N   UNL     1      48.699   5.421  16.646  0.00  0.00    +0.000 N 
ATOM      5  H   UNL     1      49.040   5.692  15.725  0.00  0.00    +0.000 HD
BRANCH   4   6
ATOM      6  C   UNL     1      49.413   5.896  17.745  0.00  0.00    +0.000 A 
ATOM      7  C   UNL     1      49.194   7.098  18.392  0.00  0.00    +0.000 A 
ATOM      8  S   UNL     1      50.224   7.336  19.735  0.00  0.00    +0.000 S 
ATOM      9  C   UNL     1      50.991   5.840  19.477  0.00  0.00    +0.000 A 
ATOM     10  N   UNL     1      51.988   5.408  20.291  0.00  0.00    +0.000 NA
ATOM     11  C   UNL     1      52.482   4.257  19.959  0.00  0.00    +0.000 A 
ATOM     12  N   UNL     1      52.072   3.507  18.883  0.00  0.00    +0.000 N 
ATOM     13  C   UNL     1      51.070   3.910  18.030  0.00  0.00    +0.000 A 
ATOM     14  O   UNL     1      50.716   3.247  17.059  0.00  0.00    +0.000 OA
ATOM     15  C   UNL     1      50.475   5.179  18.380  0.00  0.00    +0.000 A 
ATOM     16  H   UNL     1      52.516   2.626  18.672  0.00  0.00    +0.000 HD
ENDBRANCH   4   6
ENDBRANCH   1   2
BRANCH   1  17
ATOM     17  N   UNL     1      47.767   2.931  15.044  0.00  0.00    +0.000 NA
ATOM     18  H   UNL     1      48.764   3.062  15.203  0.00  0.00    +0.000 HD
ATOM     19  H   UNL     1      47.652   2.746  14.047  0.00  0.00    +0.000 HD
ENDBRANCH   1  17
BRANCH   1  20
ATOM     20  C   UNL     1      47.199   5.291  14.361  0.00  0.00    +0.000 C 
BRANCH  20  21
ATOM     21  C   UNL     1      46.436   5.118  13.076  0.00  0.00    +0.000 A 
ATOM     22  C   UNL     1      46.545   6.035  12.026  0.00  0.00    +0.000 A 
ATOM     23  C   UNL     1      45.878   5.799  10.822  0.00  0.00    +0.000 A 
ATOM     24  C   UNL     1      45.107   4.647  10.660  0.00  0.00    +0.000 A 
ATOM     25  C   UNL     1      44.937   3.772  11.733  0.00  0.00    +0.000 A 
ATOM     26  C   UNL     1      45.612   3.997  12.926  0.00  0.00    +0.000 A 
BRANCH  24  27
ATOM     27  O   UNL     1      44.574   4.450   9.414  0.00  0.00    +0.000 OA
BRANCH  27  28
ATOM     28  C   UNL     1      44.391   3.072   9.070  0.00  0.00    +0.000 C 
BRANCH  28  29
ATOM     29  C   UNL     1      45.525   2.588   8.202  0.00  0.00    +0.000 A 
ATOM     30  C   UNL     1      46.143   3.464   7.313  0.00  0.00    +0.000 A 
ATOM     31  C   UNL     1      47.241   3.017   6.586  0.00  0.00    +0.000 A 
ATOM     32  C   UNL     1      47.690   1.713   6.768  0.00  0.00    +0.000 A 
ATOM     33  C   UNL     1      47.022   0.910   7.673  0.00  0.00    +0.000 A 
ATOM     34  N   UNL     1      45.959   1.317   8.397  0.00  0.00    +0.000 NA
ENDBRANCH  28  29
ENDBRANCH  27  28
ENDBRANCH  24  27
ENDBRANCH  20  21
ENDBRANCH   1  20
TORSDOF 8
ENDMDL
MODEL 3
REMARK VINA RESULT:    -7.490      2.902      4.537
REMARK INTER + INTRA:         -11.856
REMARK INTER:                 -11.036
REMARK INTRA:                  -0.820
REMARK UNBOUND:                -1.083
REMARK  Name = 
REMARK  8 active torsions:
REMARK  status: ('A' for Active; 'I' for Inactive)
REMARK    1  A    between atoms: N_1  and  C_2
REMARK    2  A    between atoms: C_2  and  C_3
REMARK    3  A    between atoms: C_2  and  C_18
REMARK    4  A    between atoms: C_3  and  C_4
REMARK    5  A    between atoms: C_7  and  O_8
REMARK    6  A    between atoms: O_8  and  C_9
REMARK    7  A    between atoms: C_9  and  C_10
REMARK    8  A    between atoms: N_20  and  C_21
REMARK                            x       y       z     vdW  Elec       q    Type
REMARK                         _______ _______ _______ _____ _____    ______ ____
ROOT
ATOM      1  C   UNL     1      47.700   5.169  17.540  0.00  0.00    +0.000 C 
ENDROOT
BRANCH   1   2
ATOM      2  C   UNL     1      48.981   4.808  18.312  0.00  0.00    +0.000 C 
ATOM      3  O   UNL     1      48.995   4.752  19.540  0.00  0.00    +0.000 OA
ATOM      4  N   UNL     1      50.090   4.631  17.501  0.00  0.00    +0.000 N 
ATOM      5  H   UNL     1      50.033   4.893  16.519  0.00  0.00    +0.000 HD
BRANCH   4   6
ATOM      6  C   UNL     1      51.328   4.186  17.962  0.00  0.00    +0.000 A 
ATOM      7  C   UNL     1      52.275   4.960  18.607  0.00  0.00    +0.000 A 
ATOM      8  S   UNL     1      53.659   4.073  19.079  0.00  0.00    +0.000 S 
ATOM      9  C   UNL     1      53.024   2.637  18.426  0.00  0.00    +0.000 A 
ATOM     10  N   UNL     1      53.710   1.468  18.494  0.00  0.00    +0.000 NA
ATOM     11  C   UNL     1      53.104   0.465  17.940  0.00  0.00    +0.000 A 
ATOM     12  N   UNL     1      51.881   0.532  17.319  0.00  0.00    +0.000 N 
ATOM     13  C   UNL     1      51.155   1.698  17.222  0.00  0.00    +0.000 A 
ATOM     14  O   UNL     1      50.069   1.760  16.653  0.00  0.00    +0.000 OA
ATOM     15  C   UNL     1      51.785   2.836  17.850  0.00  0.00    +0.000 A 
ATOM     16  H   UNL     1      51.476  -0.287  16.891  0.00  0.00    +0.000 HD
ENDBRANCH   4   6
ENDBRANCH   1   2
BRANCH   1  17
ATOM     17  N   UNL     1      46.576   5.246  18.500  0.00  0.00    +0.000 NA
ATOM     18  H   UNL     1      46.403   4.339  18.926  0.00  0.00    +0.000 HD
ATOM     19  H   UNL     1      45.727   5.497  17.992  0.00  0.00    +0.000 HD
ENDBRANCH   1  17
BRANCH   1  20
ATOM     20  C   UNL     1      47.498   4.088  16.458  0.00  0.00    +0.000 C 
BRANCH  20  21
ATOM     21  C   UNL     1      47.248   4.610  15.070  0.00  0.00    +0.000 A 
ATOM     22  C   UNL     1      46.500   3.887  14.135  0.00  0.00    +0.000 A 
ATOM     23  C   UNL     1      46.228   4.440  12.882  0.00  0.00    +0.000 A 
ATOM     24  C   UNL     1      46.696   5.714  12.560  0.00  0.00    +0.000 A 
ATOM     25  C   UNL     1      47.506   6.403  13.463  0.00  0.00    +0.000 A 
ATOM     26  C   UNL     1      47.765   5.861  14.716  0.00  0.00    +0.000 A 
BRANCH  24  27
ATOM     27  O   UNL     1      46.296   6.214  11.349  0.00  0.00    +0.000 OA
BRANCH  27  28
ATOM     28  C   UNL     1      45.051   5.681  10.882  0.00  0.00    +0.000 C 
BRANCH  28  29
ATOM     29  C   UNL     1      45.284   4.680   9.779  0.00  0.00    +0.000 A 
ATOM     30  C   UNL     1      44.679   3.426   9.839  0.00  0.00    +0.000 A 
ATOM     31  C   UNL     1      44.839   2.553   8.769  0.00  0.00    +0.000 A 
ATOM     32  C   UNL     1      45.597   2.954   7.674  0.00  0.00    +0.000 A 
ATOM     33  C   UNL     1      46.159   4.217   7.692  0.00  0.00    +0.000 A 
ATOM     34  N   UNL     1      46.016   5.089   8.712  0.00  0.00    +0.000 NA
ENDBRANCH  28  29
ENDBRANCH  27  28
ENDBRANCH  24  27
ENDBRANCH  20  21
ENDBRANCH   1  20
TORSDOF 8
ENDMDL
MODEL 4
REMARK VINA RESULT:    -7.435      2.156      2.448
REMARK INTER + INTRA:         -11.777
REMARK INTER:                 -10.891
REMARK INTRA:                  -0.887
REMARK UNBOUND:                -1.083
REMARK  Name = 
REMARK  8 active torsions:
REMARK  status: ('A' for Active; 'I' for Inactive)
REMARK    1  A    between atoms: N_1  and  C_2
REMARK    2  A    between atoms: C_2  and  C_3
REMARK    3  A    between atoms: C_2  and  C_18
REMARK    4  A    between atoms: C_3  and  C_4
REMARK    5  A    between atoms: C_7  and  O_8
REMARK    6  A    between atoms: O_8  and  C_9
REMARK    7  A    between atoms: C_9  and  C_10
REMARK    8  A    between atoms: N_20  and  C_21
REMARK                            x       y       z     vdW  Elec       q    Type
REMARK                         _______ _______ _______ _____ _____    ______ ____
ROOT
ATOM      1  C   UNL     1      48.845   6.517  13.888  0.00  0.00    +0.000 C 
ENDROOT
BRANCH   1   2
ATOM      2  C   UNL     1      49.237   6.912  15.323  0.00  0.00    +0.000 C 
ATOM      3  O   UNL     1      50.289   7.503  15.560  0.00  0.00    +0.000 OA
ATOM      4  N   UNL     1      48.341   6.478  16.286  0.00  0.00    +0.000 N 
ATOM      5  H   UNL     1      47.606   5.825  16.021  0.00  0.00    +0.000 HD
BRANCH   4   6
ATOM      6  C   UNL     1      48.424   6.817  17.635  0.00  0.00    +0.000 A 
ATOM      7  C   UNL     1      48.431   8.102  18.146  0.00  0.00    +0.000 A 
ATOM      8  S   UNL     1      48.492   8.145  19.854  0.00  0.00    +0.000 S 
ATOM      9  C   UNL     1      48.516   6.447  19.948  0.00  0.00    +0.000 A 
ATOM     10  N   UNL     1      48.560   5.807  21.144  0.00  0.00    +0.000 NA
ATOM     11  C   UNL     1      48.588   4.515  21.052  0.00  0.00    +0.000 A 
ATOM     12  N   UNL     1      48.584   3.811  19.873  0.00  0.00    +0.000 N 
ATOM     13  C   UNL     1      48.546   4.420  18.639  0.00  0.00    +0.000 A 
ATOM     14  O   UNL     1      48.559   3.790  17.586  0.00  0.00    +0.000 OA
ATOM     15  C   UNL     1      48.489   5.862  18.697  0.00  0.00    +0.000 A 
ATOM     16  H   UNL     1      48.626   2.803  19.876  0.00  0.00    +0.000 HD
ENDBRANCH   4   6
ENDBRANCH   1   2
BRANCH   1  17
ATOM     17  N   UNL     1      49.838   7.091  12.953  0.00  0.00    +0.000 NA
ATOM     18  H   UNL     1      50.736   7.220  13.414  0.00  0.00    +0.000 HD
ATOM     19  H   UNL     1      49.522   8.018  12.666  0.00  0.00    +0.000 HD
ENDBRANCH   1  17
BRANCH   1  20
ATOM     20  C   UNL     1      47.414   7.038  13.646  0.00  0.00    +0.000 C 
BRANCH  20  21
ATOM     21  C   UNL     1      46.537   6.140  12.817  0.00  0.00    +0.000 A 
ATOM     22  C   UNL     1      45.966   6.573  11.616  0.00  0.00    +0.000 A 
ATOM     23  C   UNL     1      45.219   5.685  10.839  0.00  0.00    +0.000 A 
ATOM     24  C   UNL     1      45.044   4.364  11.254  0.00  0.00    +0.000 A 
ATOM     25  C   UNL     1      45.549   3.954  12.488  0.00  0.00    +0.000 A 
ATOM     26  C   UNL     1      46.305   4.832  13.255  0.00  0.00    +0.000 A 
BRANCH  24  27
ATOM     27  O   UNL     1      44.385   3.541  10.380  0.00  0.00    +0.000 OA
BRANCH  27  28
ATOM     28  C   UNL     1      44.469   3.957   9.013  0.00  0.00    +0.000 C 
BRANCH  28  29
ATOM     29  C   UNL     1      45.490   3.133   8.270  0.00  0.00    +0.000 A 
ATOM     30  C   UNL     1      46.372   3.751   7.385  0.00  0.00    +0.000 A 
ATOM     31  C   UNL     1      47.358   2.983   6.778  0.00  0.00    +0.000 A 
ATOM     32  C   UNL     1      47.437   1.625   7.069  0.00  0.00    +0.000 A 
ATOM     33  C   UNL     1      46.526   1.091   7.961  0.00  0.00    +0.000 A 
ATOM     34  N   UNL     1      45.562   1.812   8.571  0.00  0.00    +0.000 NA
ENDBRANCH  28  29
ENDBRANCH  27  28
ENDBRANCH  24  27
ENDBRANCH  20  21
ENDBRANCH   1  20
TORSDOF 8
ENDMDL
MODEL 5
REMARK VINA RESULT:    -7.061      2.453      3.289
REMARK INTER + INTRA:         -11.240
REMARK INTER:                 -10.480
REMARK INTRA:                  -0.759
REMARK UNBOUND:                -1.083
REMARK  Name = 
REMARK  8 active torsions:
REMARK  status: ('A' for Active; 'I' for Inactive)
REMARK    1  A    between atoms: N_1  and  C_2
REMARK    2  A    between atoms: C_2  and  C_3
REMARK    3  A    between atoms: C_2  and  C_18
REMARK    4  A    between atoms: C_3  and  C_4
REMARK    5  A    between atoms: C_7  and  O_8
REMARK    6  A    between atoms: O_8  and  C_9
REMARK    7  A    between atoms: C_9  and  C_10
REMARK    8  A    between atoms: N_20  and  C_21
REMARK                            x       y       z     vdW  Elec       q    Type
REMARK                         _______ _______ _______ _____ _____    ______ ____
ROOT
ATOM      1  C   UNL     1      48.660   8.188  14.606  0.00  0.00    +0.000 C 
ENDROOT
BRANCH   1   2
ATOM      2  C   UNL     1      49.097   7.040  15.534  0.00  0.00    +0.000 C 
ATOM      3  O   UNL     1      50.219   6.543  15.452  0.00  0.00    +0.000 OA
ATOM      4  N   UNL     1      48.099   6.601  16.387  0.00  0.00    +0.000 N 
ATOM      5  H   UNL     1      47.146   6.932  16.248  0.00  0.00    +0.000 HD
BRANCH   4   6
ATOM      6  C   UNL     1      48.295   5.656  17.393  0.00  0.00    +0.000 A 
ATOM      7  C   UNL     1      48.649   4.334  17.201  0.00  0.00    +0.000 A 
ATOM      8  S   UNL     1      48.854   3.474  18.664  0.00  0.00    +0.000 S 
ATOM      9  C   UNL     1      48.468   4.850  19.587  0.00  0.00    +0.000 A 
ATOM     10  N   UNL     1      48.463   4.811  20.943  0.00  0.00    +0.000 NA
ATOM     11  C   UNL     1      48.136   5.932  21.504  0.00  0.00    +0.000 A 
ATOM     12  N   UNL     1      47.808   7.083  20.828  0.00  0.00    +0.000 N 
ATOM     13  C   UNL     1      47.796   7.164  19.454  0.00  0.00    +0.000 A 
ATOM     14  O   UNL     1      47.488   8.188  18.851  0.00  0.00    +0.000 OA
ATOM     15  C   UNL     1      48.179   5.940  18.790  0.00  0.00    +0.000 A 
ATOM     16  H   UNL     1      47.545   7.917  21.331  0.00  0.00    +0.000 HD
ENDBRANCH   4   6
ENDBRANCH   1   2
BRANCH   1  17
ATOM     17  N   UNL     1      47.443   8.814  15.171  0.00  0.00    +0.000 NA
ATOM     18  H   UNL     1      47.643   9.754  15.504  0.00  0.00    +0.000 HD
ATOM     19  H   UNL     1      47.143   8.274  15.984  0.00  0.00    +0.000 HD
ENDBRANCH   1  17
BRANCH   1  20
ATOM     20  C   UNL     1      48.434   7.582  13.206  0.00  0.00    +0.000 C 
BRANCH  20  21
ATOM     21  C   UNL     1      47.176   6.771  13.055  0.00  0.00    +0.000 A 
ATOM     22  C   UNL     1      45.963   7.357  12.677  0.00  0.00    +0.000 A 
ATOM     23  C   UNL     1      44.835   6.559  12.476  0.00  0.00    +0.000 A 
ATOM     24  C   UNL     1      44.915   5.176  12.647  0.00  0.00    +0.000 A 
ATOM     25  C   UNL     1      46.103   4.601  13.097  0.00  0.00    +0.000 A 
ATOM     26  C   UNL     1      47.230   5.392  13.282  0.00  0.00    +0.000 A 
BRANCH  24  27
ATOM     27  O   UNL     1      43.788   4.465  12.330  0.00  0.00    +0.000 OA
BRANCH  27  28
ATOM     28  C   UNL     1      43.289   4.721  11.012  0.00  0.00    +0.000 C 
BRANCH  28  29
ATOM     29  C   UNL     1      44.097   3.970   9.984  0.00  0.00    +0.000 A 
ATOM     30  C   UNL     1      44.946   4.664   9.125  0.00  0.00    +0.000 A 
ATOM     31  C   UNL     1      45.744   3.943   8.245  0.00  0.00    +0.000 A 
ATOM     32  C   UNL     1      45.672   2.553   8.246  0.00  0.00    +0.000 A 
ATOM     33  C   UNL     1      44.806   1.943   9.133  0.00  0.00    +0.000 A 
ATOM     34  N   UNL     1      44.025   2.615  10.004  0.00  0.00    +0.000 NA
ENDBRANCH  28  29
ENDBRANCH  27  28
ENDBRANCH  24  27
ENDBRANCH  20  21
ENDBRANCH   1  20
TORSDOF 8
ENDMDL
MODEL 6
REMARK VINA RESULT:    -6.960      3.357      5.942
REMARK INTER + INTRA:         -11.094
REMARK INTER:                 -10.084
REMARK INTRA:                  -1.010
REMARK UNBOUND:                -1.083
REMARK  Name = 
REMARK  8 active torsions:
REMARK  status: ('A' for Active; 'I' for Inactive)
REMARK    1  A    between atoms: N_1  and  C_2
REMARK    2  A    between atoms: C_2  and  C_3
REMARK    3  A    between atoms: C_2  and  C_18
REMARK    4  A    between atoms: C_3  and  C_4
REMARK    5  A    between atoms: C_7  and  O_8
REMARK    6  A    between atoms: O_8  and  C_9
REMARK    7  A    between atoms: C_9  and  C_10
REMARK    8  A    between atoms: N_20  and  C_21
REMARK                            x       y       z     vdW  Elec       q    Type
REMARK                         _______ _______ _______ _____ _____    ______ ____
ROOT
ATOM      1  C   UNL     1      45.553   4.376  12.999  0.00  0.00    +0.000 C 
ENDROOT
BRANCH   1   2
ATOM      2  C   UNL     1      46.828   4.363  13.861  0.00  0.00    +0.000 C 
ATOM      3  O   UNL     1      47.701   3.512  13.701  0.00  0.00    +0.000 OA
ATOM      4  N   UNL     1      46.845   5.336  14.846  0.00  0.00    +0.000 N 
ATOM      5  H   UNL     1      45.996   5.865  15.036  0.00  0.00    +0.000 HD
BRANCH   4   6
ATOM      6  C   UNL     1      47.941   5.592  15.669  0.00  0.00    +0.000 A 
ATOM      7  C   UNL     1      48.930   6.528  15.427  0.00  0.00    +0.000 A 
ATOM      8  S   UNL     1      50.097   6.609  16.675  0.00  0.00    +0.000 S 
ATOM      9  C   UNL     1      49.309   5.390  17.562  0.00  0.00    +0.000 A 
ATOM     10  N   UNL     1      49.785   4.970  18.760  0.00  0.00    +0.000 NA
ATOM     11  C   UNL     1      49.085   4.027  19.308  0.00  0.00    +0.000 A 
ATOM     12  N   UNL     1      47.958   3.465  18.758  0.00  0.00    +0.000 N 
ATOM     13  C   UNL     1      47.444   3.858  17.543  0.00  0.00    +0.000 A 
ATOM     14  O   UNL     1      46.447   3.343  17.046  0.00  0.00    +0.000 OA
ATOM     15  C   UNL     1      48.183   4.926  16.910  0.00  0.00    +0.000 A 
ATOM     16  H   UNL     1      47.472   2.719  19.233  0.00  0.00    +0.000 HD
ENDBRANCH   4   6
ENDBRANCH   1   2
BRANCH   1  17
ATOM     17  N   UNL     1      45.177   2.978  12.692  0.00  0.00    +0.000 NA
ATOM     18  H   UNL     1      45.604   2.336  13.356  0.00  0.00    +0.000 HD
ATOM     19  H   UNL     1      45.544   2.733  11.772  0.00  0.00    +0.000 HD
ENDBRANCH   1  17
BRANCH   1  20
ATOM     20  C   UNL     1      45.864   5.209  11.738  0.00  0.00    +0.000 C 
BRANCH  20  21
ATOM     21  C   UNL     1      46.258   6.638  11.996  0.00  0.00    +0.000 A 
ATOM     22  C   UNL     1      47.567   7.087  11.797  0.00  0.00    +0.000 A 
ATOM     23  C   UNL     1      47.876   8.437  11.977  0.00  0.00    +0.000 A 
ATOM     24  C   UNL     1      46.881   9.342  12.350  0.00  0.00    +0.000 A 
ATOM     25  C   UNL     1      45.593   8.880  12.622  0.00  0.00    +0.000 A 
ATOM     26  C   UNL     1      45.281   7.540  12.429  0.00  0.00    +0.000 A 
BRANCH  24  27
ATOM     27  O   UNL     1      47.255  10.658  12.404  0.00  0.00    +0.000 OA
BRANCH  27  28
ATOM     28  C   UNL     1      46.309  11.556  11.813  0.00  0.00    +0.000 C 
BRANCH  28  29
ATOM     29  C   UNL     1      46.747  11.951  10.426  0.00  0.00    +0.000 A 
ATOM     30  C   UNL     1      48.103  11.962  10.102  0.00  0.00    +0.000 A 
ATOM     31  C   UNL     1      48.476  12.246   8.793  0.00  0.00    +0.000 A 
ATOM     32  C   UNL     1      47.490  12.510   7.848  0.00  0.00    +0.000 A 
ATOM     33  C   UNL     1      46.169  12.474   8.251  0.00  0.00    +0.000 A 
ATOM     34  N   UNL     1      45.775  12.195   9.511  0.00  0.00    +0.000 NA
ENDBRANCH  28  29
ENDBRANCH  27  28
ENDBRANCH  24  27
ENDBRANCH  20  21
ENDBRANCH   1  20
TORSDOF 8
ENDMDL
MODEL 7
REMARK VINA RESULT:    -6.942      3.031      4.337
REMARK INTER + INTRA:         -11.069
REMARK INTER:                 -10.295
REMARK INTRA:                  -0.773
REMARK UNBOUND:                -1.083
REMARK  Name = 
REMARK  8 active torsions:
REMARK  status: ('A' for Active; 'I' for Inactive)
REMARK    1  A    between atoms: N_1  and  C_2
REMARK    2  A    between atoms: C_2  and  C_3
REMARK    3  A    between atoms: C_2  and  C_18
REMARK    4  A    between atoms: C_3  and  C_4
REMARK    5  A    between atoms: C_7  and  O_8
REMARK    6  A    between atoms: O_8  and  C_9
REMARK    7  A    between atoms: C_9  and  C_10
REMARK    8  A    between atoms: N_20  and  C_21
REMARK                            x       y       z     vdW  Elec       q    Type
REMARK                         _______ _______ _______ _____ _____    ______ ____
ROOT
ATOM      1  C   UNL     1      47.416   4.467  16.156  0.00  0.00    +0.000 C 
ENDROOT
BRANCH   1   2
ATOM      2  C   UNL     1      47.982   4.989  17.489  0.00  0.00    +0.000 C 
ATOM      3  O   UNL     1      49.077   4.617  17.910  0.00  0.00    +0.000 OA
ATOM      4  N   UNL     1      47.121   5.833  18.169  0.00  0.00    +0.000 N 
ATOM      5  H   UNL     1      46.160   5.926  17.846  0.00  0.00    +0.000 HD
BRANCH   4   6
ATOM      6  C   UNL     1      47.461   6.518  19.335  0.00  0.00    +0.000 A 
ATOM      7  C   UNL     1      47.238   6.075  20.625  0.00  0.00    +0.000 A 
ATOM      8  S   UNL     1      47.830   7.149  21.816  0.00  0.00    +0.000 S 
ATOM      9  C   UNL     1      48.393   8.233  20.632  0.00  0.00    +0.000 A 
ATOM     10  N   UNL     1      49.022   9.386  20.973  0.00  0.00    +0.000 NA
ATOM     11  C   UNL     1      49.379  10.113  19.962  0.00  0.00    +0.000 A 
ATOM     12  N   UNL     1      49.155   9.793  18.645  0.00  0.00    +0.000 N 
ATOM     13  C   UNL     1      48.516   8.638  18.256  0.00  0.00    +0.000 A 
ATOM     14  O   UNL     1      48.301   8.360  17.079  0.00  0.00    +0.000 OA
ATOM     15  C   UNL     1      48.122   7.785  19.354  0.00  0.00    +0.000 A 
ATOM     16  H   UNL     1      49.445  10.417  17.908  0.00  0.00    +0.000 HD
ENDBRANCH   4   6
ENDBRANCH   1   2
BRANCH   1  17
ATOM     17  N   UNL     1      47.872   3.072  15.964  0.00  0.00    +0.000 NA
ATOM     18  H   UNL     1      48.820   3.050  15.595  0.00  0.00    +0.000 HD
ATOM     19  H   UNL     1      47.277   2.626  15.264  0.00  0.00    +0.000 HD
ENDBRANCH   1  17
BRANCH   1  20
ATOM     20  C   UNL     1      47.907   5.422  15.048  0.00  0.00    +0.000 C 
BRANCH  20  21
ATOM     21  C   UNL     1      47.112   5.381  13.771  0.00  0.00    +0.000 A 
ATOM     22  C   UNL     1      46.132   4.410  13.545  0.00  0.00    +0.000 A 
ATOM     23  C   UNL     1      45.365   4.451  12.379  0.00  0.00    +0.000 A 
ATOM     24  C   UNL     1      45.570   5.462  11.439  0.00  0.00    +0.000 A 
ATOM     25  C   UNL     1      46.598   6.385  11.629  0.00  0.00    +0.000 A 
ATOM     26  C   UNL     1      47.351   6.355  12.796  0.00  0.00    +0.000 A 
BRANCH  24  27
ATOM     27  O   UNL     1      44.705   5.481  10.378  0.00  0.00    +0.000 OA
BRANCH  27  28
ATOM     28  C   UNL     1      44.241   4.185   9.981  0.00  0.00    +0.000 C 
BRANCH  28  29
ATOM     29  C   UNL     1      45.205   3.552   9.009  0.00  0.00    +0.000 A 
ATOM     30  C   UNL     1      45.413   2.175   9.034  0.00  0.00    +0.000 A 
ATOM     31  C   UNL     1      46.240   1.605   8.073  0.00  0.00    +0.000 A 
ATOM     32  C   UNL     1      46.835   2.423   7.118  0.00  0.00    +0.000 A 
ATOM     33  C   UNL     1      46.572   3.779   7.161  0.00  0.00    +0.000 A 
ATOM     34  N   UNL     1      45.769   4.360   8.076  0.00  0.00    +0.000 NA
ENDBRANCH  28  29
ENDBRANCH  27  28
ENDBRANCH  24  27
ENDBRANCH  20  21
ENDBRANCH   1  20
TORSDOF 8
ENDMDL
MODEL 8
REMARK VINA RESULT:    -6.905      3.293      7.756
REMARK INTER + INTRA:         -11.015
REMARK INTER:                  -9.607
REMARK INTRA:                  -1.408
REMARK UNBOUND:                -1.083
REMARK  Name = 
REMARK  8 active torsions:
REMARK  status: ('A' for Active; 'I' for Inactive)
REMARK    1  A    between atoms: N_1  and  C_2
REMARK    2  A    between atoms: C_2  and  C_3
REMARK    3  A    between atoms: C_2  and  C_18
REMARK    4  A    between atoms: C_3  and  C_4
REMARK    5  A    between atoms: C_7  and  O_8
REMARK    6  A    between atoms: O_8  and  C_9
REMARK    7  A    between atoms: C_9  and  C_10
REMARK    8  A    between atoms: N_20  and  C_21
REMARK                            x       y       z     vdW  Elec       q    Type
REMARK                         _______ _______ _______ _____ _____    ______ ____
ROOT
ATOM      1  C   UNL     1      46.359   9.029  12.659  0.00  0.00    +0.000 C 
ENDROOT
BRANCH   1   2
ATOM      2  C   UNL     1      45.530   8.018  11.846  0.00  0.00    +0.000 C 
ATOM      3  O   UNL     1      44.399   8.292  11.446  0.00  0.00    +0.000 OA
ATOM      4  N   UNL     1      46.149   6.790  11.685  0.00  0.00    +0.000 N 
ATOM      5  H   UNL     1      46.992   6.586  12.218  0.00  0.00    +0.000 HD
BRANCH   4   6
ATOM      6  C   UNL     1      45.644   5.762  10.890  0.00  0.00    +0.000 A 
ATOM      7  C   UNL     1      45.863   5.610   9.533  0.00  0.00    +0.000 A 
ATOM      8  S   UNL     1      45.133   4.205   8.889  0.00  0.00    +0.000 S 
ATOM      9  C   UNL     1      44.502   3.773  10.408  0.00  0.00    +0.000 A 
ATOM     10  N   UNL     1      43.764   2.647  10.571  0.00  0.00    +0.000 NA
ATOM     11  C   UNL     1      43.342   2.460  11.782  0.00  0.00    +0.000 A 
ATOM     12  N   UNL     1      43.587   3.304  12.838  0.00  0.00    +0.000 N 
ATOM     13  C   UNL     1      44.326   4.459  12.715  0.00  0.00    +0.000 A 
ATOM     14  O   UNL     1      44.530   5.220  13.656  0.00  0.00    +0.000 OA
ATOM     15  C   UNL     1      44.836   4.691  11.384  0.00  0.00    +0.000 A 
ATOM     16  H   UNL     1      43.210   3.105  13.753  0.00  0.00    +0.000 HD
ENDBRANCH   4   6
ENDBRANCH   1   2
BRANCH   1  17
ATOM     17  N   UNL     1      46.165  10.375  12.076  0.00  0.00    +0.000 NA
ATOM     18  H   UNL     1      46.956  10.978  12.291  0.00  0.00    +0.000 HD
ATOM     19  H   UNL     1      45.346  10.805  12.507  0.00  0.00    +0.000 HD
ENDBRANCH   1  17
BRANCH   1  20
ATOM     20  C   UNL     1      47.827   8.556  12.615  0.00  0.00    +0.000 C 
BRANCH  20  21
ATOM     21  C   UNL     1      48.446   8.265  13.954  0.00  0.00    +0.000 A 
ATOM     22  C   UNL     1      48.036   8.931  15.114  0.00  0.00    +0.000 A 
ATOM     23  C   UNL     1      48.584   8.580  16.350  0.00  0.00    +0.000 A 
ATOM     24  C   UNL     1      49.536   7.563  16.433  0.00  0.00    +0.000 A 
ATOM     25  C   UNL     1      49.999   6.952  15.268  0.00  0.00    +0.000 A 
ATOM     26  C   UNL     1      49.444   7.290  14.039  0.00  0.00    +0.000 A 
BRANCH  24  27
ATOM     27  O   UNL     1      49.940   7.219  17.695  0.00  0.00    +0.000 OA
BRANCH  27  28
ATOM     28  C   UNL     1      48.941   6.538  18.462  0.00  0.00    +0.000 C 
BRANCH  28  29
ATOM     29  C   UNL     1      48.772   5.122  17.973  0.00  0.00    +0.000 A 
ATOM     30  C   UNL     1      47.525   4.685  17.528  0.00  0.00    +0.000 A 
ATOM     31  C   UNL     1      47.413   3.403  17.002  0.00  0.00    +0.000 A 
ATOM     32  C   UNL     1      48.545   2.596  16.935  0.00  0.00    +0.000 A 
ATOM     33  C   UNL     1      49.743   3.108  17.394  0.00  0.00    +0.000 A 
ATOM     34  N   UNL     1      49.885   4.349  17.903  0.00  0.00    +0.000 NA
ENDBRANCH  28  29
ENDBRANCH  27  28
ENDBRANCH  24  27
ENDBRANCH  20  21
ENDBRANCH   1  20
TORSDOF 8
ENDMDL
MODEL 9
REMARK VINA RESULT:    -6.860      3.779      6.636
REMARK INTER + INTRA:         -10.951
REMARK INTER:                  -9.865
REMARK INTRA:                  -1.086
REMARK UNBOUND:                -1.083
REMARK  Name = 
REMARK  8 active torsions:
REMARK  status: ('A' for Active; 'I' for Inactive)
REMARK    1  A    between atoms: N_1  and  C_2
REMARK    2  A    between atoms: C_2  and  C_3
REMARK    3  A    between atoms: C_2  and  C_18
REMARK    4  A    between atoms: C_3  and  C_4
REMARK    5  A    between atoms: C_7  and  O_8
REMARK    6  A    between atoms: O_8  and  C_9
REMARK    7  A    between atoms: C_9  and  C_10
REMARK    8  A    between atoms: N_20  and  C_21
REMARK                            x       y       z     vdW  Elec       q    Type
REMARK                         _______ _______ _______ _____ _____    ______ ____
ROOT
ATOM      1  C   UNL     1      45.989   4.594  13.523  0.00  0.00    +0.000 C 
ENDROOT
BRANCH   1   2
ATOM      2  C   UNL     1      46.952   4.156  14.642  0.00  0.00    +0.000 C 
ATOM      3  O   UNL     1      47.567   3.093  14.578  0.00  0.00    +0.000 OA
ATOM      4  N   UNL     1      46.989   5.026  15.718  0.00  0.00    +0.000 N 
ATOM      5  H   UNL     1      46.300   5.774  15.776  0.00  0.00    +0.000 HD
BRANCH   4   6
ATOM      6  C   UNL     1      47.871   4.901  16.790  0.00  0.00    +0.000 A 
ATOM      7  C   UNL     1      47.636   4.184  17.949  0.00  0.00    +0.000 A 
ATOM      8  S   UNL     1      48.958   4.204  19.032  0.00  0.00    +0.000 S 
ATOM      9  C   UNL     1      49.872   5.177  17.978  0.00  0.00    +0.000 A 
ATOM     10  N   UNL     1      51.133   5.569  18.294  0.00  0.00    +0.000 NA
ATOM     11  C   UNL     1      51.695   6.318  17.399  0.00  0.00    +0.000 A 
ATOM     12  N   UNL     1      51.105   6.714  16.223  0.00  0.00    +0.000 N 
ATOM     13  C   UNL     1      49.828   6.344  15.866  0.00  0.00    +0.000 A 
ATOM     14  O   UNL     1      49.297   6.712  14.822  0.00  0.00    +0.000 OA
ATOM     15  C   UNL     1      49.174   5.487  16.828  0.00  0.00    +0.000 A 
ATOM     16  H   UNL     1      51.597   7.315  15.578  0.00  0.00    +0.000 HD
ENDBRANCH   4   6
ENDBRANCH   1   2
BRANCH   1  17
ATOM     17  N   UNL     1      45.481   3.384  12.838  0.00  0.00    +0.000 NA
ATOM     18  H   UNL     1      44.709   3.619  12.219  0.00  0.00    +0.000 HD
ATOM     19  H   UNL     1      45.108   2.742  13.539  0.00  0.00    +0.000 HD
ENDBRANCH   1  17
BRANCH   1  20
ATOM     20  C   UNL     1      46.775   5.535  12.586  0.00  0.00    +0.000 C 
BRANCH  20  21
ATOM     21  C   UNL     1      46.150   6.885  12.366  0.00  0.00    +0.000 A 
ATOM     22  C   UNL     1      45.062   7.061  11.505  0.00  0.00    +0.000 A 
ATOM     23  C   UNL     1      44.464   8.317  11.384  0.00  0.00    +0.000 A 
ATOM     24  C   UNL     1      44.945   9.398  12.124  0.00  0.00    +0.000 A 
ATOM     25  C   UNL     1      46.077   9.240  12.923  0.00  0.00    +0.000 A 
ATOM     26  C   UNL     1      46.664   7.987  13.056  0.00  0.00    +0.000 A 
BRANCH  24  27
ATOM     27  O   UNL     1      44.234  10.564  12.018  0.00  0.00    +0.000 OA
BRANCH  27  28
ATOM     28  C   UNL     1      43.329  10.595  10.908  0.00  0.00    +0.000 C 
BRANCH  28  29
ATOM     29  C   UNL     1      41.927  10.892  11.377  0.00  0.00    +0.000 A 
ATOM     30  C   UNL     1      40.841  10.289  10.744  0.00  0.00    +0.000 A 
ATOM     31  C   UNL     1      39.565  10.511  11.248  0.00  0.00    +0.000 A 
ATOM     32  C   UNL     1      39.408  11.326  12.365  0.00  0.00    +0.000 A 
ATOM     33  C   UNL     1      40.538  11.882  12.934  0.00  0.00    +0.000 A 
ATOM     34  N   UNL     1      41.790  11.679  12.473  0.00  0.00    +0.000 NA
ENDBRANCH  28  29
ENDBRANCH  27  28
ENDBRANCH  24  27
ENDBRANCH  20  21
ENDBRANCH   1  20
TORSDOF 8
ENDMDL
