MODEL 1
REMARK VINA RESULT:    -6.901      0.000      0.000
REMARK INTER + INTRA:          -9.852
REMARK INTER:                  -9.322
REMARK INTRA:                  -0.530
REMARK UNBOUND:                -0.530
REMARK  Name = 
REMARK  7 active torsions:
REMARK  status: ('A' for Active; 'I' for Inactive)
REMARK    1  A    between atoms: C_1  and  C_2
REMARK    2  A    between atoms: C_2  and  C_3
REMARK    3  A    between atoms: C_6  and  N_7
REMARK    4  A    between atoms: N_7  and  C_8
REMARK    5  A    between atoms: C_8  and  C_9
REMARK    6  A    between atoms: C_13  and  C_14
REMARK    7  A    between atoms: C_18  and  N_19
REMARK                            x       y       z     vdW  Elec       q    Type
REMARK                         _______ _______ _______ _____ _____    ______ ____
ROOT
ATOM      1  C   UNL     1      47.288   6.852  12.826  0.00  0.00    +0.000 A 
ATOM      2  C   UNL     1      48.092   6.629  13.956  0.00  0.00    +0.000 A 
ATOM      3  N   UNL     1      48.017   5.571  14.791  0.00  0.00    +0.000 NA
ATOM      4  C   UNL     1      47.081   4.660  14.521  0.00  0.00    +0.000 A 
ATOM      5  C   UNL     1      46.232   4.800  13.428  0.00  0.00    +0.000 A 
ATOM      6  C   UNL     1      46.301   5.892  12.535  0.00  0.00    +0.000 A 
ENDROOT
BRANCH   6   7
ATOM      7  N   UNL     1      45.403   5.928  11.481  0.00  0.00    +0.000 N 
ATOM      8  C   UNL     1      43.954   6.119  11.595  0.00  0.00    +0.000 C 
ATOM      9  C   UNL     1      43.231   4.869  11.034  0.00  0.00    +0.000 C 
ATOM     10  N   UNL     1      43.568   4.603   9.616  0.00  0.00    +0.000 NA
ATOM     11  C   UNL     1      45.040   4.488   9.489  0.00  0.00    +0.000 C 
ATOM     12  C   UNL     1      45.835   5.673  10.089  0.00  0.00    +0.000 C 
ATOM     13  H   UNL     1      43.267   5.407   9.067  0.00  0.00    +0.000 HD
ENDBRANCH   6   7
BRANCH   1  15
ATOM     14  C   UNL     1      48.979   8.391  11.734  0.00  0.00    +0.000 C 
ATOM     15  C   UNL     1      47.518   8.165  12.115  0.00  0.00    +0.000 C 
ENDBRANCH   1  15
BRANCH   4  16
ATOM     16  N   UNL     1      46.968   3.639  15.444  0.00  0.00    +0.000 N 
ATOM     17  H   UNL     1      46.088   3.158  15.275  0.00  0.00    +0.000 HD
BRANCH  16  18
ATOM     18  C   UNL     1      47.302   3.849  16.837  0.00  0.00    +0.000 C 
BRANCH  18  19
ATOM     19  C   UNL     1      48.742   3.493  17.136  0.00  0.00    +0.000 A 
ATOM     20  C   UNL     1      49.214   2.220  16.761  0.00  0.00    +0.000 A 
ATOM     21  C   UNL     1      50.525   1.832  17.022  0.00  0.00    +0.000 A 
ATOM     22  C   UNL     1      51.402   2.707  17.659  0.00  0.00    +0.000 A 
ATOM     23  C   UNL     1      50.965   3.979  18.035  0.00  0.00    +0.000 A 
ATOM     24  C   UNL     1      49.640   4.368  17.775  0.00  0.00    +0.000 A 
BRANCH  23  25
ATOM     25  C   UNL     1      51.862   4.883  18.692  0.00  0.00    +0.000 C 
ATOM     26  N   UNL     1      52.580   5.614  19.234  0.00  0.00    +0.000 NA
ENDBRANCH  23  25
ENDBRANCH  18  19
ENDBRANCH  16  18
ENDBRANCH   4  16
TORSDOF 6
ENDMDL
MODEL 2
REMARK VINA RESULT:    -6.842      1.577      2.263
REMARK INTER + INTRA:          -9.772
REMARK INTER:                  -9.020
REMARK INTRA:                  -0.752
REMARK UNBOUND:                -0.530
REMARK  Name = 
REMARK  7 active torsions:
REMARK  status: ('A' for Active; 'I' for Inactive)
REMARK    1  A    between atoms: C_1  and  C_2
REMARK    2  A    between atoms: C_2  and  C_3
REMARK    3  A    between atoms: C_6  and  N_7
REMARK    4  A    between atoms: N_7  and  C_8
REMARK    5  A    between atoms: C_8  and  C_9
REMARK    6  A    between atoms: C_13  and  C_14
REMARK    7  A    between atoms: C_18  and  N_19
REMARK                            x       y       z     vdW  Elec       q    Type
REMARK                         _______ _______ _______ _____ _____    ______ ____
ROOT
ATOM      1  C   UNL     1      47.076   6.028  13.000  0.00  0.00    +0.000 A 
ATOM      2  C   UNL     1      48.109   6.240  13.928  0.00  0.00    +0.000 A 
ATOM      3  N   UNL     1      48.274   5.589  15.098  0.00  0.00    +0.000 NA
ATOM      4  C   UNL     1      47.361   4.665  15.405  0.00  0.00    +0.000 A 
ATOM      5  C   UNL     1      46.298   4.392  14.551  0.00  0.00    +0.000 A 
ATOM      6  C   UNL     1      46.112   5.054  13.317  0.00  0.00    +0.000 A 
ENDROOT
BRANCH   6   7
ATOM      7  N   UNL     1      45.014   4.700  12.549  0.00  0.00    +0.000 N 
ATOM      8  C   UNL     1      45.014   3.731  11.449  0.00  0.00    +0.000 C 
ATOM      9  C   UNL     1      44.611   4.450  10.138  0.00  0.00    +0.000 C 
ATOM     10  N   UNL     1      43.273   5.079  10.221  0.00  0.00    +0.000 NA
ATOM     11  C   UNL     1      43.249   6.001  11.380  0.00  0.00    +0.000 C 
ATOM     12  C   UNL     1      43.705   5.368  12.718  0.00  0.00    +0.000 C 
ATOM     13  H   UNL     1      42.590   4.341  10.391  0.00  0.00    +0.000 HD
ENDBRANCH   6   7
BRANCH   1  15
ATOM     14  C   UNL     1      48.392   7.702  11.628  0.00  0.00    +0.000 C 
ATOM     15  C   UNL     1      47.071   6.960  11.811  0.00  0.00    +0.000 C 
ENDBRANCH   1  15
BRANCH   4  16
ATOM     16  N   UNL     1      47.506   4.082  16.648  0.00  0.00    +0.000 N 
ATOM     17  H   UNL     1      47.801   4.803  17.301  0.00  0.00    +0.000 HD
BRANCH  16  18
ATOM     18  C   UNL     1      48.162   2.800  16.801  0.00  0.00    +0.000 C 
BRANCH  18  19
ATOM     19  C   UNL     1      49.580   2.945  17.311  0.00  0.00    +0.000 A 
ATOM     20  C   UNL     1      49.948   4.145  17.948  0.00  0.00    +0.000 A 
ATOM     21  C   UNL     1      51.241   4.341  18.426  0.00  0.00    +0.000 A 
ATOM     22  C   UNL     1      52.199   3.340  18.284  0.00  0.00    +0.000 A 
ATOM     23  C   UNL     1      51.861   2.135  17.663  0.00  0.00    +0.000 A 
ATOM     24  C   UNL     1      50.557   1.941  17.178  0.00  0.00    +0.000 A 
BRANCH  23  25
ATOM     25  C   UNL     1      52.843   1.102  17.513  0.00  0.00    +0.000 C 
ATOM     26  N   UNL     1      53.636   0.264  17.404  0.00  0.00    +0.000 NA
ENDBRANCH  23  25
ENDBRANCH  18  19
ENDBRANCH  16  18
ENDBRANCH   4  16
TORSDOF 6
ENDMDL
MODEL 3
REMARK VINA RESULT:    -6.630      3.591      7.797
REMARK INTER + INTRA:          -9.486
REMARK INTER:                  -8.557
REMARK INTRA:                  -0.929
REMARK UNBOUND:                -0.530
REMARK  Name = 
REMARK  7 active torsions:
REMARK  status: ('A' for Active; 'I' for Inactive)
REMARK    1  A    between atoms: C_1  and  C_2
REMARK    2  A    between atoms: C_2  and  C_3
REMARK    3  A    between atoms: C_6  and  N_7
REMARK    4  A    between atoms: N_7  and  C_8
REMARK    5  A    between atoms: C_8  and  C_9
REMARK    6  A    between atoms: C_13  and  C_14
REMARK    7  A    between atoms: C_18  and  N_19
REMARK                            x       y       z     vdW  Elec       q    Type
REMARK                         _______ _______ _______ _____ _____    ______ ____
ROOT
ATOM      1  C   UNL     1      45.433   7.595  12.431  0.00  0.00    +0.000 A 
ATOM      2  C   UNL     1      44.178   7.205  11.931  0.00  0.00    +0.000 A 
ATOM      3  N   UNL     1      43.872   6.005  11.396  0.00  0.00    +0.000 NA
ATOM      4  C   UNL     1      44.860   5.111  11.325  0.00  0.00    +0.000 A 
ATOM      5  C   UNL     1      46.137   5.409  11.787  0.00  0.00    +0.000 A 
ATOM      6  C   UNL     1      46.477   6.654  12.361  0.00  0.00    +0.000 A 
ENDROOT
BRANCH   6   7
ATOM      7  N   UNL     1      47.782   6.840  12.785  0.00  0.00    +0.000 N 
ATOM      8  C   UNL     1      48.294   6.564  14.131  0.00  0.00    +0.000 C 
ATOM      9  C   UNL     1      48.819   7.882  14.755  0.00  0.00    +0.000 C 
ATOM     10  N   UNL     1      49.898   8.502  13.952  0.00  0.00    +0.000 NA
ATOM     11  C   UNL     1      49.406   8.709  12.570  0.00  0.00    +0.000 C 
ATOM     12  C   UNL     1      48.803   7.449  11.903  0.00  0.00    +0.000 C 
ATOM     13  H   UNL     1      50.676   7.846  13.914  0.00  0.00    +0.000 HD
ENDBRANCH   6   7
BRANCH   1  15
ATOM     14  C   UNL     1      45.786  10.009  11.748  0.00  0.00    +0.000 C 
ATOM     15  C   UNL     1      45.529   9.030  12.891  0.00  0.00    +0.000 C 
ENDBRANCH   1  15
BRANCH   4  16
ATOM     16  N   UNL     1      44.540   3.927  10.690  0.00  0.00    +0.000 N 
ATOM     17  H   UNL     1      45.184   3.211  11.015  0.00  0.00    +0.000 HD
BRANCH  16  18
ATOM     18  C   UNL     1      44.241   3.896   9.273  0.00  0.00    +0.000 C 
BRANCH  18  19
ATOM     19  C   UNL     1      45.345   3.235   8.474  0.00  0.00    +0.000 A 
ATOM     20  C   UNL     1      46.169   4.042   7.668  0.00  0.00    +0.000 A 
ATOM     21  C   UNL     1      47.191   3.489   6.901  0.00  0.00    +0.000 A 
ATOM     22  C   UNL     1      47.420   2.116   6.925  0.00  0.00    +0.000 A 
ATOM     23  C   UNL     1      46.624   1.291   7.722  0.00  0.00    +0.000 A 
ATOM     24  C   UNL     1      45.590   1.849   8.492  0.00  0.00    +0.000 A 
BRANCH  23  25
ATOM     25  C   UNL     1      46.854  -0.124   7.750  0.00  0.00    +0.000 C 
ATOM     26  N   UNL     1      47.028  -1.269   7.778  0.00  0.00    +0.000 NA
ENDBRANCH  23  25
ENDBRANCH  18  19
ENDBRANCH  16  18
ENDBRANCH   4  16
TORSDOF 6
ENDMDL
MODEL 4
REMARK VINA RESULT:    -6.457      2.900      7.819
REMARK INTER + INTRA:          -9.252
REMARK INTER:                  -8.558
REMARK INTRA:                  -0.694
REMARK UNBOUND:                -0.530
REMARK  Name = 
REMARK  7 active torsions:
REMARK  status: ('A' for Active; 'I' for Inactive)
REMARK    1  A    between atoms: C_1  and  C_2
REMARK    2  A    between atoms: C_2  and  C_3
REMARK    3  A    between atoms: C_6  and  N_7
REMARK    4  A    between atoms: N_7  and  C_8
REMARK    5  A    between atoms: C_8  and  C_9
REMARK    6  A    between atoms: C_13  and  C_14
REMARK    7  A    between atoms: C_18  and  N_19
REMARK                            x       y       z     vdW  Elec       q    Type
REMARK                         _______ _______ _______ _____ _____    ______ ____
ROOT
ATOM      1  C   UNL     1      47.188   5.538  13.962  0.00  0.00    +0.000 A 
ATOM      2  C   UNL     1      46.220   4.581  13.613  0.00  0.00    +0.000 A 
ATOM      3  N   UNL     1      45.512   4.547  12.464  0.00  0.00    +0.000 NA
ATOM      4  C   UNL     1      45.747   5.523  11.586  0.00  0.00    +0.000 A 
ATOM      5  C   UNL     1      46.681   6.520  11.848  0.00  0.00    +0.000 A 
ATOM      6  C   UNL     1      47.441   6.568  13.038  0.00  0.00    +0.000 A 
ENDROOT
BRANCH   6   7
ATOM      7  N   UNL     1      48.343   7.609  13.192  0.00  0.00    +0.000 N 
ATOM      8  C   UNL     1      48.059   8.903  13.819  0.00  0.00    +0.000 C 
ATOM      9  C   UNL     1      48.263  10.029  12.774  0.00  0.00    +0.000 C 
ATOM     10  N   UNL     1      49.639  10.055  12.227  0.00  0.00    +0.000 NA
ATOM     11  C   UNL     1      49.954   8.722  11.663  0.00  0.00    +0.000 C 
ATOM     12  C   UNL     1      49.709   7.538  12.630  0.00  0.00    +0.000 C 
ATOM     13  H   UNL     1      50.280  10.230  13.000  0.00  0.00    +0.000 HD
ENDBRANCH   6   7
BRANCH   1  15
ATOM     14  C   UNL     1      47.445   4.054  16.000  0.00  0.00    +0.000 C 
ATOM     15  C   UNL     1      47.766   5.397  15.351  0.00  0.00    +0.000 C 
ENDBRANCH   1  15
BRANCH   4  16
ATOM     16  N   UNL     1      44.943   5.513  10.463  0.00  0.00    +0.000 N 
ATOM     17  H   UNL     1      44.148   4.909  10.651  0.00  0.00    +0.000 HD
BRANCH  16  18
ATOM     18  C   UNL     1      45.513   5.395   9.137  0.00  0.00    +0.000 C 
BRANCH  18  19
ATOM     19  C   UNL     1      45.681   3.950   8.718  0.00  0.00    +0.000 A 
ATOM     20  C   UNL     1      44.934   2.962   9.388  0.00  0.00    +0.000 A 
ATOM     21  C   UNL     1      45.057   1.616   9.055  0.00  0.00    +0.000 A 
ATOM     22  C   UNL     1      45.926   1.222   8.040  0.00  0.00    +0.000 A 
ATOM     23  C   UNL     1      46.674   2.180   7.353  0.00  0.00    +0.000 A 
ATOM     24  C   UNL     1      46.552   3.538   7.692  0.00  0.00    +0.000 A 
BRANCH  23  25
ATOM     25  C   UNL     1      47.570   1.781   6.308  0.00  0.00    +0.000 C 
ATOM     26  N   UNL     1      48.304   1.455   5.472  0.00  0.00    +0.000 NA
ENDBRANCH  23  25
ENDBRANCH  18  19
ENDBRANCH  16  18
ENDBRANCH   4  16
TORSDOF 6
ENDMDL
MODEL 5
REMARK VINA RESULT:    -6.406      2.110      3.463
REMARK INTER + INTRA:          -9.183
REMARK INTER:                  -8.293
REMARK INTRA:                  -0.889
REMARK UNBOUND:                -0.530
REMARK  Name = 
REMARK  7 active torsions:
REMARK  status: ('A' for Active; 'I' for Inactive)
REMARK    1  A    between atoms: C_1  and  C_2
REMARK    2  A    between atoms: C_2  and  C_3
REMARK    3  A    between atoms: C_6  and  N_7
REMARK    4  A    between atoms: N_7  and  C_8
REMARK    5  A    between atoms: C_8  and  C_9
REMARK    6  A    between atoms: C_13  and  C_14
REMARK    7  A    between atoms: C_18  and  N_19
REMARK                            x       y       z     vdW  Elec       q    Type
REMARK                         _______ _______ _______ _____ _____    ______ ____
ROOT
ATOM      1  C   UNL     1      45.760   7.741  11.895  0.00  0.00    +0.000 A 
ATOM      2  C   UNL     1      46.681   8.761  12.186  0.00  0.00    +0.000 A 
ATOM      3  N   UNL     1      47.925   8.593  12.680  0.00  0.00    +0.000 NA
ATOM      4  C   UNL     1      48.309   7.339  12.925  0.00  0.00    +0.000 A 
ATOM      5  C   UNL     1      47.462   6.264  12.676  0.00  0.00    +0.000 A 
ATOM      6  C   UNL     1      46.160   6.416  12.148  0.00  0.00    +0.000 A 
ENDROOT
BRANCH   6   7
ATOM      7  N   UNL     1      45.404   5.274  11.942  0.00  0.00    +0.000 N 
ATOM      8  C   UNL     1      45.110   4.664  10.642  0.00  0.00    +0.000 C 
ATOM      9  C   UNL     1      43.578   4.672  10.412  0.00  0.00    +0.000 C 
ATOM     10  N   UNL     1      42.840   3.935  11.463  0.00  0.00    +0.000 NA
ATOM     11  C   UNL     1      43.198   4.502  12.784  0.00  0.00    +0.000 C 
ATOM     12  C   UNL     1      44.719   4.588  13.059  0.00  0.00    +0.000 C 
ATOM     13  H   UNL     1      43.150   2.965  11.442  0.00  0.00    +0.000 HD
ENDBRANCH   6   7
BRANCH   1  15
ATOM     14  C   UNL     1      44.361   9.694  11.090  0.00  0.00    +0.000 C 
ATOM     15  C   UNL     1      44.398   8.209  11.438  0.00  0.00    +0.000 C 
ENDBRANCH   1  15
BRANCH   4  16
ATOM     16  N   UNL     1      49.550   7.205  13.515  0.00  0.00    +0.000 N 
ATOM     17  H   UNL     1      49.899   6.273  13.307  0.00  0.00    +0.000 HD
BRANCH  16  18
ATOM     18  C   UNL     1      49.790   7.670  14.865  0.00  0.00    +0.000 C 
BRANCH  18  19
ATOM     19  C   UNL     1      49.774   6.536  15.868  0.00  0.00    +0.000 A 
ATOM     20  C   UNL     1      50.939   6.280  16.615  0.00  0.00    +0.000 A 
ATOM     21  C   UNL     1      50.987   5.242  17.542  0.00  0.00    +0.000 A 
ATOM     22  C   UNL     1      49.869   4.436  17.750  0.00  0.00    +0.000 A 
ATOM     23  C   UNL     1      48.697   4.672  17.029  0.00  0.00    +0.000 A 
ATOM     24  C   UNL     1      48.651   5.717  16.091  0.00  0.00    +0.000 A 
BRANCH  23  25
ATOM     25  C   UNL     1      47.544   3.846  17.238  0.00  0.00    +0.000 C 
ATOM     26  N   UNL     1      46.614   3.178  17.419  0.00  0.00    +0.000 NA
ENDBRANCH  23  25
ENDBRANCH  18  19
ENDBRANCH  16  18
ENDBRANCH   4  16
TORSDOF 6
ENDMDL
MODEL 6
REMARK VINA RESULT:    -6.365      1.881      3.913
REMARK INTER + INTRA:          -9.128
REMARK INTER:                  -8.259
REMARK INTRA:                  -0.869
REMARK UNBOUND:                -0.530
REMARK  Name = 
REMARK  7 active torsions:
REMARK  status: ('A' for Active; 'I' for Inactive)
REMARK    1  A    between atoms: C_1  and  C_2
REMARK    2  A    between atoms: C_2  and  C_3
REMARK    3  A    between atoms: C_6  and  N_7
REMARK    4  A    between atoms: N_7  and  C_8
REMARK    5  A    between atoms: C_8  and  C_9
REMARK    6  A    between atoms: C_13  and  C_14
REMARK    7  A    between atoms: C_18  and  N_19
REMARK                            x       y       z     vdW  Elec       q    Type
REMARK                         _______ _______ _______ _____ _____    ______ ____
ROOT
ATOM      1  C   UNL     1      45.892   5.366  11.911  0.00  0.00    +0.000 A 
ATOM      2  C   UNL     1      45.513   4.054  12.243  0.00  0.00    +0.000 A 
ATOM      3  N   UNL     1      45.983   3.328  13.279  0.00  0.00    +0.000 NA
ATOM      4  C   UNL     1      46.902   3.909  14.051  0.00  0.00    +0.000 A 
ATOM      5  C   UNL     1      47.345   5.203  13.796  0.00  0.00    +0.000 A 
ATOM      6  C   UNL     1      46.859   5.985  12.725  0.00  0.00    +0.000 A 
ENDROOT
BRANCH   6   7
ATOM      7  N   UNL     1      47.374   7.261  12.565  0.00  0.00    +0.000 N 
ATOM      8  C   UNL     1      48.504   7.629  11.708  0.00  0.00    +0.000 C 
ATOM      9  C   UNL     1      49.637   8.219  12.586  0.00  0.00    +0.000 C 
ATOM     10  N   UNL     1      49.205   9.414  13.346  0.00  0.00    +0.000 NA
ATOM     11  C   UNL     1      48.014   9.063  14.153  0.00  0.00    +0.000 C 
ATOM     12  C   UNL     1      46.863   8.404  13.353  0.00  0.00    +0.000 C 
ATOM     13  H   UNL     1      48.930  10.130  12.674  0.00  0.00    +0.000 HD
ENDBRANCH   6   7
BRANCH   1  15
ATOM     14  C   UNL     1      45.434   4.978   9.450  0.00  0.00    +0.000 C 
ATOM     15  C   UNL     1      45.281   5.916  10.644  0.00  0.00    +0.000 C 
ENDBRANCH   1  15
BRANCH   4  16
ATOM     16  N   UNL     1      47.429   3.109  15.046  0.00  0.00    +0.000 N 
ATOM     17  H   UNL     1      47.061   2.170  14.923  0.00  0.00    +0.000 HD
BRANCH  16  18
ATOM     18  C   UNL     1      47.504   3.572  16.417  0.00  0.00    +0.000 C 
BRANCH  18  19
ATOM     19  C   UNL     1      48.931   3.648  16.914  0.00  0.00    +0.000 A 
ATOM     20  C   UNL     1      49.486   4.915  17.178  0.00  0.00    +0.000 A 
ATOM     21  C   UNL     1      50.798   5.048  17.624  0.00  0.00    +0.000 A 
ATOM     22  C   UNL     1      51.589   3.918  17.823  0.00  0.00    +0.000 A 
ATOM     23  C   UNL     1      51.063   2.648  17.577  0.00  0.00    +0.000 A 
ATOM     24  C   UNL     1      49.740   2.515  17.123  0.00  0.00    +0.000 A 
BRANCH  23  25
ATOM     25  C   UNL     1      51.872   1.482  17.778  0.00  0.00    +0.000 C 
ATOM     26  N   UNL     1      52.536   0.546  17.940  0.00  0.00    +0.000 NA
ENDBRANCH  23  25
ENDBRANCH  18  19
ENDBRANCH  16  18
ENDBRANCH   4  16
TORSDOF 6
ENDMDL
MODEL 7
REMARK VINA RESULT:    -6.178      1.967      7.812
REMARK INTER + INTRA:          -8.875
REMARK INTER:                  -7.986
REMARK INTRA:                  -0.889
REMARK UNBOUND:                -0.530
REMARK  Name = 
REMARK  7 active torsions:
REMARK  status: ('A' for Active; 'I' for Inactive)
REMARK    1  A    between atoms: C_1  and  C_2
REMARK    2  A    between atoms: C_2  and  C_3
REMARK    3  A    between atoms: C_6  and  N_7
REMARK    4  A    between atoms: N_7  and  C_8
REMARK    5  A    between atoms: C_8  and  C_9
REMARK    6  A    between atoms: C_13  and  C_14
REMARK    7  A    between atoms: C_18  and  N_19
REMARK                            x       y       z     vdW  Elec       q    Type
REMARK                         _______ _______ _______ _____ _____    ______ ____
ROOT
ATOM      1  C   UNL     1      49.771   6.585  16.082  0.00  0.00    +0.000 A 
ATOM      2  C   UNL     1      50.099   7.331  14.938  0.00  0.00    +0.000 A 
ATOM      3  N   UNL     1      49.369   7.416  13.806  0.00  0.00    +0.000 NA
ATOM      4  C   UNL     1      48.236   6.713  13.769  0.00  0.00    +0.000 A 
ATOM      5  C   UNL     1      47.833   5.938  14.852  0.00  0.00    +0.000 A 
ATOM      6  C   UNL     1      48.575   5.844  16.050  0.00  0.00    +0.000 A 
ENDROOT
BRANCH   6   7
ATOM      7  N   UNL     1      48.077   5.040  17.062  0.00  0.00    +0.000 N 
ATOM      8  C   UNL     1      47.591   5.504  18.365  0.00  0.00    +0.000 C 
ATOM      9  C   UNL     1      48.465   4.884  19.484  0.00  0.00    +0.000 C 
ATOM     10  N   UNL     1      48.446   3.403  19.467  0.00  0.00    +0.000 NA
ATOM     11  C   UNL     1      48.863   2.936  18.124  0.00  0.00    +0.000 C 
ATOM     12  C   UNL     1      48.077   3.565  16.948  0.00  0.00    +0.000 C 
ATOM     13  H   UNL     1      47.486   3.101  19.621  0.00  0.00    +0.000 HD
ENDBRANCH   6   7
BRANCH   1  15
ATOM     14  C   UNL     1      51.663   5.324  17.200  0.00  0.00    +0.000 C 
ATOM     15  C   UNL     1      50.810   6.589  17.179  0.00  0.00    +0.000 C 
ENDBRANCH   1  15
BRANCH   4  16
ATOM     16  N   UNL     1      47.559   6.746  12.566  0.00  0.00    +0.000 N 
ATOM     17  H   UNL     1      48.191   7.112  11.859  0.00  0.00    +0.000 HD
BRANCH  16  18
ATOM     18  C   UNL     1      46.195   7.229  12.488  0.00  0.00    +0.000 C 
BRANCH  18  19
ATOM     19  C   UNL     1      45.245   6.165  11.983  0.00  0.00    +0.000 A 
ATOM     20  C   UNL     1      44.202   5.737  12.826  0.00  0.00    +0.000 A 
ATOM     21  C   UNL     1      43.305   4.753  12.421  0.00  0.00    +0.000 A 
ATOM     22  C   UNL     1      43.423   4.174  11.159  0.00  0.00    +0.000 A 
ATOM     23  C   UNL     1      44.443   4.584  10.298  0.00  0.00    +0.000 A 
ATOM     24  C   UNL     1      45.349   5.575  10.709  0.00  0.00    +0.000 A 
BRANCH  23  25
ATOM     25  C   UNL     1      44.570   3.992   8.999  0.00  0.00    +0.000 C 
ATOM     26  N   UNL     1      44.664   3.505   7.951  0.00  0.00    +0.000 NA
ENDBRANCH  23  25
ENDBRANCH  18  19
ENDBRANCH  16  18
ENDBRANCH   4  16
TORSDOF 6
ENDMDL
MODEL 8
REMARK VINA RESULT:    -6.085      2.079      2.752
REMARK INTER + INTRA:          -8.750
REMARK INTER:                  -7.930
REMARK INTRA:                  -0.820
REMARK UNBOUND:                -0.530
REMARK  Name = 
REMARK  7 active torsions:
REMARK  status: ('A' for Active; 'I' for Inactive)
REMARK    1  A    between atoms: C_1  and  C_2
REMARK    2  A    between atoms: C_2  and  C_3
REMARK    3  A    between atoms: C_6  and  N_7
REMARK    4  A    between atoms: N_7  and  C_8
REMARK    5  A    between atoms: C_8  and  C_9
REMARK    6  A    between atoms: C_13  and  C_14
REMARK    7  A    between atoms: C_18  and  N_19
REMARK                            x       y       z     vdW  Elec       q    Type
REMARK                         _______ _______ _______ _____ _____    ______ ____
ROOT
ATOM      1  C   UNL     1      45.204   7.588  11.797  0.00  0.00    +0.000 A 
ATOM      2  C   UNL     1      46.200   8.373  12.401  0.00  0.00    +0.000 A 
ATOM      3  N   UNL     1      47.247   7.916  13.120  0.00  0.00    +0.000 NA
ATOM      4  C   UNL     1      47.333   6.594  13.280  0.00  0.00    +0.000 A 
ATOM      5  C   UNL     1      46.388   5.737  12.725  0.00  0.00    +0.000 A 
ATOM      6  C   UNL     1      45.291   6.193  11.960  0.00  0.00    +0.000 A 
ENDROOT
BRANCH   6   7
ATOM      7  N   UNL     1      44.412   5.249  11.457  0.00  0.00    +0.000 N 
ATOM      8  C   UNL     1      43.277   4.664  12.177  0.00  0.00    +0.000 C 
ATOM      9  C   UNL     1      43.489   3.135  12.304  0.00  0.00    +0.000 C 
ATOM     10  N   UNL     1      43.614   2.466  10.988  0.00  0.00    +0.000 NA
ATOM     11  C   UNL     1      44.711   3.110  10.228  0.00  0.00    +0.000 C 
ATOM     12  C   UNL     1      44.603   4.650  10.117  0.00  0.00    +0.000 C 
ATOM     13  H   UNL     1      42.746   2.618  10.476  0.00  0.00    +0.000 HD
ENDBRANCH   6   7
BRANCH   1  15
ATOM     14  C   UNL     1      44.294   9.870  11.176  0.00  0.00    +0.000 C 
ATOM     15  C   UNL     1      44.090   8.358  11.127  0.00  0.00    +0.000 C 
ENDBRANCH   1  15
BRANCH   4  16
ATOM     16  N   UNL     1      48.361   6.163  14.095  0.00  0.00    +0.000 N 
ATOM     17  H   UNL     1      48.479   5.164  13.952  0.00  0.00    +0.000 HD
BRANCH  16  18
ATOM     18  C   UNL     1      48.462   6.609  15.470  0.00  0.00    +0.000 C 
BRANCH  18  19
ATOM     19  C   UNL     1      48.308   5.466  16.450  0.00  0.00    +0.000 A 
ATOM     20  C   UNL     1      47.784   4.245  15.985  0.00  0.00    +0.000 A 
ATOM     21  C   UNL     1      47.608   3.163  16.843  0.00  0.00    +0.000 A 
ATOM     22  C   UNL     1      47.956   3.272  18.188  0.00  0.00    +0.000 A 
ATOM     23  C   UNL     1      48.486   4.468  18.676  0.00  0.00    +0.000 A 
ATOM     24  C   UNL     1      48.660   5.560  17.810  0.00  0.00    +0.000 A 
BRANCH  23  25
ATOM     25  C   UNL     1      48.845   4.586  20.058  0.00  0.00    +0.000 C 
ATOM     26  N   UNL     1      49.124   4.676  21.180  0.00  0.00    +0.000 NA
ENDBRANCH  23  25
ENDBRANCH  18  19
ENDBRANCH  16  18
ENDBRANCH   4  16
TORSDOF 6
ENDMDL
MODEL 9
REMARK VINA RESULT:    -5.876      1.860      8.342
REMARK INTER + INTRA:          -8.468
REMARK INTER:                  -7.732
REMARK INTRA:                  -0.736
REMARK UNBOUND:                -0.530
REMARK  Name = 
REMARK  7 active torsions:
REMARK  status: ('A' for Active; 'I' for Inactive)
REMARK    1  A    between atoms: C_1  and  C_2
REMARK    2  A    between atoms: C_2  and  C_3
REMARK    3  A    between atoms: C_6  and  N_7
REMARK    4  A    between atoms: N_7  and  C_8
REMARK    5  A    between atoms: C_8  and  C_9
REMARK    6  A    between atoms: C_13  and  C_14
REMARK    7  A    between atoms: C_18  and  N_19
REMARK                            x       y       z     vdW  Elec       q    Type
REMARK                         _______ _______ _______ _____ _____    ______ ____
ROOT
ATOM      1  C   UNL     1      48.023   4.771  16.343  0.00  0.00    +0.000 A 
ATOM      2  C   UNL     1      47.303   4.289  15.236  0.00  0.00    +0.000 A 
ATOM      3  N   UNL     1      47.126   4.930  14.061  0.00  0.00    +0.000 NA
ATOM      4  C   UNL     1      47.679   6.139  13.949  0.00  0.00    +0.000 A 
ATOM      5  C   UNL     1      48.403   6.701  14.994  0.00  0.00    +0.000 A 
ATOM      6  C   UNL     1      48.610   6.044  16.228  0.00  0.00    +0.000 A 
ENDROOT
BRANCH   6   7
ATOM      7  N   UNL     1      49.347   6.702  17.199  0.00  0.00    +0.000 N 
ATOM      8  C   UNL     1      50.801   6.630  17.367  0.00  0.00    +0.000 C 
ATOM      9  C   UNL     1      51.123   6.031  18.759  0.00  0.00    +0.000 C 
ATOM     10  N   UNL     1      50.553   6.830  19.868  0.00  0.00    +0.000 NA
ATOM     11  C   UNL     1      49.094   6.969  19.656  0.00  0.00    +0.000 C 
ATOM     12  C   UNL     1      48.692   7.500  18.258  0.00  0.00    +0.000 C 
ATOM     13  H   UNL     1      50.967   7.760  19.829  0.00  0.00    +0.000 HD
ENDBRANCH   6   7
BRANCH   1  15
ATOM     14  C   UNL     1      49.043   2.790  17.549  0.00  0.00    +0.000 C 
ATOM     15  C   UNL     1      47.987   3.892  17.571  0.00  0.00    +0.000 C 
ENDBRANCH   1  15
BRANCH   4  16
ATOM     16  N   UNL     1      47.403   6.806  12.771  0.00  0.00    +0.000 N 
ATOM     17  H   UNL     1      48.133   7.498  12.624  0.00  0.00    +0.000 HD
BRANCH  16  18
ATOM     18  C   UNL     1      46.059   7.245  12.457  0.00  0.00    +0.000 C 
BRANCH  18  19
ATOM     19  C   UNL     1      45.333   6.258  11.568  0.00  0.00    +0.000 A 
ATOM     20  C   UNL     1      44.061   5.803  11.964  0.00  0.00    +0.000 A 
ATOM     21  C   UNL     1      43.352   4.885  11.193  0.00  0.00    +0.000 A 
ATOM     22  C   UNL     1      43.893   4.403  10.004  0.00  0.00    +0.000 A 
ATOM     23  C   UNL     1      45.149   4.843   9.581  0.00  0.00    +0.000 A 
ATOM     24  C   UNL     1      45.866   5.766  10.361  0.00  0.00    +0.000 A 
BRANCH  23  25
ATOM     25  C   UNL     1      45.712   4.350   8.359  0.00  0.00    +0.000 C 
ATOM     26  N   UNL     1      46.166   3.962   7.365  0.00  0.00    +0.000 NA
ENDBRANCH  23  25
ENDBRANCH  18  19
ENDBRANCH  16  18
ENDBRANCH   4  16
TORSDOF 6
ENDMDL
