MODEL 1
REMARK VINA RESULT:    -6.793      0.000      0.000
REMARK INTER + INTRA:         -10.752
REMARK INTER:                  -9.176
REMARK INTRA:                  -1.576
REMARK UNBOUND:                -1.576
REMARK  Name = 
REMARK  9 active torsions:
REMARK  status: ('A' for Active; 'I' for Inactive)
REMARK    1  A    between atoms: C_1  and  C_2
REMARK    2  A    between atoms: C_2  and  C_3
REMARK    3  A    between atoms: C_2  and  C_4
REMARK    4  A    between atoms: C_2  and  C_5
REMARK    5  A    between atoms: C_7  and  C_8
REMARK    6  A    between atoms: C_12  and  N_13
REMARK    7  A    between atoms: N_13  and  C_14
REMARK    8  A    between atoms: C_14  and  C_15
REMARK    9  A    between atoms: C_19  and  C_20
REMARK                            x       y       z     vdW  Elec       q    Type
REMARK                         _______ _______ _______ _____ _____    ______ ____
ROOT
ATOM      1  N   UNL     1      47.267   3.392  14.874  0.00  0.00    +0.000 N 
ATOM      2  H   UNL     1      47.051   2.474  14.500  0.00  0.00    +0.000 HD
ENDROOT
BRANCH   1   7
ATOM      3  C   UNL     1      45.015   4.849  12.485  0.00  0.00    +0.000 A 
ATOM      4  C   UNL     1      45.476   6.152  12.354  0.00  0.00    +0.000 A 
ATOM      5  C   UNL     1      46.580   6.548  13.099  0.00  0.00    +0.000 A 
ATOM      6  C   UNL     1      47.185   5.654  13.971  0.00  0.00    +0.000 A 
ATOM      7  C   UNL     1      46.682   4.366  14.085  0.00  0.00    +0.000 A 
ATOM      8  N   UNL     1      45.607   3.978  13.352  0.00  0.00    +0.000 NA
BRANCH   5   9
ATOM      9  C   UNL     1      47.077   7.940  12.967  0.00  0.00    +0.000 C 
ATOM     10  N   UNL     1      46.730   8.856  13.924  0.00  0.00    +0.000 N 
ATOM     11  O   UNL     1      47.813   8.261  12.037  0.00  0.00    +0.000 OA
ATOM     12  H   UNL     1      46.282   8.617  14.797  0.00  0.00    +0.000 HD
ATOM     13  H   UNL     1      47.171   9.761  13.855  0.00  0.00    +0.000 HD
ENDBRANCH   5   9
BRANCH   3  15
ATOM     14  C   UNL     1      42.597   5.243  11.813  0.00  0.00    +0.000 C 
ATOM     15  C   UNL     1      43.836   4.340  11.631  0.00  0.00    +0.000 C 
ATOM     16  C   UNL     1      43.469   2.897  12.037  0.00  0.00    +0.000 C 
ATOM     17  C   UNL     1      44.181   4.343  10.126  0.00  0.00    +0.000 C 
ENDBRANCH   3  15
ENDBRANCH   1   7
BRANCH   1  18
ATOM     18  C   UNL     1      47.217   3.526  16.316  0.00  0.00    +0.000 C 
BRANCH  18  19
ATOM     19  C   UNL     1      48.558   3.852  16.936  0.00  0.00    +0.000 A 
ATOM     20  C   UNL     1      49.492   2.832  17.178  0.00  0.00    +0.000 A 
ATOM     21  C   UNL     1      50.785   3.141  17.586  0.00  0.00    +0.000 A 
ATOM     22  C   UNL     1      51.184   4.480  17.668  0.00  0.00    +0.000 A 
ATOM     23  C   UNL     1      50.288   5.518  17.342  0.00  0.00    +0.000 A 
ATOM     24  C   UNL     1      48.950   5.190  17.096  0.00  0.00    +0.000 A 
BRANCH  23  25
ATOM     25  C   UNL     1      50.814   6.929  17.100  0.00  0.00    +0.000 C 
ATOM     26  C   UNL     1      49.923   8.043  17.663  0.00  0.00    +0.000 C 
ATOM     27  C   UNL     1      48.998   8.695  16.640  0.00  0.00    +0.000 C 
ATOM     28  N   UNL     1      49.742   9.148  15.468  0.00  0.00    +0.000 NA
ATOM     29  C   UNL     1      50.295   7.996  14.761  0.00  0.00    +0.000 C 
ATOM     30  C   UNL     1      51.254   7.180  15.631  0.00  0.00    +0.000 C 
ATOM     31  H   UNL     1      50.501   9.764  15.762  0.00  0.00    +0.000 HD
ENDBRANCH  23  25
ENDBRANCH  18  19
ENDBRANCH   1  18
TORSDOF 6
ENDMDL
MODEL 2
REMARK VINA RESULT:    -6.779      3.877      7.647
REMARK INTER + INTRA:         -10.732
REMARK INTER:                  -9.560
REMARK INTRA:                  -1.172
REMARK UNBOUND:                -1.576
REMARK  Name = 
REMARK  9 active torsions:
REMARK  status: ('A' for Active; 'I' for Inactive)
REMARK    1  A    between atoms: C_1  and  C_2
REMARK    2  A    between atoms: C_2  and  C_3
REMARK    3  A    between atoms: C_2  and  C_4
REMARK    4  A    between atoms: C_2  and  C_5
REMARK    5  A    between atoms: C_7  and  C_8
REMARK    6  A    between atoms: C_12  and  N_13
REMARK    7  A    between atoms: N_13  and  C_14
REMARK    8  A    between atoms: C_14  and  C_15
REMARK    9  A    between atoms: C_19  and  C_20
REMARK                            x       y       z     vdW  Elec       q    Type
REMARK                         _______ _______ _______ _____ _____    ______ ____
ROOT
ATOM      1  N   UNL     1      47.290   7.837  11.978  0.00  0.00    +0.000 N 
ATOM      2  H   UNL     1      48.248   7.722  11.667  0.00  0.00    +0.000 HD
ENDROOT
BRANCH   1   7
ATOM      3  C   UNL     1      45.126   4.973  12.130  0.00  0.00    +0.000 A 
ATOM      4  C   UNL     1      45.594   4.269  13.232  0.00  0.00    +0.000 A 
ATOM      5  C   UNL     1      46.674   4.779  13.941  0.00  0.00    +0.000 A 
ATOM      6  C   UNL     1      47.280   5.958  13.530  0.00  0.00    +0.000 A 
ATOM      7  C   UNL     1      46.793   6.621  12.413  0.00  0.00    +0.000 A 
ATOM      8  N   UNL     1      45.733   6.126  11.724  0.00  0.00    +0.000 NA
BRANCH   5   9
ATOM      9  C   UNL     1      47.181   4.029  15.118  0.00  0.00    +0.000 C 
ATOM     10  N   UNL     1      47.020   4.574  16.364  0.00  0.00    +0.000 N 
ATOM     11  O   UNL     1      47.704   2.925  14.984  0.00  0.00    +0.000 OA
ATOM     12  H   UNL     1      46.446   5.382  16.556  0.00  0.00    +0.000 HD
ATOM     13  H   UNL     1      47.283   3.988  17.143  0.00  0.00    +0.000 HD
ENDBRANCH   5   9
BRANCH   3  15
ATOM     14  C   UNL     1      44.200   4.378   9.840  0.00  0.00    +0.000 C 
ATOM     15  C   UNL     1      43.889   4.487  11.349  0.00  0.00    +0.000 C 
ATOM     16  C   UNL     1      42.714   5.466  11.549  0.00  0.00    +0.000 C 
ATOM     17  C   UNL     1      43.435   3.088  11.819  0.00  0.00    +0.000 C 
ENDBRANCH   3  15
ENDBRANCH   1   7
BRANCH   1  18
ATOM     18  C   UNL     1      47.002   9.033  12.745  0.00  0.00    +0.000 C 
BRANCH  18  19
ATOM     19  C   UNL     1      46.327  10.117  11.935  0.00  0.00    +0.000 A 
ATOM     20  C   UNL     1      47.074  11.198  11.439  0.00  0.00    +0.000 A 
ATOM     21  C   UNL     1      46.500  12.105  10.554  0.00  0.00    +0.000 A 
ATOM     22  C   UNL     1      45.200  11.888  10.085  0.00  0.00    +0.000 A 
ATOM     23  C   UNL     1      44.465  10.759  10.502  0.00  0.00    +0.000 A 
ATOM     24  C   UNL     1      44.998   9.955  11.515  0.00  0.00    +0.000 A 
BRANCH  23  25
ATOM     25  C   UNL     1      43.209  10.347   9.741  0.00  0.00    +0.000 C 
ATOM     26  C   UNL     1      42.618  11.446   8.851  0.00  0.00    +0.000 C 
ATOM     27  C   UNL     1      41.450  12.207   9.471  0.00  0.00    +0.000 C 
ATOM     28  N   UNL     1      40.416  11.292   9.947  0.00  0.00    +0.000 NA
ATOM     29  C   UNL     1      40.940  10.488  11.048  0.00  0.00    +0.000 C 
ATOM     30  C   UNL     1      42.148   9.645  10.634  0.00  0.00    +0.000 C 
ATOM     31  H   UNL     1      40.126  10.678   9.184  0.00  0.00    +0.000 HD
ENDBRANCH  23  25
ENDBRANCH  18  19
ENDBRANCH   1  18
TORSDOF 6
ENDMDL
MODEL 3
REMARK VINA RESULT:    -6.755      2.950      7.930
REMARK INTER + INTRA:         -10.700
REMARK INTER:                  -9.729
REMARK INTRA:                  -0.970
REMARK UNBOUND:                -1.576
REMARK  Name = 
REMARK  9 active torsions:
REMARK  status: ('A' for Active; 'I' for Inactive)
REMARK    1  A    between atoms: C_1  and  C_2
REMARK    2  A    between atoms: C_2  and  C_3
REMARK    3  A    between atoms: C_2  and  C_4
REMARK    4  A    between atoms: C_2  and  C_5
REMARK    5  A    between atoms: C_7  and  C_8
REMARK    6  A    between atoms: C_12  and  N_13
REMARK    7  A    between atoms: N_13  and  C_14
REMARK    8  A    between atoms: C_14  and  C_15
REMARK    9  A    between atoms: C_19  and  C_20
REMARK                            x       y       z     vdW  Elec       q    Type
REMARK                         _______ _______ _______ _____ _____    ______ ____
ROOT
ATOM      1  N   UNL     1      46.674   4.089  15.902  0.00  0.00    +0.000 N 
ATOM      2  H   UNL     1      45.830   3.702  16.307  0.00  0.00    +0.000 HD
ENDROOT
BRANCH   1   7
ATOM      3  C   UNL     1      48.611   5.108  18.751  0.00  0.00    +0.000 A 
ATOM      4  C   UNL     1      49.710   4.261  18.718  0.00  0.00    +0.000 A 
ATOM      5  C   UNL     1      49.797   3.317  17.703  0.00  0.00    +0.000 A 
ATOM      6  C   UNL     1      48.782   3.217  16.761  0.00  0.00    +0.000 A 
ATOM      7  C   UNL     1      47.691   4.071  16.840  0.00  0.00    +0.000 A 
ATOM      8  N   UNL     1      47.612   4.998  17.829  0.00  0.00    +0.000 NA
BRANCH   5   9
ATOM      9  C   UNL     1      50.968   2.406  17.663  0.00  0.00    +0.000 C 
ATOM     10  N   UNL     1      52.074   2.725  18.404  0.00  0.00    +0.000 N 
ATOM     11  O   UNL     1      50.936   1.367  17.008  0.00  0.00    +0.000 OA
ATOM     12  H   UNL     1      52.098   3.460  19.094  0.00  0.00    +0.000 HD
ATOM     13  H   UNL     1      52.806   2.030  18.432  0.00  0.00    +0.000 HD
ENDBRANCH   5   9
BRANCH   3  15
ATOM     14  C   UNL     1      47.737   7.439  19.260  0.00  0.00    +0.000 C 
ATOM     15  C   UNL     1      48.500   6.217  19.817  0.00  0.00    +0.000 C 
ATOM     16  C   UNL     1      49.906   6.667  20.266  0.00  0.00    +0.000 C 
ATOM     17  C   UNL     1      47.729   5.732  21.064  0.00  0.00    +0.000 C 
ENDBRANCH   3  15
ENDBRANCH   1   7
BRANCH   1  18
ATOM     18  C   UNL     1      46.966   3.705  14.536  0.00  0.00    +0.000 C 
BRANCH  18  19
ATOM     19  C   UNL     1      46.736   4.817  13.536  0.00  0.00    +0.000 A 
ATOM     20  C   UNL     1      47.696   5.827  13.369  0.00  0.00    +0.000 A 
ATOM     21  C   UNL     1      47.575   6.753  12.338  0.00  0.00    +0.000 A 
ATOM     22  C   UNL     1      46.538   6.621  11.407  0.00  0.00    +0.000 A 
ATOM     23  C   UNL     1      45.616   5.560  11.506  0.00  0.00    +0.000 A 
ATOM     24  C   UNL     1      45.659   4.743  12.641  0.00  0.00    +0.000 A 
BRANCH  23  25
ATOM     25  C   UNL     1      44.716   5.223  10.321  0.00  0.00    +0.000 C 
ATOM     26  C   UNL     1      43.659   4.152  10.612  0.00  0.00    +0.000 C 
ATOM     27  C   UNL     1      44.034   2.746  10.153  0.00  0.00    +0.000 C 
ATOM     28  N   UNL     1      44.429   2.737   8.748  0.00  0.00    +0.000 NA
ATOM     29  C   UNL     1      45.659   3.504   8.578  0.00  0.00    +0.000 C 
ATOM     30  C   UNL     1      45.501   4.966   9.004  0.00  0.00    +0.000 C 
ATOM     31  H   UNL     1      43.687   3.151   8.182  0.00  0.00    +0.000 HD
ENDBRANCH  23  25
ENDBRANCH  18  19
ENDBRANCH   1  18
TORSDOF 6
ENDMDL
MODEL 4
REMARK VINA RESULT:    -6.685      3.459      6.837
REMARK INTER + INTRA:         -10.605
REMARK INTER:                  -9.459
REMARK INTRA:                  -1.146
REMARK UNBOUND:                -1.576
REMARK  Name = 
REMARK  9 active torsions:
REMARK  status: ('A' for Active; 'I' for Inactive)
REMARK    1  A    between atoms: C_1  and  C_2
REMARK    2  A    between atoms: C_2  and  C_3
REMARK    3  A    between atoms: C_2  and  C_4
REMARK    4  A    between atoms: C_2  and  C_5
REMARK    5  A    between atoms: C_7  and  C_8
REMARK    6  A    between atoms: C_12  and  N_13
REMARK    7  A    between atoms: N_13  and  C_14
REMARK    8  A    between atoms: C_14  and  C_15
REMARK    9  A    between atoms: C_19  and  C_20
REMARK                            x       y       z     vdW  Elec       q    Type
REMARK                         _______ _______ _______ _____ _____    ______ ____
ROOT
ATOM      1  N   UNL     1      47.620   7.323  11.392  0.00  0.00    +0.000 N 
ATOM      2  H   UNL     1      48.068   6.995  10.543  0.00  0.00    +0.000 HD
ENDROOT
BRANCH   1   7
ATOM      3  C   UNL     1      45.162   4.796  12.088  0.00  0.00    +0.000 A 
ATOM      4  C   UNL     1      45.604   4.231  13.276  0.00  0.00    +0.000 A 
ATOM      5  C   UNL     1      46.768   4.719  13.857  0.00  0.00    +0.000 A 
ATOM      6  C   UNL     1      47.479   5.735  13.235  0.00  0.00    +0.000 A 
ATOM      7  C   UNL     1      47.013   6.261  12.039  0.00  0.00    +0.000 A 
ATOM      8  N   UNL     1      45.872   5.788  11.476  0.00  0.00    +0.000 NA
BRANCH   5   9
ATOM      9  C   UNL     1      47.247   4.117  15.126  0.00  0.00    +0.000 C 
ATOM     10  N   UNL     1      47.146   4.847  16.280  0.00  0.00    +0.000 N 
ATOM     11  O   UNL     1      47.693   2.972  15.151  0.00  0.00    +0.000 OA
ATOM     12  H   UNL     1      46.632   5.712  16.357  0.00  0.00    +0.000 HD
ATOM     13  H   UNL     1      47.385   4.365  17.134  0.00  0.00    +0.000 HD
ENDBRANCH   5   9
BRANCH   3  15
ATOM     14  C   UNL     1      43.443   2.932  11.937  0.00  0.00    +0.000 C 
ATOM     15  C   UNL     1      43.841   4.338  11.437  0.00  0.00    +0.000 C 
ATOM     16  C   UNL     1      43.988   4.301   9.902  0.00  0.00    +0.000 C 
ATOM     17  C   UNL     1      42.676   5.290  11.787  0.00  0.00    +0.000 C 
ENDBRANCH   3  15
ENDBRANCH   1   7
BRANCH   1  18
ATOM     18  C   UNL     1      48.355   8.299  12.171  0.00  0.00    +0.000 C 
BRANCH  18  19
ATOM     19  C   UNL     1      48.023   9.729  11.811  0.00  0.00    +0.000 A 
ATOM     20  C   UNL     1      48.982  10.544  11.189  0.00  0.00    +0.000 A 
ATOM     21  C   UNL     1      48.634  11.799  10.701  0.00  0.00    +0.000 A 
ATOM     22  C   UNL     1      47.299  12.215  10.749  0.00  0.00    +0.000 A 
ATOM     23  C   UNL     1      46.304  11.374  11.288  0.00  0.00    +0.000 A 
ATOM     24  C   UNL     1      46.702  10.191  11.921  0.00  0.00    +0.000 A 
BRANCH  23  25
ATOM     25  C   UNL     1      44.832  11.677  11.029  0.00  0.00    +0.000 C 
ATOM     26  C   UNL     1      43.859  10.658  11.636  0.00  0.00    +0.000 C 
ATOM     27  C   UNL     1      43.352   9.603  10.658  0.00  0.00    +0.000 C 
ATOM     28  N   UNL     1      42.798  10.219   9.456  0.00  0.00    +0.000 NA
ATOM     29  C   UNL     1      43.858  10.902   8.720  0.00  0.00    +0.000 C 
ATOM     30  C   UNL     1      44.522  12.009   9.543  0.00  0.00    +0.000 C 
ATOM     31  H   UNL     1      42.076  10.892   9.718  0.00  0.00    +0.000 HD
ENDBRANCH  23  25
ENDBRANCH  18  19
ENDBRANCH   1  18
TORSDOF 6
ENDMDL
MODEL 5
REMARK VINA RESULT:    -6.650      1.088      1.626
REMARK INTER + INTRA:         -10.558
REMARK INTER:                  -9.437
REMARK INTRA:                  -1.121
REMARK UNBOUND:                -1.576
REMARK  Name = 
REMARK  9 active torsions:
REMARK  status: ('A' for Active; 'I' for Inactive)
REMARK    1  A    between atoms: C_1  and  C_2
REMARK    2  A    between atoms: C_2  and  C_3
REMARK    3  A    between atoms: C_2  and  C_4
REMARK    4  A    between atoms: C_2  and  C_5
REMARK    5  A    between atoms: C_7  and  C_8
REMARK    6  A    between atoms: C_12  and  N_13
REMARK    7  A    between atoms: N_13  and  C_14
REMARK    8  A    between atoms: C_14  and  C_15
REMARK    9  A    between atoms: C_19  and  C_20
REMARK                            x       y       z     vdW  Elec       q    Type
REMARK                         _______ _______ _______ _____ _____    ______ ____
ROOT
ATOM      1  N   UNL     1      47.325   3.350  14.916  0.00  0.00    +0.000 N 
ATOM      2  H   UNL     1      47.041   2.428  14.606  0.00  0.00    +0.000 HD
ENDROOT
BRANCH   1   7
ATOM      3  C   UNL     1      45.115   4.760  12.460  0.00  0.00    +0.000 A 
ATOM      4  C   UNL     1      45.547   6.075  12.349  0.00  0.00    +0.000 A 
ATOM      5  C   UNL     1      46.616   6.496  13.131  0.00  0.00    +0.000 A 
ATOM      6  C   UNL     1      47.215   5.614  14.019  0.00  0.00    +0.000 A 
ATOM      7  C   UNL     1      46.741   4.313  14.112  0.00  0.00    +0.000 A 
ATOM      8  N   UNL     1      45.701   3.901  13.343  0.00  0.00    +0.000 NA
BRANCH   5   9
ATOM      9  C   UNL     1      47.080   7.901  13.020  0.00  0.00    +0.000 C 
ATOM     10  N   UNL     1      46.624   8.818  13.928  0.00  0.00    +0.000 N 
ATOM     11  O   UNL     1      47.886   8.232  12.153  0.00  0.00    +0.000 OA
ATOM     12  H   UNL     1      46.109   8.578  14.762  0.00  0.00    +0.000 HD
ATOM     13  H   UNL     1      47.042   9.736  13.883  0.00  0.00    +0.000 HD
ENDBRANCH   5   9
BRANCH   3  15
ATOM     14  C   UNL     1      43.511   2.834  12.049  0.00  0.00    +0.000 C 
ATOM     15  C   UNL     1      43.978   4.225  11.567  0.00  0.00    +0.000 C 
ATOM     16  C   UNL     1      44.457   4.113  10.104  0.00  0.00    +0.000 C 
ATOM     17  C   UNL     1      42.745   5.153  11.600  0.00  0.00    +0.000 C 
ENDBRANCH   3  15
ENDBRANCH   1   7
BRANCH   1  18
ATOM     18  C   UNL     1      47.373   3.561  16.349  0.00  0.00    +0.000 C 
BRANCH  18  19
ATOM     19  C   UNL     1      48.726   3.263  16.956  0.00  0.00    +0.000 A 
ATOM     20  C   UNL     1      49.368   2.044  16.688  0.00  0.00    +0.000 A 
ATOM     21  C   UNL     1      50.680   1.831  17.099  0.00  0.00    +0.000 A 
ATOM     22  C   UNL     1      51.394   2.872  17.702  0.00  0.00    +0.000 A 
ATOM     23  C   UNL     1      50.796   4.133  17.898  0.00  0.00    +0.000 A 
ATOM     24  C   UNL     1      49.430   4.272  17.630  0.00  0.00    +0.000 A 
BRANCH  23  25
ATOM     25  C   UNL     1      51.665   5.343  18.230  0.00  0.00    +0.000 C 
ATOM     26  C   UNL     1      50.900   6.669  18.316  0.00  0.00    +0.000 C 
ATOM     27  C   UNL     1      50.969   7.526  17.057  0.00  0.00    +0.000 C 
ATOM     28  N   UNL     1      52.351   7.736  16.635  0.00  0.00    +0.000 NA
ATOM     29  C   UNL     1      52.939   6.462  16.229  0.00  0.00    +0.000 C 
ATOM     30  C   UNL     1      52.952   5.435  17.363  0.00  0.00    +0.000 C 
ATOM     31  H   UNL     1      52.889   8.128  17.410  0.00  0.00    +0.000 HD
ENDBRANCH  23  25
ENDBRANCH  18  19
ENDBRANCH   1  18
TORSDOF 6
ENDMDL
MODEL 6
REMARK VINA RESULT:    -6.629      2.332      8.141
REMARK INTER + INTRA:         -10.530
REMARK INTER:                  -9.519
REMARK INTRA:                  -1.011
REMARK UNBOUND:                -1.576
REMARK  Name = 
REMARK  9 active torsions:
REMARK  status: ('A' for Active; 'I' for Inactive)
REMARK    1  A    between atoms: C_1  and  C_2
REMARK    2  A    between atoms: C_2  and  C_3
REMARK    3  A    between atoms: C_2  and  C_4
REMARK    4  A    between atoms: C_2  and  C_5
REMARK    5  A    between atoms: C_7  and  C_8
REMARK    6  A    between atoms: C_12  and  N_13
REMARK    7  A    between atoms: N_13  and  C_14
REMARK    8  A    between atoms: C_14  and  C_15
REMARK    9  A    between atoms: C_19  and  C_20
REMARK                            x       y       z     vdW  Elec       q    Type
REMARK                         _______ _______ _______ _____ _____    ______ ____
ROOT
ATOM      1  N   UNL     1      48.428   6.995  14.452  0.00  0.00    +0.000 N 
ATOM      2  H   UNL     1      47.848   7.763  14.770  0.00  0.00    +0.000 HD
ENDROOT
BRANCH   1   7
ATOM      3  C   UNL     1      50.634   5.716  16.983  0.00  0.00    +0.000 A 
ATOM      4  C   UNL     1      49.877   4.734  17.608  0.00  0.00    +0.000 A 
ATOM      5  C   UNL     1      48.583   4.500  17.161  0.00  0.00    +0.000 A 
ATOM      6  C   UNL     1      48.061   5.260  16.123  0.00  0.00    +0.000 A 
ATOM      7  C   UNL     1      48.843   6.244  15.537  0.00  0.00    +0.000 A 
ATOM      8  N   UNL     1      50.110   6.466  15.970  0.00  0.00    +0.000 NA
BRANCH   5   9
ATOM      9  C   UNL     1      47.769   3.454  17.827  0.00  0.00    +0.000 C 
ATOM     10  N   UNL     1      48.223   2.914  19.000  0.00  0.00    +0.000 N 
ATOM     11  O   UNL     1      46.690   3.101  17.356  0.00  0.00    +0.000 OA
ATOM     12  H   UNL     1      49.001   3.283  19.526  0.00  0.00    +0.000 HD
ATOM     13  H   UNL     1      47.592   2.284  19.474  0.00  0.00    +0.000 HD
ENDBRANCH   5   9
BRANCH   3  15
ATOM     14  C   UNL     1      52.177   7.038  18.507  0.00  0.00    +0.000 C 
ATOM     15  C   UNL     1      52.097   5.969  17.396  0.00  0.00    +0.000 C 
ATOM     16  C   UNL     1      52.919   6.447  16.181  0.00  0.00    +0.000 C 
ATOM     17  C   UNL     1      52.760   4.689  17.952  0.00  0.00    +0.000 C 
ENDBRANCH   3  15
ENDBRANCH   1   7
BRANCH   1  18
ATOM     18  C   UNL     1      47.991   6.316  13.248  0.00  0.00    +0.000 C 
BRANCH  18  19
ATOM     19  C   UNL     1      46.663   6.815  12.725  0.00  0.00    +0.000 A 
ATOM     20  C   UNL     1      46.493   8.171  12.404  0.00  0.00    +0.000 A 
ATOM     21  C   UNL     1      45.337   8.607  11.764  0.00  0.00    +0.000 A 
ATOM     22  C   UNL     1      44.378   7.673  11.357  0.00  0.00    +0.000 A 
ATOM     23  C   UNL     1      44.571   6.296  11.590  0.00  0.00    +0.000 A 
ATOM     24  C   UNL     1      45.657   5.900  12.378  0.00  0.00    +0.000 A 
BRANCH  23  25
ATOM     25  C   UNL     1      43.712   5.273  10.854  0.00  0.00    +0.000 C 
ATOM     26  C   UNL     1      42.871   4.376  11.770  0.00  0.00    +0.000 C 
ATOM     27  C   UNL     1      43.477   3.003  12.046  0.00  0.00    +0.000 C 
ATOM     28  N   UNL     1      43.826   2.320  10.803  0.00  0.00    +0.000 NA
ATOM     29  C   UNL     1      44.893   3.048  10.124  0.00  0.00    +0.000 C 
ATOM     30  C   UNL     1      44.490   4.481   9.767  0.00  0.00    +0.000 C 
ATOM     31  H   UNL     1      43.005   2.274  10.197  0.00  0.00    +0.000 HD
ENDBRANCH  23  25
ENDBRANCH  18  19
ENDBRANCH   1  18
TORSDOF 6
ENDMDL
MODEL 7
REMARK VINA RESULT:    -6.613      2.810      7.856
REMARK INTER + INTRA:         -10.509
REMARK INTER:                  -9.468
REMARK INTRA:                  -1.041
REMARK UNBOUND:                -1.576
REMARK  Name = 
REMARK  9 active torsions:
REMARK  status: ('A' for Active; 'I' for Inactive)
REMARK    1  A    between atoms: C_1  and  C_2
REMARK    2  A    between atoms: C_2  and  C_3
REMARK    3  A    between atoms: C_2  and  C_4
REMARK    4  A    between atoms: C_2  and  C_5
REMARK    5  A    between atoms: C_7  and  C_8
REMARK    6  A    between atoms: C_12  and  N_13
REMARK    7  A    between atoms: N_13  and  C_14
REMARK    8  A    between atoms: C_14  and  C_15
REMARK    9  A    between atoms: C_19  and  C_20
REMARK                            x       y       z     vdW  Elec       q    Type
REMARK                         _______ _______ _______ _____ _____    ______ ____
ROOT
ATOM      1  N   UNL     1      48.551   7.068  15.985  0.00  0.00    +0.000 N 
ATOM      2  H   UNL     1      47.600   7.409  16.065  0.00  0.00    +0.000 HD
ENDROOT
BRANCH   1   7
ATOM      3  C   UNL     1      48.867   5.411  19.157  0.00  0.00    +0.000 A 
ATOM      4  C   UNL     1      49.252   4.122  18.814  0.00  0.00    +0.000 A 
ATOM      5  C   UNL     1      49.406   3.805  17.470  0.00  0.00    +0.000 A 
ATOM      6  C   UNL     1      49.153   4.763  16.499  0.00  0.00    +0.000 A 
ATOM      7  C   UNL     1      48.753   6.035  16.883  0.00  0.00    +0.000 A 
ATOM      8  N   UNL     1      48.609   6.345  18.196  0.00  0.00    +0.000 NA
BRANCH   5   9
ATOM      9  C   UNL     1      49.814   2.428  17.097  0.00  0.00    +0.000 C 
ATOM     10  N   UNL     1      50.797   1.813  17.824  0.00  0.00    +0.000 N 
ATOM     11  O   UNL     1      49.258   1.834  16.175  0.00  0.00    +0.000 OA
ATOM     12  H   UNL     1      51.164   2.172  18.693  0.00  0.00    +0.000 HD
ATOM     13  H   UNL     1      50.972   0.843  17.606  0.00  0.00    +0.000 HD
ENDBRANCH   5   9
BRANCH   3  15
ATOM     14  C   UNL     1      47.281   6.156  20.996  0.00  0.00    +0.000 C 
ATOM     15  C   UNL     1      48.747   5.833  20.635  0.00  0.00    +0.000 C 
ATOM     16  C   UNL     1      49.616   7.079  20.906  0.00  0.00    +0.000 C 
ATOM     17  C   UNL     1      49.210   4.708  21.586  0.00  0.00    +0.000 C 
ENDBRANCH   3  15
ENDBRANCH   1   7
BRANCH   1  18
ATOM     18  C   UNL     1      49.081   6.951  14.641  0.00  0.00    +0.000 C 
BRANCH  18  19
ATOM     19  C   UNL     1      48.009   6.817  13.583  0.00  0.00    +0.000 A 
ATOM     20  C   UNL     1      48.266   7.216  12.262  0.00  0.00    +0.000 A 
ATOM     21  C   UNL     1      47.352   6.940  11.250  0.00  0.00    +0.000 A 
ATOM     22  C   UNL     1      46.212   6.181  11.535  0.00  0.00    +0.000 A 
ATOM     23  C   UNL     1      45.980   5.694  12.837  0.00  0.00    +0.000 A 
ATOM     24  C   UNL     1      46.824   6.122  13.868  0.00  0.00    +0.000 A 
BRANCH  23  25
ATOM     25  C   UNL     1      44.943   4.599  13.066  0.00  0.00    +0.000 C 
ATOM     26  C   UNL     1      45.163   3.333  12.230  0.00  0.00    +0.000 C 
ATOM     27  C   UNL     1      44.316   3.250  10.964  0.00  0.00    +0.000 C 
ATOM     28  N   UNL     1      42.901   3.453  11.261  0.00  0.00    +0.000 NA
ATOM     29  C   UNL     1      42.690   4.816  11.740  0.00  0.00    +0.000 C 
ATOM     30  C   UNL     1      43.478   5.117  13.017  0.00  0.00    +0.000 C 
ATOM     31  H   UNL     1      42.604   2.790  11.979  0.00  0.00    +0.000 HD
ENDBRANCH  23  25
ENDBRANCH  18  19
ENDBRANCH   1  18
TORSDOF 6
ENDMDL
MODEL 8
REMARK VINA RESULT:    -6.431      2.404      7.679
REMARK INTER + INTRA:         -10.263
REMARK INTER:                  -8.989
REMARK INTRA:                  -1.274
REMARK UNBOUND:                -1.576
REMARK  Name = 
REMARK  9 active torsions:
REMARK  status: ('A' for Active; 'I' for Inactive)
REMARK    1  A    between atoms: C_1  and  C_2
REMARK    2  A    between atoms: C_2  and  C_3
REMARK    3  A    between atoms: C_2  and  C_4
REMARK    4  A    between atoms: C_2  and  C_5
REMARK    5  A    between atoms: C_7  and  C_8
REMARK    6  A    between atoms: C_12  and  N_13
REMARK    7  A    between atoms: N_13  and  C_14
REMARK    8  A    between atoms: C_14  and  C_15
REMARK    9  A    between atoms: C_19  and  C_20
REMARK                            x       y       z     vdW  Elec       q    Type
REMARK                         _______ _______ _______ _____ _____    ______ ____
ROOT
ATOM      1  N   UNL     1      49.290   7.447  14.894  0.00  0.00    +0.000 N 
ATOM      2  H   UNL     1      49.199   8.434  15.104  0.00  0.00    +0.000 HD
ENDROOT
BRANCH   1   7
ATOM      3  C   UNL     1      48.273   6.690  18.255  0.00  0.00    +0.000 A 
ATOM      4  C   UNL     1      48.023   5.325  18.221  0.00  0.00    +0.000 A 
ATOM      5  C   UNL     1      48.202   4.642  17.024  0.00  0.00    +0.000 A 
ATOM      6  C   UNL     1      48.600   5.331  15.886  0.00  0.00    +0.000 A 
ATOM      7  C   UNL     1      48.822   6.698  15.959  0.00  0.00    +0.000 A 
ATOM      8  N   UNL     1      48.653   7.363  17.131  0.00  0.00    +0.000 NA
BRANCH   5   9
ATOM      9  C   UNL     1      47.934   3.184  16.980  0.00  0.00    +0.000 C 
ATOM     10  N   UNL     1      46.889   2.685  17.710  0.00  0.00    +0.000 N 
ATOM     11  O   UNL     1      48.611   2.439  16.274  0.00  0.00    +0.000 OA
ATOM     12  H   UNL     1      46.192   3.258  18.163  0.00  0.00    +0.000 HD
ATOM     13  H   UNL     1      46.675   1.708  17.572  0.00  0.00    +0.000 HD
ENDBRANCH   5   9
BRANCH   3  15
ATOM     14  C   UNL     1      47.464   6.633  20.663  0.00  0.00    +0.000 C 
ATOM     15  C   UNL     1      48.154   7.482  19.573  0.00  0.00    +0.000 C 
ATOM     16  C   UNL     1      47.336   8.771  19.349  0.00  0.00    +0.000 C 
ATOM     17  C   UNL     1      49.541   7.882  20.122  0.00  0.00    +0.000 C 
ENDBRANCH   3  15
ENDBRANCH   1   7
BRANCH   1  18
ATOM     18  C   UNL     1      48.950   7.044  13.543  0.00  0.00    +0.000 C 
BRANCH  18  19
ATOM     19  C   UNL     1      47.533   7.395  13.150  0.00  0.00    +0.000 A 
ATOM     20  C   UNL     1      47.114   8.735  13.137  0.00  0.00    +0.000 A 
ATOM     21  C   UNL     1      45.873   9.082  12.614  0.00  0.00    +0.000 A 
ATOM     22  C   UNL     1      45.075   8.101  12.015  0.00  0.00    +0.000 A 
ATOM     23  C   UNL     1      45.517   6.765  11.937  0.00  0.00    +0.000 A 
ATOM     24  C   UNL     1      46.689   6.410  12.614  0.00  0.00    +0.000 A 
BRANCH  23  25
ATOM     25  C   UNL     1      44.818   5.788  10.997  0.00  0.00    +0.000 C 
ATOM     26  C   UNL     1      43.293   5.936  10.949  0.00  0.00    +0.000 C 
ATOM     27  C   UNL     1      42.530   4.945  11.822  0.00  0.00    +0.000 C 
ATOM     28  N   UNL     1      42.941   3.571  11.547  0.00  0.00    +0.000 NA
ATOM     29  C   UNL     1      44.335   3.388  11.940  0.00  0.00    +0.000 C 
ATOM     30  C   UNL     1      45.285   4.316  11.179  0.00  0.00    +0.000 C 
ATOM     31  H   UNL     1      42.839   3.378  10.550  0.00  0.00    +0.000 HD
ENDBRANCH  23  25
ENDBRANCH  18  19
ENDBRANCH   1  18
TORSDOF 6
ENDMDL
MODEL 9
REMARK VINA RESULT:    -6.431      2.028      3.732
REMARK INTER + INTRA:         -10.262
REMARK INTER:                  -8.932
REMARK INTRA:                  -1.330
REMARK UNBOUND:                -1.576
REMARK  Name = 
REMARK  9 active torsions:
REMARK  status: ('A' for Active; 'I' for Inactive)
REMARK    1  A    between atoms: C_1  and  C_2
REMARK    2  A    between atoms: C_2  and  C_3
REMARK    3  A    between atoms: C_2  and  C_4
REMARK    4  A    between atoms: C_2  and  C_5
REMARK    5  A    between atoms: C_7  and  C_8
REMARK    6  A    between atoms: C_12  and  N_13
REMARK    7  A    between atoms: N_13  and  C_14
REMARK    8  A    between atoms: C_14  and  C_15
REMARK    9  A    between atoms: C_19  and  C_20
REMARK                            x       y       z     vdW  Elec       q    Type
REMARK                         _______ _______ _______ _____ _____    ______ ____
ROOT
ATOM      1  N   UNL     1      47.038   3.529  14.718  0.00  0.00    +0.000 N 
ATOM      2  H   UNL     1      46.448   2.716  14.578  0.00  0.00    +0.000 HD
ENDROOT
BRANCH   1   7
ATOM      3  C   UNL     1      47.543   6.458  12.700  0.00  0.00    +0.000 A 
ATOM      4  C   UNL     1      46.526   6.384  11.758  0.00  0.00    +0.000 A 
ATOM      5  C   UNL     1      45.646   5.310  11.807  0.00  0.00    +0.000 A 
ATOM      6  C   UNL     1      45.808   4.324  12.770  0.00  0.00    +0.000 A 
ATOM      7  C   UNL     1      46.848   4.427  13.683  0.00  0.00    +0.000 A 
ATOM      8  N   UNL     1      47.704   5.480  13.638  0.00  0.00    +0.000 NA
BRANCH   5   9
ATOM      9  C   UNL     1      44.558   5.224  10.801  0.00  0.00    +0.000 C 
ATOM     10  N   UNL     1      43.488   6.069  10.915  0.00  0.00    +0.000 N 
ATOM     11  O   UNL     1      44.630   4.434   9.862  0.00  0.00    +0.000 OA
ATOM     12  H   UNL     1      43.453   6.852  11.551  0.00  0.00    +0.000 HD
ATOM     13  H   UNL     1      42.823   6.051  10.156  0.00  0.00    +0.000 HD
ENDBRANCH   5   9
BRANCH   3  15
ATOM     14  C   UNL     1      49.690   7.443  11.766  0.00  0.00    +0.000 C 
ATOM     15  C   UNL     1      48.505   7.662  12.731  0.00  0.00    +0.000 C 
ATOM     16  C   UNL     1      49.053   7.870  14.158  0.00  0.00    +0.000 C 
ATOM     17  C   UNL     1      47.799   8.964  12.292  0.00  0.00    +0.000 C 
ENDBRANCH   3  15
ENDBRANCH   1   7
BRANCH   1  18
ATOM     18  C   UNL     1      47.134   4.026  16.076  0.00  0.00    +0.000 C 
BRANCH  18  19
ATOM     19  C   UNL     1      48.431   3.659  16.760  0.00  0.00    +0.000 A 
ATOM     20  C   UNL     1      48.975   2.375  16.603  0.00  0.00    +0.000 A 
ATOM     21  C   UNL     1      50.247   2.082  17.084  0.00  0.00    +0.000 A 
ATOM     22  C   UNL     1      51.025   3.099  17.648  0.00  0.00    +0.000 A 
ATOM     23  C   UNL     1      50.531   4.417  17.734  0.00  0.00    +0.000 A 
ATOM     24  C   UNL     1      49.194   4.651  17.397  0.00  0.00    +0.000 A 
BRANCH  23  25
ATOM     25  C   UNL     1      51.488   5.569  18.023  0.00  0.00    +0.000 C 
ATOM     26  C   UNL     1      51.266   6.811  17.151  0.00  0.00    +0.000 C 
ATOM     27  C   UNL     1      52.204   6.923  15.953  0.00  0.00    +0.000 C 
ATOM     28  N   UNL     1      53.601   6.801  16.362  0.00  0.00    +0.000 NA
ATOM     29  C   UNL     1      53.846   5.458  16.879  0.00  0.00    +0.000 C 
ATOM     30  C   UNL     1      52.978   5.131  18.096  0.00  0.00    +0.000 C 
ATOM     31  H   UNL     1      53.805   7.489  17.088  0.00  0.00    +0.000 HD
ENDBRANCH  23  25
ENDBRANCH  18  19
ENDBRANCH   1  18
TORSDOF 6
ENDMDL
