MODEL 1
REMARK VINA RESULT:    -8.305      0.000      0.000
REMARK INTER + INTRA:         -11.966
REMARK INTER:                 -11.217
REMARK INTRA:                  -0.749
REMARK UNBOUND:                -0.749
REMARK  Name = 
REMARK  6 active torsions:
REMARK  status: ('A' for Active; 'I' for Inactive)
REMARK    1  A    between atoms: C_2  and  C_4
REMARK    2  A    between atoms: C_7  and  C_8
REMARK    3  A    between atoms: C_8  and  C_9
REMARK    4  A    between atoms: C_9  and  N_10
REMARK    5  A    between atoms: N_10  and  C_11
REMARK    6  A    between atoms: C_15  and  C_16
REMARK                            x       y       z     vdW  Elec       q    Type
REMARK                         _______ _______ _______ _____ _____    ______ ____
ROOT
ATOM      1  N   UNL     1      43.888   3.708  12.891  0.00  0.00    +0.000 N 
ATOM      2  H   UNL     1      43.083   4.075  13.395  0.00  0.00    +0.000 HD
ENDROOT
BRANCH   1   3
ATOM      3  C   UNL     1      44.977   4.587  12.904  0.00  0.00    +0.000 A 
ATOM      4  C   UNL     1      46.244   4.261  13.395  0.00  0.00    +0.000 A 
ATOM      5  C   UNL     1      47.263   5.212  13.474  0.00  0.00    +0.000 A 
ATOM      6  C   UNL     1      47.024   6.519  13.068  0.00  0.00    +0.000 A 
ATOM      7  C   UNL     1      45.772   6.896  12.562  0.00  0.00    +0.000 A 
ATOM      8  C   UNL     1      44.759   5.917  12.516  0.00  0.00    +0.000 A 
BRANCH   7   9
ATOM      9  C   UNL     1      45.521   8.267  12.090  0.00  0.00    +0.000 A 
ATOM     10  C   UNL     1      46.421   9.310  12.335  0.00  0.00    +0.000 A 
ATOM     11  N   UNL     1      46.243  10.597  11.948  0.00  0.00    +0.000 NA
ATOM     12  C   UNL     1      45.104  10.866  11.268  0.00  0.00    +0.000 A 
ATOM     13  C   UNL     1      44.155   9.910  10.950  0.00  0.00    +0.000 A 
ATOM     14 CL   UNL     1      42.734  10.322  10.083  0.00  0.00    +0.000 Cl
ATOM     15  C   UNL     1      44.370   8.599  11.362  0.00  0.00    +0.000 A 
ENDBRANCH   7   9
ENDBRANCH   1   3
BRANCH   1  16
ATOM     16  C   UNL     1      43.589   2.971  11.667  0.00  0.00    +0.000 C 
BRANCH  16  17
ATOM     17  C   UNL     1      43.680   3.872  10.435  0.00  0.00    +0.000 C 
BRANCH  17  21
ATOM     18  C   UNL     1      46.569   2.464   7.544  0.00  0.00    +0.000 A 
ATOM     19  C   UNL     1      45.921   1.558   8.386  0.00  0.00    +0.000 A 
ATOM     20  C   UNL     1      45.002   2.011   9.334  0.00  0.00    +0.000 A 
ATOM     21  C   UNL     1      44.716   3.379   9.449  0.00  0.00    +0.000 A 
ATOM     22  C   UNL     1      45.416   4.288   8.637  0.00  0.00    +0.000 A 
ATOM     23  C   UNL     1      46.339   3.838   7.692  0.00  0.00    +0.000 A 
BRANCH  18  25
ATOM     24  N   UNL     1      48.654   2.728   6.324  0.00  0.00    +0.000 N 
ATOM     25  C   UNL     1      47.508   1.995   6.492  0.00  0.00    +0.000 C 
ATOM     26  O   UNL     1      47.295   0.985   5.835  0.00  0.00    +0.000 OA
ATOM     27  H   UNL     1      49.334   2.363   5.670  0.00  0.00    +0.000 HD
ATOM     28  H   UNL     1      48.970   3.394   7.007  0.00  0.00    +0.000 HD
ENDBRANCH  18  25
ENDBRANCH  17  21
ENDBRANCH  16  17
ENDBRANCH   1  16
TORSDOF 6
ENDMDL
MODEL 2
REMARK VINA RESULT:    -8.272      3.108      4.489
REMARK INTER + INTRA:         -11.922
REMARK INTER:                 -10.915
REMARK INTRA:                  -1.007
REMARK UNBOUND:                -0.749
REMARK  Name = 
REMARK  6 active torsions:
REMARK  status: ('A' for Active; 'I' for Inactive)
REMARK    1  A    between atoms: C_2  and  C_4
REMARK    2  A    between atoms: C_7  and  C_8
REMARK    3  A    between atoms: C_8  and  C_9
REMARK    4  A    between atoms: C_9  and  N_10
REMARK    5  A    between atoms: N_10  and  C_11
REMARK    6  A    between atoms: C_15  and  C_16
REMARK                            x       y       z     vdW  Elec       q    Type
REMARK                         _______ _______ _______ _____ _____    ______ ____
ROOT
ATOM      1  N   UNL     1      43.628   5.383  11.885  0.00  0.00    +0.000 N 
ATOM      2  H   UNL     1      42.927   6.073  12.148  0.00  0.00    +0.000 HD
ENDROOT
BRANCH   1   3
ATOM      3  C   UNL     1      44.935   5.839  12.092  0.00  0.00    +0.000 A 
ATOM      4  C   UNL     1      45.677   6.553  11.147  0.00  0.00    +0.000 A 
ATOM      5  C   UNL     1      47.012   6.893  11.373  0.00  0.00    +0.000 A 
ATOM      6  C   UNL     1      47.634   6.511  12.556  0.00  0.00    +0.000 A 
ATOM      7  C   UNL     1      46.932   5.798  13.538  0.00  0.00    +0.000 A 
ATOM      8  C   UNL     1      45.591   5.452  13.269  0.00  0.00    +0.000 A 
BRANCH   7   9
ATOM      9  C   UNL     1      47.568   5.427  14.812  0.00  0.00    +0.000 A 
ATOM     10  C   UNL     1      48.650   6.143  15.336  0.00  0.00    +0.000 A 
ATOM     11  N   UNL     1      49.294   5.844  16.489  0.00  0.00    +0.000 NA
ATOM     12  C   UNL     1      48.833   4.770  17.172  0.00  0.00    +0.000 A 
ATOM     13  C   UNL     1      47.758   4.002  16.761  0.00  0.00    +0.000 A 
ATOM     14 CL   UNL     1      47.226   2.654  17.678  0.00  0.00    +0.000 Cl
ATOM     15  C   UNL     1      47.119   4.338  15.573  0.00  0.00    +0.000 A 
ENDBRANCH   7   9
ENDBRANCH   1   3
BRANCH   1  16
ATOM     16  C   UNL     1      43.333   4.603  10.688  0.00  0.00    +0.000 C 
BRANCH  16  17
ATOM     17  C   UNL     1      44.058   3.257  10.704  0.00  0.00    +0.000 C 
BRANCH  17  21
ATOM     18  C   UNL     1      46.518   2.649   7.203  0.00  0.00    +0.000 A 
ATOM     19  C   UNL     1      46.148   3.940   7.583  0.00  0.00    +0.000 A 
ATOM     20  C   UNL     1      45.337   4.139   8.703  0.00  0.00    +0.000 A 
ATOM     21  C   UNL     1      44.889   3.046   9.459  0.00  0.00    +0.000 A 
ATOM     22  C   UNL     1      45.221   1.747   9.034  0.00  0.00    +0.000 A 
ATOM     23  C   UNL     1      46.027   1.546   7.913  0.00  0.00    +0.000 A 
BRANCH  18  25
ATOM     24  N   UNL     1      48.758   2.672   6.259  0.00  0.00    +0.000 N 
ATOM     25  C   UNL     1      47.426   2.422   6.049  0.00  0.00    +0.000 C 
ATOM     26  O   UNL     1      47.019   1.996   4.976  0.00  0.00    +0.000 OA
ATOM     27  H   UNL     1      49.389   2.436   5.505  0.00  0.00    +0.000 HD
ATOM     28  H   UNL     1      49.146   2.772   7.181  0.00  0.00    +0.000 HD
ENDBRANCH  18  25
ENDBRANCH  17  21
ENDBRANCH  16  17
ENDBRANCH   1  16
TORSDOF 6
ENDMDL
MODEL 3
REMARK VINA RESULT:    -7.985      2.950      4.640
REMARK INTER + INTRA:         -11.535
REMARK INTER:                 -10.412
REMARK INTRA:                  -1.123
REMARK UNBOUND:                -0.749
REMARK  Name = 
REMARK  6 active torsions:
REMARK  status: ('A' for Active; 'I' for Inactive)
REMARK    1  A    between atoms: C_2  and  C_4
REMARK    2  A    between atoms: C_7  and  C_8
REMARK    3  A    between atoms: C_8  and  C_9
REMARK    4  A    between atoms: C_9  and  N_10
REMARK    5  A    between atoms: N_10  and  C_11
REMARK    6  A    between atoms: C_15  and  C_16
REMARK                            x       y       z     vdW  Elec       q    Type
REMARK                         _______ _______ _______ _____ _____    ______ ____
ROOT
ATOM      1  N   UNL     1      43.653   5.877  11.957  0.00  0.00    +0.000 N 
ATOM      2  H   UNL     1      43.037   6.638  12.235  0.00  0.00    +0.000 HD
ENDROOT
BRANCH   1   3
ATOM      3  C   UNL     1      44.996   6.135  12.255  0.00  0.00    +0.000 A 
ATOM      4  C   UNL     1      45.835   6.930  11.470  0.00  0.00    +0.000 A 
ATOM      5  C   UNL     1      47.192   7.069  11.765  0.00  0.00    +0.000 A 
ATOM      6  C   UNL     1      47.738   6.400  12.854  0.00  0.00    +0.000 A 
ATOM      7  C   UNL     1      46.937   5.595  13.676  0.00  0.00    +0.000 A 
ATOM      8  C   UNL     1      45.574   5.459  13.338  0.00  0.00    +0.000 A 
BRANCH   7   9
ATOM      9  C   UNL     1      47.495   4.917  14.856  0.00  0.00    +0.000 A 
ATOM     10  C   UNL     1      47.399   3.531  15.028  0.00  0.00    +0.000 A 
ATOM     11  N   UNL     1      47.871   2.847  16.098  0.00  0.00    +0.000 NA
ATOM     12  C   UNL     1      48.484   3.580  17.055  0.00  0.00    +0.000 A 
ATOM     13  C   UNL     1      48.655   4.951  16.981  0.00  0.00    +0.000 A 
ATOM     14 CL   UNL     1      49.445   5.818  18.233  0.00  0.00    +0.000 Cl
ATOM     15  C   UNL     1      48.160   5.622  15.869  0.00  0.00    +0.000 A 
ENDBRANCH   7   9
ENDBRANCH   1   3
BRANCH   1  16
ATOM     16  C   UNL     1      43.322   5.221  10.696  0.00  0.00    +0.000 C 
BRANCH  16  17
ATOM     17  C   UNL     1      43.665   3.732  10.732  0.00  0.00    +0.000 C 
BRANCH  17  21
ATOM     18  C   UNL     1      46.414   2.649   7.577  0.00  0.00    +0.000 A 
ATOM     19  C   UNL     1      45.818   1.657   8.358  0.00  0.00    +0.000 A 
ATOM     20  C   UNL     1      44.944   2.005   9.390  0.00  0.00    +0.000 A 
ATOM     21  C   UNL     1      44.653   3.351   9.652  0.00  0.00    +0.000 A 
ATOM     22  C   UNL     1      45.303   4.344   8.898  0.00  0.00    +0.000 A 
ATOM     23  C   UNL     1      46.180   3.999   7.869  0.00  0.00    +0.000 A 
BRANCH  18  25
ATOM     24  N   UNL     1      48.570   2.815   6.469  0.00  0.00    +0.000 N 
ATOM     25  C   UNL     1      47.301   2.297   6.439  0.00  0.00    +0.000 C 
ATOM     26  O   UNL     1      46.939   1.551   5.539  0.00  0.00    +0.000 OA
ATOM     27  H   UNL     1      49.203   2.509   5.742  0.00  0.00    +0.000 HD
ATOM     28  H   UNL     1      48.969   3.210   7.302  0.00  0.00    +0.000 HD
ENDBRANCH  18  25
ENDBRANCH  17  21
ENDBRANCH  16  17
ENDBRANCH   1  16
TORSDOF 6
ENDMDL
MODEL 4
REMARK VINA RESULT:    -7.817      2.382      3.001
REMARK INTER + INTRA:         -11.308
REMARK INTER:                 -10.352
REMARK INTRA:                  -0.956
REMARK UNBOUND:                -0.749
REMARK  Name = 
REMARK  6 active torsions:
REMARK  status: ('A' for Active; 'I' for Inactive)
REMARK    1  A    between atoms: C_2  and  C_4
REMARK    2  A    between atoms: C_7  and  C_8
REMARK    3  A    between atoms: C_8  and  C_9
REMARK    4  A    between atoms: C_9  and  N_10
REMARK    5  A    between atoms: N_10  and  C_11
REMARK    6  A    between atoms: C_15  and  C_16
REMARK                            x       y       z     vdW  Elec       q    Type
REMARK                         _______ _______ _______ _____ _____    ______ ____
ROOT
ATOM      1  N   UNL     1      43.717   5.537  12.206  0.00  0.00    +0.000 N 
ATOM      2  H   UNL     1      43.191   6.363  12.485  0.00  0.00    +0.000 HD
ENDROOT
BRANCH   1   3
ATOM      3  C   UNL     1      45.039   5.561  12.666  0.00  0.00    +0.000 A 
ATOM      4  C   UNL     1      45.564   4.657  13.593  0.00  0.00    +0.000 A 
ATOM      5  C   UNL     1      46.862   4.792  14.090  0.00  0.00    +0.000 A 
ATOM      6  C   UNL     1      47.658   5.851  13.670  0.00  0.00    +0.000 A 
ATOM      7  C   UNL     1      47.180   6.782  12.737  0.00  0.00    +0.000 A 
ATOM      8  C   UNL     1      45.857   6.628  12.272  0.00  0.00    +0.000 A 
BRANCH   7   9
ATOM      9  C   UNL     1      48.029   7.882  12.254  0.00  0.00    +0.000 A 
ATOM     10  C   UNL     1      47.563   9.200  12.180  0.00  0.00    +0.000 A 
ATOM     11  N   UNL     1      48.282  10.254  11.726  0.00  0.00    +0.000 NA
ATOM     12  C   UNL     1      49.548   9.989  11.327  0.00  0.00    +0.000 A 
ATOM     13  C   UNL     1      50.120   8.729  11.376  0.00  0.00    +0.000 A 
ATOM     14 CL   UNL     1      51.733   8.465  10.854  0.00  0.00    +0.000 Cl
ATOM     15  C   UNL     1      49.354   7.670  11.848  0.00  0.00    +0.000 A 
ENDBRANCH   7   9
ENDBRANCH   1   3
BRANCH   1  16
ATOM     16  C   UNL     1      43.445   5.034  10.864  0.00  0.00    +0.000 C 
BRANCH  16  17
ATOM     17  C   UNL     1      43.814   3.556  10.734  0.00  0.00    +0.000 C 
BRANCH  17  21
ATOM     18  C   UNL     1      46.436   2.810   7.379  0.00  0.00    +0.000 A 
ATOM     19  C   UNL     1      46.072   4.118   7.707  0.00  0.00    +0.000 A 
ATOM     20  C   UNL     1      45.210   4.361   8.779  0.00  0.00    +0.000 A 
ATOM     21  C   UNL     1      44.703   3.297   9.539  0.00  0.00    +0.000 A 
ATOM     22  C   UNL     1      45.029   1.982   9.164  0.00  0.00    +0.000 A 
ATOM     23  C   UNL     1      45.886   1.736   8.091  0.00  0.00    +0.000 A 
BRANCH  18  25
ATOM     24  N   UNL     1      48.618   2.034   6.644  0.00  0.00    +0.000 N 
ATOM     25  C   UNL     1      47.395   2.536   6.279  0.00  0.00    +0.000 C 
ATOM     26  O   UNL     1      47.103   2.708   5.103  0.00  0.00    +0.000 OA
ATOM     27  H   UNL     1      49.241   1.766   5.894  0.00  0.00    +0.000 HD
ATOM     28  H   UNL     1      48.789   1.650   7.557  0.00  0.00    +0.000 HD
ENDBRANCH  18  25
ENDBRANCH  17  21
ENDBRANCH  16  17
ENDBRANCH   1  16
TORSDOF 6
ENDMDL
MODEL 5
REMARK VINA RESULT:    -7.202      2.813      3.614
REMARK INTER + INTRA:         -10.477
REMARK INTER:                  -9.621
REMARK INTRA:                  -0.857
REMARK UNBOUND:                -0.749
REMARK  Name = 
REMARK  6 active torsions:
REMARK  status: ('A' for Active; 'I' for Inactive)
REMARK    1  A    between atoms: C_2  and  C_4
REMARK    2  A    between atoms: C_7  and  C_8
REMARK    3  A    between atoms: C_8  and  C_9
REMARK    4  A    between atoms: C_9  and  N_10
REMARK    5  A    between atoms: N_10  and  C_11
REMARK    6  A    between atoms: C_15  and  C_16
REMARK                            x       y       z     vdW  Elec       q    Type
REMARK                         _______ _______ _______ _____ _____    ______ ____
ROOT
ATOM      1  N   UNL     1      45.745   4.629  12.165  0.00  0.00    +0.000 N 
ATOM      2  H   UNL     1      46.416   4.075  12.694  0.00  0.00    +0.000 HD
ENDROOT
BRANCH   1   3
ATOM      3  C   UNL     1      45.959   6.006  12.300  0.00  0.00    +0.000 A 
ATOM      4  C   UNL     1      44.951   6.934  12.574  0.00  0.00    +0.000 A 
ATOM      5  C   UNL     1      45.209   8.305  12.598  0.00  0.00    +0.000 A 
ATOM      6  C   UNL     1      46.490   8.775  12.334  0.00  0.00    +0.000 A 
ATOM      7  C   UNL     1      47.538   7.884  12.058  0.00  0.00    +0.000 A 
ATOM      8  C   UNL     1      47.238   6.507  12.021  0.00  0.00    +0.000 A 
BRANCH   7   9
ATOM      9  C   UNL     1      48.907   8.368  11.819  0.00  0.00    +0.000 A 
ATOM     10  C   UNL     1      49.931   7.512  11.398  0.00  0.00    +0.000 A 
ATOM     11  N   UNL     1      51.215   7.886  11.180  0.00  0.00    +0.000 NA
ATOM     12  C   UNL     1      51.502   9.193  11.385  0.00  0.00    +0.000 A 
ATOM     13  C   UNL     1      50.565  10.132  11.781  0.00  0.00    +0.000 A 
ATOM     14 CL   UNL     1      50.999  11.773  12.021  0.00  0.00    +0.000 Cl
ATOM     15  C   UNL     1      49.257   9.714  11.994  0.00  0.00    +0.000 A 
ENDBRANCH   7   9
ENDBRANCH   1   3
BRANCH   1  16
ATOM     16  C   UNL     1      44.376   4.124  12.151  0.00  0.00    +0.000 C 
BRANCH  16  17
ATOM     17  C   UNL     1      43.745   4.258  10.765  0.00  0.00    +0.000 C 
BRANCH  17  21
ATOM     18  C   UNL     1      46.448   2.823   7.711  0.00  0.00    +0.000 A 
ATOM     19  C   UNL     1      46.190   4.191   7.833  0.00  0.00    +0.000 A 
ATOM     20  C   UNL     1      45.302   4.655   8.806  0.00  0.00    +0.000 A 
ATOM     21  C   UNL     1      44.664   3.757   9.673  0.00  0.00    +0.000 A 
ATOM     22  C   UNL     1      44.886   2.379   9.504  0.00  0.00    +0.000 A 
ATOM     23  C   UNL     1      45.769   1.912   8.530  0.00  0.00    +0.000 A 
BRANCH  18  25
ATOM     24  N   UNL     1      47.488   2.977   5.520  0.00  0.00    +0.000 N 
ATOM     25  C   UNL     1      47.431   2.316   6.720  0.00  0.00    +0.000 C 
ATOM     26  O   UNL     1      48.183   1.383   6.970  0.00  0.00    +0.000 OA
ATOM     27  H   UNL     1      48.214   2.689   4.877  0.00  0.00    +0.000 HD
ATOM     28  H   UNL     1      47.075   3.883   5.387  0.00  0.00    +0.000 HD
ENDBRANCH  18  25
ENDBRANCH  17  21
ENDBRANCH  16  17
ENDBRANCH   1  16
TORSDOF 6
ENDMDL
MODEL 6
REMARK VINA RESULT:    -7.100      2.920      3.908
REMARK INTER + INTRA:         -10.339
REMARK INTER:                  -9.917
REMARK INTRA:                  -0.423
REMARK UNBOUND:                -0.749
REMARK  Name = 
REMARK  6 active torsions:
REMARK  status: ('A' for Active; 'I' for Inactive)
REMARK    1  A    between atoms: C_2  and  C_4
REMARK    2  A    between atoms: C_7  and  C_8
REMARK    3  A    between atoms: C_8  and  C_9
REMARK    4  A    between atoms: C_9  and  N_10
REMARK    5  A    between atoms: N_10  and  C_11
REMARK    6  A    between atoms: C_15  and  C_16
REMARK                            x       y       z     vdW  Elec       q    Type
REMARK                         _______ _______ _______ _____ _____    ______ ____
ROOT
ATOM      1  N   UNL     1      44.134   3.960   9.067  0.00  0.00    +0.000 N 
ATOM      2  H   UNL     1      43.231   4.144   8.635  0.00  0.00    +0.000 HD
ENDROOT
BRANCH   1   3
ATOM      3  C   UNL     1      44.179   4.358  10.408  0.00  0.00    +0.000 A 
ATOM      4  C   UNL     1      43.094   4.288  11.285  0.00  0.00    +0.000 A 
ATOM      5  C   UNL     1      43.171   4.793  12.584  0.00  0.00    +0.000 A 
ATOM      6  C   UNL     1      44.345   5.392  13.026  0.00  0.00    +0.000 A 
ATOM      7  C   UNL     1      45.465   5.482  12.187  0.00  0.00    +0.000 A 
ATOM      8  C   UNL     1      45.346   4.981  10.874  0.00  0.00    +0.000 A 
BRANCH   7   9
ATOM      9  C   UNL     1      46.726   6.075  12.659  0.00  0.00    +0.000 A 
ATOM     10  C   UNL     1      47.326   5.678  13.859  0.00  0.00    +0.000 A 
ATOM     11  N   UNL     1      48.473   6.196  14.362  0.00  0.00    +0.000 NA
ATOM     12  C   UNL     1      49.068   7.163  13.626  0.00  0.00    +0.000 A 
ATOM     13  C   UNL     1      48.576   7.617  12.415  0.00  0.00    +0.000 A 
ATOM     14 CL   UNL     1      49.383   8.847  11.533  0.00  0.00    +0.000 Cl
ATOM     15  C   UNL     1      47.397   7.064  11.927  0.00  0.00    +0.000 A 
ENDBRANCH   7   9
ENDBRANCH   1   3
BRANCH   1  16
ATOM     16  C   UNL     1      45.301   4.191   8.221  0.00  0.00    +0.000 C 
BRANCH  16  17
ATOM     17  C   UNL     1      46.346   3.090   8.397  0.00  0.00    +0.000 C 
BRANCH  17  21
ATOM     18  C   UNL     1      46.931   0.891   4.722  0.00  0.00    +0.000 A 
ATOM     19  C   UNL     1      47.066   0.246   5.953  0.00  0.00    +0.000 A 
ATOM     20  C   UNL     1      46.896   0.958   7.143  0.00  0.00    +0.000 A 
ATOM     21  C   UNL     1      46.586   2.325   7.114  0.00  0.00    +0.000 A 
ATOM     22  C   UNL     1      46.510   2.977   5.871  0.00  0.00    +0.000 A 
ATOM     23  C   UNL     1      46.683   2.269   4.682  0.00  0.00    +0.000 A 
BRANCH  18  25
ATOM     24  N   UNL     1      46.235   0.538   2.421  0.00  0.00    +0.000 N 
ATOM     25  C   UNL     1      47.052   0.138   3.447  0.00  0.00    +0.000 C 
ATOM     26  O   UNL     1      47.864  -0.766   3.300  0.00  0.00    +0.000 OA
ATOM     27  H   UNL     1      46.375   0.086   1.527  0.00  0.00    +0.000 HD
ATOM     28  H   UNL     1      45.754   1.420   2.430  0.00  0.00    +0.000 HD
ENDBRANCH  18  25
ENDBRANCH  17  21
ENDBRANCH  16  17
ENDBRANCH   1  16
TORSDOF 6
ENDMDL
MODEL 7
REMARK VINA RESULT:    -6.896      3.922      7.511
REMARK INTER + INTRA:         -10.064
REMARK INTER:                  -8.873
REMARK INTRA:                  -1.191
REMARK UNBOUND:                -0.749
REMARK  Name = 
REMARK  6 active torsions:
REMARK  status: ('A' for Active; 'I' for Inactive)
REMARK    1  A    between atoms: C_2  and  C_4
REMARK    2  A    between atoms: C_7  and  C_8
REMARK    3  A    between atoms: C_8  and  C_9
REMARK    4  A    between atoms: C_9  and  N_10
REMARK    5  A    between atoms: N_10  and  C_11
REMARK    6  A    between atoms: C_15  and  C_16
REMARK                            x       y       z     vdW  Elec       q    Type
REMARK                         _______ _______ _______ _____ _____    ______ ____
ROOT
ATOM      1  N   UNL     1      48.908   8.057  11.817  0.00  0.00    +0.000 N 
ATOM      2  H   UNL     1      49.274   8.977  11.582  0.00  0.00    +0.000 HD
ENDROOT
BRANCH   1   3
ATOM      3  C   UNL     1      47.509   8.031  11.867  0.00  0.00    +0.000 A 
ATOM      4  C   UNL     1      46.714   9.139  12.167  0.00  0.00    +0.000 A 
ATOM      5  C   UNL     1      45.329   9.028  12.300  0.00  0.00    +0.000 A 
ATOM      6  C   UNL     1      44.714   7.792  12.145  0.00  0.00    +0.000 A 
ATOM      7  C   UNL     1      45.467   6.650  11.838  0.00  0.00    +0.000 A 
ATOM      8  C   UNL     1      46.866   6.793  11.731  0.00  0.00    +0.000 A 
BRANCH   7   9
ATOM      9  C   UNL     1      44.822   5.344  11.628  0.00  0.00    +0.000 A 
ATOM     10  C   UNL     1      43.984   4.770  12.591  0.00  0.00    +0.000 A 
ATOM     11  N   UNL     1      43.376   3.565  12.472  0.00  0.00    +0.000 NA
ATOM     12  C   UNL     1      43.606   2.888  11.323  0.00  0.00    +0.000 A 
ATOM     13  C   UNL     1      44.398   3.368  10.294  0.00  0.00    +0.000 A 
ATOM     14 CL   UNL     1      44.645   2.457   8.863  0.00  0.00    +0.000 Cl
ATOM     15  C   UNL     1      45.006   4.609  10.449  0.00  0.00    +0.000 A 
ENDBRANCH   7   9
ENDBRANCH   1   3
BRANCH   1  16
ATOM     16  C   UNL     1      49.665   7.308  12.815  0.00  0.00    +0.000 C 
BRANCH  16  17
ATOM     17  C   UNL     1      49.330   7.771  14.233  0.00  0.00    +0.000 C 
BRANCH  17  21
ATOM     18  C   UNL     1      48.088   4.538  16.819  0.00  0.00    +0.000 A 
ATOM     19  C   UNL     1      49.170   5.345  17.177  0.00  0.00    +0.000 A 
ATOM     20  C   UNL     1      49.586   6.378  16.334  0.00  0.00    +0.000 A 
ATOM     21  C   UNL     1      48.921   6.619  15.124  0.00  0.00    +0.000 A 
ATOM     22  C   UNL     1      47.870   5.765  14.747  0.00  0.00    +0.000 A 
ATOM     23  C   UNL     1      47.455   4.729  15.585  0.00  0.00    +0.000 A 
BRANCH  18  25
ATOM     24  N   UNL     1      48.274   3.313  18.910  0.00  0.00    +0.000 N 
ATOM     25  C   UNL     1      47.596   3.471  17.729  0.00  0.00    +0.000 C 
ATOM     26  O   UNL     1      46.614   2.792  17.462  0.00  0.00    +0.000 OA
ATOM     27  H   UNL     1      47.890   2.648  19.568  0.00  0.00    +0.000 HD
ATOM     28  H   UNL     1      48.907   4.009  19.262  0.00  0.00    +0.000 HD
ENDBRANCH  18  25
ENDBRANCH  17  21
ENDBRANCH  16  17
ENDBRANCH   1  16
TORSDOF 6
ENDMDL
MODEL 8
REMARK VINA RESULT:    -6.807      5.981      8.173
REMARK INTER + INTRA:          -9.943
REMARK INTER:                  -9.163
REMARK INTRA:                  -0.780
REMARK UNBOUND:                -0.749
REMARK  Name = 
REMARK  6 active torsions:
REMARK  status: ('A' for Active; 'I' for Inactive)
REMARK    1  A    between atoms: C_2  and  C_4
REMARK    2  A    between atoms: C_7  and  C_8
REMARK    3  A    between atoms: C_8  and  C_9
REMARK    4  A    between atoms: C_9  and  N_10
REMARK    5  A    between atoms: N_10  and  C_11
REMARK    6  A    between atoms: C_15  and  C_16
REMARK                            x       y       z     vdW  Elec       q    Type
REMARK                         _______ _______ _______ _____ _____    ______ ____
ROOT
ATOM      1  N   UNL     1      48.128   6.482  15.823  0.00  0.00    +0.000 N 
ATOM      2  H   UNL     1      48.443   7.241  16.424  0.00  0.00    +0.000 HD
ENDROOT
BRANCH   1   3
ATOM      3  C   UNL     1      48.254   5.227  16.430  0.00  0.00    +0.000 A 
ATOM      4  C   UNL     1      47.178   4.384  16.721  0.00  0.00    +0.000 A 
ATOM      5  C   UNL     1      47.357   3.188  17.418  0.00  0.00    +0.000 A 
ATOM      6  C   UNL     1      48.626   2.820  17.849  0.00  0.00    +0.000 A 
ATOM      7  C   UNL     1      49.739   3.628  17.578  0.00  0.00    +0.000 A 
ATOM      8  C   UNL     1      49.520   4.840  16.890  0.00  0.00    +0.000 A 
BRANCH   7   9
ATOM      9  C   UNL     1      51.092   3.227  17.992  0.00  0.00    +0.000 A 
ATOM     10  C   UNL     1      51.857   4.000  18.873  0.00  0.00    +0.000 A 
ATOM     11  N   UNL     1      53.114   3.700  19.278  0.00  0.00    +0.000 NA
ATOM     12  C   UNL     1      53.647   2.558  18.785  0.00  0.00    +0.000 A 
ATOM     13  C   UNL     1      52.975   1.706  17.926  0.00  0.00    +0.000 A 
ATOM     14 CL   UNL     1      53.712   0.272  17.341  0.00  0.00    +0.000 Cl
ATOM     15  C   UNL     1      51.686   2.043  17.531  0.00  0.00    +0.000 A 
ENDBRANCH   7   9
ENDBRANCH   1   3
BRANCH   1  16
ATOM     16  C   UNL     1      48.452   6.618  14.407  0.00  0.00    +0.000 C 
BRANCH  16  17
ATOM     17  C   UNL     1      47.351   7.361  13.650  0.00  0.00    +0.000 C 
BRANCH  17  21
ATOM     18  C   UNL     1      44.994   4.780  11.104  0.00  0.00    +0.000 A 
ATOM     19  C   UNL     1      45.081   4.524  12.474  0.00  0.00    +0.000 A 
ATOM     20  C   UNL     1      45.857   5.345  13.296  0.00  0.00    +0.000 A 
ATOM     21  C   UNL     1      46.554   6.436  12.757  0.00  0.00    +0.000 A 
ATOM     22  C   UNL     1      46.506   6.651  11.369  0.00  0.00    +0.000 A 
ATOM     23  C   UNL     1      45.735   5.829  10.545  0.00  0.00    +0.000 A 
BRANCH  18  25
ATOM     24  N   UNL     1      44.012   4.363   8.921  0.00  0.00    +0.000 N 
ATOM     25  C   UNL     1      44.129   3.953  10.224  0.00  0.00    +0.000 C 
ATOM     26  O   UNL     1      43.580   2.935  10.624  0.00  0.00    +0.000 OA
ATOM     27  H   UNL     1      43.495   3.756   8.299  0.00  0.00    +0.000 HD
ATOM     28  H   UNL     1      44.640   5.031   8.510  0.00  0.00    +0.000 HD
ENDBRANCH  18  25
ENDBRANCH  17  21
ENDBRANCH  16  17
ENDBRANCH   1  16
TORSDOF 6
ENDMDL
MODEL 9
REMARK VINA RESULT:    -6.706      4.551      8.138
REMARK INTER + INTRA:          -9.808
REMARK INTER:                  -8.738
REMARK INTRA:                  -1.070
REMARK UNBOUND:                -0.749
REMARK  Name = 
REMARK  6 active torsions:
REMARK  status: ('A' for Active; 'I' for Inactive)
REMARK    1  A    between atoms: C_2  and  C_4
REMARK    2  A    between atoms: C_7  and  C_8
REMARK    3  A    between atoms: C_8  and  C_9
REMARK    4  A    between atoms: C_9  and  N_10
REMARK    5  A    between atoms: N_10  and  C_11
REMARK    6  A    between atoms: C_15  and  C_16
REMARK                            x       y       z     vdW  Elec       q    Type
REMARK                         _______ _______ _______ _____ _____    ______ ____
ROOT
ATOM      1  N   UNL     1      50.927   7.672  13.774  0.00  0.00    +0.000 N 
ATOM      2  H   UNL     1      51.706   7.739  13.121  0.00  0.00    +0.000 HD
ENDROOT
BRANCH   1   3
ATOM      3  C   UNL     1      49.689   7.894  13.159  0.00  0.00    +0.000 A 
ATOM      4  C   UNL     1      49.233   9.147  12.742  0.00  0.00    +0.000 A 
ATOM      5  C   UNL     1      47.948   9.321  12.226  0.00  0.00    +0.000 A 
ATOM      6  C   UNL     1      47.087   8.235  12.129  0.00  0.00    +0.000 A 
ATOM      7  C   UNL     1      47.498   6.955  12.529  0.00  0.00    +0.000 A 
ATOM      8  C   UNL     1      48.796   6.818  13.066  0.00  0.00    +0.000 A 
BRANCH   7   9
ATOM      9  C   UNL     1      46.610   5.790  12.391  0.00  0.00    +0.000 A 
ATOM     10  C   UNL     1      46.555   4.782  13.360  0.00  0.00    +0.000 A 
ATOM     11  N   UNL     1      45.778   3.675  13.286  0.00  0.00    +0.000 NA
ATOM     12  C   UNL     1      44.998   3.563  12.185  0.00  0.00    +0.000 A 
ATOM     13  C   UNL     1      44.955   4.508  11.175  0.00  0.00    +0.000 A 
ATOM     14 CL   UNL     1      43.941   4.301   9.807  0.00  0.00    +0.000 Cl
ATOM     15  C   UNL     1      45.765   5.632  11.284  0.00  0.00    +0.000 A 
ENDBRANCH   7   9
ENDBRANCH   1   3
BRANCH   1  16
ATOM     16  C   UNL     1      51.165   8.224  15.104  0.00  0.00    +0.000 C 
BRANCH  16  17
ATOM     17  C   UNL     1      51.800   7.190  16.034  0.00  0.00    +0.000 C 
BRANCH  17  21
ATOM     18  C   UNL     1      48.863   4.428  17.595  0.00  0.00    +0.000 A 
ATOM     19  C   UNL     1      48.461   5.663  17.081  0.00  0.00    +0.000 A 
ATOM     20  C   UNL     1      49.409   6.565  16.594  0.00  0.00    +0.000 A 
ATOM     21  C   UNL     1      50.773   6.241  16.611  0.00  0.00    +0.000 A 
ATOM     22  C   UNL     1      51.172   5.020  17.183  0.00  0.00    +0.000 A 
ATOM     23  C   UNL     1      50.227   4.119  17.675  0.00  0.00    +0.000 A 
BRANCH  18  25
ATOM     24  N   UNL     1      48.091   2.876  19.298  0.00  0.00    +0.000 N 
ATOM     25  C   UNL     1      47.865   3.433  18.066  0.00  0.00    +0.000 C 
ATOM     26  O   UNL     1      46.871   3.151  17.411  0.00  0.00    +0.000 OA
ATOM     27  H   UNL     1      47.370   2.265  19.659  0.00  0.00    +0.000 HD
ATOM     28  H   UNL     1      48.744   3.269  19.954  0.00  0.00    +0.000 HD
ENDBRANCH  18  25
ENDBRANCH  17  21
ENDBRANCH  16  17
ENDBRANCH   1  16
TORSDOF 6
ENDMDL
