MODEL 1
REMARK VINA RESULT:    -7.688      0.000      0.000
REMARK INTER + INTRA:         -10.056
REMARK INTER:                  -9.486
REMARK INTRA:                  -0.570
REMARK UNBOUND:                -0.570
REMARK  Name = 
REMARK  4 active torsions:
REMARK  status: ('A' for Active; 'I' for Inactive)
REMARK    1  A    between atoms: C_4  and  C_5
REMARK    2  A    between atoms: C_9  and  C_10
REMARK    3  A    between atoms: C_10  and  C_11
REMARK    4  A    between atoms: C_11  and  C_12
REMARK                            x       y       z     vdW  Elec       q    Type
REMARK                         _______ _______ _______ _____ _____    ______ ____
ROOT
ATOM      1  C   UNL     1      47.093   6.179  12.491  0.00  0.00    +0.000 A 
ATOM      2  N   UNL     1      47.671   5.340  13.370  0.00  0.00    +0.000 NA
ATOM      3  C   UNL     1      47.036   4.175  13.572  0.00  0.00    +0.000 A 
ATOM      4  C   UNL     1      45.877   3.813  12.924  0.00  0.00    +0.000 A 
ATOM      5  C   UNL     1      45.341   4.727  12.033  0.00  0.00    +0.000 A 
ATOM      6  N   UNL     1      45.948   5.916  11.832  0.00  0.00    +0.000 NA
ENDROOT
BRANCH   1  10
ATOM      7  C   UNL     1      49.159   9.847  11.579  0.00  0.00    +0.000 A 
ATOM      8  C   UNL     1      47.803   9.873  11.895  0.00  0.00    +0.000 A 
ATOM      9  C   UNL     1      47.124   8.681  12.176  0.00  0.00    +0.000 A 
ATOM     10  C   UNL     1      47.784   7.439  12.151  0.00  0.00    +0.000 A 
ATOM     11  C   UNL     1      49.154   7.447  11.818  0.00  0.00    +0.000 A 
ATOM     12  C   UNL     1      49.836   8.634  11.535  0.00  0.00    +0.000 A 
ENDBRANCH   1  10
BRANCH   5  13
ATOM     13  C   UNL     1      44.114   4.405  11.175  0.00  0.00    +0.000 C 
ATOM     14  C   UNL     1      42.762   4.666  11.838  0.00  0.00    +0.000 C 
ATOM     15  C   UNL     1      43.202   3.257  11.599  0.00  0.00    +0.000 C 
BRANCH  13  16
ATOM     16  C   UNL     1      44.221   4.707   9.689  0.00  0.00    +0.000 C 
BRANCH  16  17
ATOM     17  C   UNL     1      45.182   3.812   8.941  0.00  0.00    +0.000 A 
ATOM     18  C   UNL     1      45.187   2.432   9.129  0.00  0.00    +0.000 A 
ATOM     19  C   UNL     1      46.007   1.640   8.329  0.00  0.00    +0.000 A 
ATOM     20  C   UNL     1      46.799   2.243   7.360  0.00  0.00    +0.000 A 
ATOM     21  C   UNL     1      46.744   3.620   7.241  0.00  0.00    +0.000 A 
ATOM     22  N   UNL     1      45.956   4.413   8.001  0.00  0.00    +0.000 NA
ENDBRANCH  16  17
ENDBRANCH  13  16
ENDBRANCH   5  13
TORSDOF 4
ENDMDL
MODEL 2
REMARK VINA RESULT:    -7.452      1.832      3.537
REMARK INTER + INTRA:          -9.765
REMARK INTER:                  -9.299
REMARK INTRA:                  -0.466
REMARK UNBOUND:                -0.570
REMARK  Name = 
REMARK  4 active torsions:
REMARK  status: ('A' for Active; 'I' for Inactive)
REMARK    1  A    between atoms: C_4  and  C_5
REMARK    2  A    between atoms: C_9  and  C_10
REMARK    3  A    between atoms: C_10  and  C_11
REMARK    4  A    between atoms: C_11  and  C_12
REMARK                            x       y       z     vdW  Elec       q    Type
REMARK                         _______ _______ _______ _____ _____    ______ ____
ROOT
ATOM      1  C   UNL     1      47.113   5.399  13.673  0.00  0.00    +0.000 A 
ATOM      2  N   UNL     1      47.706   6.459  13.093  0.00  0.00    +0.000 NA
ATOM      3  C   UNL     1      47.160   6.878  11.941  0.00  0.00    +0.000 A 
ATOM      4  C   UNL     1      46.051   6.300  11.366  0.00  0.00    +0.000 A 
ATOM      5  C   UNL     1      45.496   5.213  12.019  0.00  0.00    +0.000 A 
ATOM      6  N   UNL     1      46.042   4.759  13.167  0.00  0.00    +0.000 NA
ENDROOT
BRANCH   1  10
ATOM      7  C   UNL     1      48.454   4.065  17.543  0.00  0.00    +0.000 A 
ATOM      8  C   UNL     1      48.762   5.350  17.105  0.00  0.00    +0.000 A 
ATOM      9  C   UNL     1      48.342   5.782  15.842  0.00  0.00    +0.000 A 
ATOM     10  C   UNL     1      47.603   4.942  14.989  0.00  0.00    +0.000 A 
ATOM     11  C   UNL     1      47.317   3.644  15.457  0.00  0.00    +0.000 A 
ATOM     12  C   UNL     1      47.735   3.207  16.717  0.00  0.00    +0.000 A 
ENDBRANCH   1  10
BRANCH   5  13
ATOM     13  C   UNL     1      44.203   4.547  11.538  0.00  0.00    +0.000 C 
ATOM     14  C   UNL     1      42.999   4.706  12.466  0.00  0.00    +0.000 C 
ATOM     15  C   UNL     1      43.648   3.365  12.330  0.00  0.00    +0.000 C 
BRANCH  13  16
ATOM     16  C   UNL     1      43.929   4.584  10.044  0.00  0.00    +0.000 C 
BRANCH  16  17
ATOM     17  C   UNL     1      44.910   3.790   9.213  0.00  0.00    +0.000 A 
ATOM     18  C   UNL     1      44.988   2.402   9.308  0.00  0.00    +0.000 A 
ATOM     19  C   UNL     1      45.823   1.707   8.436  0.00  0.00    +0.000 A 
ATOM     20  C   UNL     1      46.555   2.411   7.489  0.00  0.00    +0.000 A 
ATOM     21  C   UNL     1      46.430   3.789   7.464  0.00  0.00    +0.000 A 
ATOM     22  N   UNL     1      45.627   4.489   8.296  0.00  0.00    +0.000 NA
ENDBRANCH  16  17
ENDBRANCH  13  16
ENDBRANCH   5  13
TORSDOF 4
ENDMDL
MODEL 3
REMARK VINA RESULT:    -7.072      1.416      2.182
REMARK INTER + INTRA:          -9.296
REMARK INTER:                  -8.699
REMARK INTRA:                  -0.596
REMARK UNBOUND:                -0.570
REMARK  Name = 
REMARK  4 active torsions:
REMARK  status: ('A' for Active; 'I' for Inactive)
REMARK    1  A    between atoms: C_4  and  C_5
REMARK    2  A    between atoms: C_9  and  C_10
REMARK    3  A    between atoms: C_10  and  C_11
REMARK    4  A    between atoms: C_11  and  C_12
REMARK                            x       y       z     vdW  Elec       q    Type
REMARK                         _______ _______ _______ _____ _____    ______ ____
ROOT
ATOM      1  C   UNL     1      46.530   7.178  12.024  0.00  0.00    +0.000 A 
ATOM      2  N   UNL     1      45.708   8.234  11.878  0.00  0.00    +0.000 NA
ATOM      3  C   UNL     1      44.459   7.953  11.474  0.00  0.00    +0.000 A 
ATOM      4  C   UNL     1      44.002   6.678  11.234  0.00  0.00    +0.000 A 
ATOM      5  C   UNL     1      44.904   5.642  11.404  0.00  0.00    +0.000 A 
ATOM      6  N   UNL     1      46.172   5.901  11.787  0.00  0.00    +0.000 NA
ENDROOT
BRANCH   1  10
ATOM      7  C   UNL     1      50.462   7.903  13.625  0.00  0.00    +0.000 A 
ATOM      8  C   UNL     1      50.186   8.207  12.294  0.00  0.00    +0.000 A 
ATOM      9  C   UNL     1      48.914   7.958  11.766  0.00  0.00    +0.000 A 
ATOM     10  C   UNL     1      47.889   7.403  12.554  0.00  0.00    +0.000 A 
ATOM     11  C   UNL     1      48.204   7.097  13.893  0.00  0.00    +0.000 A 
ATOM     12  C   UNL     1      49.473   7.342  14.426  0.00  0.00    +0.000 A 
ENDBRANCH   1  10
BRANCH   5  13
ATOM     13  C   UNL     1      44.492   4.173  11.269  0.00  0.00    +0.000 C 
ATOM     14  C   UNL     1      43.766   3.581  12.476  0.00  0.00    +0.000 C 
ATOM     15  C   UNL     1      45.160   3.137  12.170  0.00  0.00    +0.000 C 
BRANCH  13  16
ATOM     16  C   UNL     1      44.029   3.716   9.895  0.00  0.00    +0.000 C 
BRANCH  16  17
ATOM     17  C   UNL     1      45.147   3.286   8.974  0.00  0.00    +0.000 A 
ATOM     18  C   UNL     1      45.496   1.945   8.831  0.00  0.00    +0.000 A 
ATOM     19  C   UNL     1      46.451   1.590   7.881  0.00  0.00    +0.000 A 
ATOM     20  C   UNL     1      47.030   2.577   7.095  0.00  0.00    +0.000 A 
ATOM     21  C   UNL     1      46.636   3.887   7.303  0.00  0.00    +0.000 A 
ATOM     22  N   UNL     1      45.711   4.261   8.215  0.00  0.00    +0.000 NA
ENDBRANCH  16  17
ENDBRANCH  13  16
ENDBRANCH   5  13
TORSDOF 4
ENDMDL
MODEL 4
REMARK VINA RESULT:    -7.068      2.235      2.999
REMARK INTER + INTRA:          -9.291
REMARK INTER:                  -8.758
REMARK INTRA:                  -0.533
REMARK UNBOUND:                -0.570
REMARK  Name = 
REMARK  4 active torsions:
REMARK  status: ('A' for Active; 'I' for Inactive)
REMARK    1  A    between atoms: C_4  and  C_5
REMARK    2  A    between atoms: C_9  and  C_10
REMARK    3  A    between atoms: C_10  and  C_11
REMARK    4  A    between atoms: C_11  and  C_12
REMARK                            x       y       z     vdW  Elec       q    Type
REMARK                         _______ _______ _______ _____ _____    ______ ____
ROOT
ATOM      1  C   UNL     1      45.293   7.956  11.767  0.00  0.00    +0.000 A 
ATOM      2  N   UNL     1      46.560   7.960  12.218  0.00  0.00    +0.000 NA
ATOM      3  C   UNL     1      47.109   6.753  12.435  0.00  0.00    +0.000 A 
ATOM      4  C   UNL     1      46.457   5.564  12.202  0.00  0.00    +0.000 A 
ATOM      5  C   UNL     1      45.155   5.639  11.738  0.00  0.00    +0.000 A 
ATOM      6  N   UNL     1      44.574   6.840  11.535  0.00  0.00    +0.000 NA
ENDROOT
BRANCH   1  10
ATOM      7  C   UNL     1      43.458  11.693  10.661  0.00  0.00    +0.000 A 
ATOM      8  C   UNL     1      44.659  11.689  11.367  0.00  0.00    +0.000 A 
ATOM      9  C   UNL     1      45.250  10.477  11.742  0.00  0.00    +0.000 A 
ATOM     10  C   UNL     1      44.658   9.242  11.419  0.00  0.00    +0.000 A 
ATOM     11  C   UNL     1      43.438   9.281  10.714  0.00  0.00    +0.000 A 
ATOM     12  C   UNL     1      42.842  10.488  10.338  0.00  0.00    +0.000 A 
ENDBRANCH   1  10
BRANCH   5  13
ATOM     13  C   UNL     1      44.358   4.392  11.343  0.00  0.00    +0.000 C 
ATOM     14  C   UNL     1      43.323   3.924  12.366  0.00  0.00    +0.000 C 
ATOM     15  C   UNL     1      44.557   3.108  12.147  0.00  0.00    +0.000 C 
BRANCH  13  16
ATOM     16  C   UNL     1      43.988   4.253   9.876  0.00  0.00    +0.000 C 
BRANCH  16  17
ATOM     17  C   UNL     1      45.058   3.612   9.023  0.00  0.00    +0.000 A 
ATOM     18  C   UNL     1      45.255   2.233   9.019  0.00  0.00    +0.000 A 
ATOM     19  C   UNL     1      46.171   1.681   8.127  0.00  0.00    +0.000 A 
ATOM     20  C   UNL     1      46.865   2.515   7.260  0.00  0.00    +0.000 A 
ATOM     21  C   UNL     1      46.619   3.874   7.331  0.00  0.00    +0.000 A 
ATOM     22  N   UNL     1      45.735   4.438   8.184  0.00  0.00    +0.000 NA
ENDBRANCH  16  17
ENDBRANCH  13  16
ENDBRANCH   5  13
TORSDOF 4
ENDMDL
MODEL 5
REMARK VINA RESULT:    -6.565      1.667      6.389
REMARK INTER + INTRA:          -8.670
REMARK INTER:                  -8.883
REMARK INTRA:                   0.213
REMARK UNBOUND:                -0.570
REMARK  Name = 
REMARK  4 active torsions:
REMARK  status: ('A' for Active; 'I' for Inactive)
REMARK    1  A    between atoms: C_4  and  C_5
REMARK    2  A    between atoms: C_9  and  C_10
REMARK    3  A    between atoms: C_10  and  C_11
REMARK    4  A    between atoms: C_11  and  C_12
REMARK                            x       y       z     vdW  Elec       q    Type
REMARK                         _______ _______ _______ _____ _____    ______ ____
ROOT
ATOM      1  C   UNL     1      44.968   4.619  10.023  0.00  0.00    +0.000 A 
ATOM      2  N   UNL     1      43.634   4.665  10.195  0.00  0.00    +0.000 NA
ATOM      3  C   UNL     1      43.189   5.564  11.087  0.00  0.00    +0.000 A 
ATOM      4  C   UNL     1      44.010   6.418  11.787  0.00  0.00    +0.000 A 
ATOM      5  C   UNL     1      45.371   6.313  11.558  0.00  0.00    +0.000 A 
ATOM      6  N   UNL     1      45.844   5.399  10.684  0.00  0.00    +0.000 NA
ENDROOT
BRANCH   1  10
ATOM      7  C   UNL     1      46.650   1.968   7.075  0.00  0.00    +0.000 A 
ATOM      8  C   UNL     1      46.710   3.346   6.886  0.00  0.00    +0.000 A 
ATOM      9  C   UNL     1      46.150   4.211   7.834  0.00  0.00    +0.000 A 
ATOM     10  C   UNL     1      45.521   3.719   8.992  0.00  0.00    +0.000 A 
ATOM     11  C   UNL     1      45.469   2.319   9.149  0.00  0.00    +0.000 A 
ATOM     12  C   UNL     1      46.025   1.451   8.205  0.00  0.00    +0.000 A 
ENDBRANCH   1  10
BRANCH   5  13
ATOM     13  C   UNL     1      46.381   7.271  12.195  0.00  0.00    +0.000 C 
ATOM     14  C   UNL     1      45.784   8.337  13.114  0.00  0.00    +0.000 C 
ATOM     15  C   UNL     1      46.351   8.744  11.792  0.00  0.00    +0.000 C 
BRANCH  13  16
ATOM     16  C   UNL     1      47.721   6.681  12.605  0.00  0.00    +0.000 C 
BRANCH  16  17
ATOM     17  C   UNL     1      47.721   6.025  13.966  0.00  0.00    +0.000 A 
ATOM     18  C   UNL     1      46.970   4.879  14.220  0.00  0.00    +0.000 A 
ATOM     19  C   UNL     1      47.097   4.244  15.453  0.00  0.00    +0.000 A 
ATOM     20  C   UNL     1      47.970   4.764  16.400  0.00  0.00    +0.000 A 
ATOM     21  C   UNL     1      48.673   5.910  16.075  0.00  0.00    +0.000 A 
ATOM     22  N   UNL     1      48.572   6.546  14.886  0.00  0.00    +0.000 NA
ENDBRANCH  16  17
ENDBRANCH  13  16
ENDBRANCH   5  13
TORSDOF 4
ENDMDL
MODEL 6
REMARK VINA RESULT:    -6.138      4.254      7.596
REMARK INTER + INTRA:          -8.143
REMARK INTER:                  -7.886
REMARK INTRA:                  -0.257
REMARK UNBOUND:                -0.570
REMARK  Name = 
REMARK  4 active torsions:
REMARK  status: ('A' for Active; 'I' for Inactive)
REMARK    1  A    between atoms: C_4  and  C_5
REMARK    2  A    between atoms: C_9  and  C_10
REMARK    3  A    between atoms: C_10  and  C_11
REMARK    4  A    between atoms: C_11  and  C_12
REMARK                            x       y       z     vdW  Elec       q    Type
REMARK                         _______ _______ _______ _____ _____    ______ ____
ROOT
ATOM      1  C   UNL     1      47.195   5.353  14.122  0.00  0.00    +0.000 A 
ATOM      2  N   UNL     1      47.821   6.540  14.220  0.00  0.00    +0.000 NA
ATOM      3  C   UNL     1      48.603   6.702  15.299  0.00  0.00    +0.000 A 
ATOM      4  C   UNL     1      48.797   5.733  16.256  0.00  0.00    +0.000 A 
ATOM      5  C   UNL     1      48.119   4.538  16.089  0.00  0.00    +0.000 A 
ATOM      6  N   UNL     1      47.308   4.359  15.025  0.00  0.00    +0.000 NA
ENDROOT
BRANCH   1  10
ATOM      7  C   UNL     1      44.914   4.460  10.579  0.00  0.00    +0.000 A 
ATOM      8  C   UNL     1      45.583   5.676  10.688  0.00  0.00    +0.000 A 
ATOM      9  C   UNL     1      46.312   5.977  11.844  0.00  0.00    +0.000 A 
ATOM     10  C   UNL     1      46.392   5.070  12.916  0.00  0.00    +0.000 A 
ATOM     11  C   UNL     1      45.696   3.851  12.779  0.00  0.00    +0.000 A 
ATOM     12  C   UNL     1      44.965   3.547  11.627  0.00  0.00    +0.000 A 
ENDBRANCH   1  10
BRANCH   5  13
ATOM     13  C   UNL     1      48.328   3.345  17.027  0.00  0.00    +0.000 C 
ATOM     14  C   UNL     1      47.091   2.898  17.805  0.00  0.00    +0.000 C 
ATOM     15  C   UNL     1      48.213   3.566  18.534  0.00  0.00    +0.000 C 
BRANCH  13  16
ATOM     16  C   UNL     1      49.271   2.253  16.546  0.00  0.00    +0.000 C 
BRANCH  16  17
ATOM     17  C   UNL     1      50.639   2.288  17.186  0.00  0.00    +0.000 A 
ATOM     18  C   UNL     1      51.340   1.116  17.465  0.00  0.00    +0.000 A 
ATOM     19  C   UNL     1      52.645   1.204  17.943  0.00  0.00    +0.000 A 
ATOM     20  C   UNL     1      53.220   2.455  18.129  0.00  0.00    +0.000 A 
ATOM     21  C   UNL     1      52.455   3.570  17.837  0.00  0.00    +0.000 A 
ATOM     22  N   UNL     1      51.188   3.516  17.370  0.00  0.00    +0.000 NA
ENDBRANCH  16  17
ENDBRANCH  13  16
ENDBRANCH   5  13
TORSDOF 4
ENDMDL
MODEL 7
REMARK VINA RESULT:    -5.989      4.294      8.374
REMARK INTER + INTRA:          -7.959
REMARK INTER:                  -7.488
REMARK INTRA:                  -0.471
REMARK UNBOUND:                -0.570
REMARK  Name = 
REMARK  4 active torsions:
REMARK  status: ('A' for Active; 'I' for Inactive)
REMARK    1  A    between atoms: C_4  and  C_5
REMARK    2  A    between atoms: C_9  and  C_10
REMARK    3  A    between atoms: C_10  and  C_11
REMARK    4  A    between atoms: C_11  and  C_12
REMARK                            x       y       z     vdW  Elec       q    Type
REMARK                         _______ _______ _______ _____ _____    ______ ____
ROOT
ATOM      1  C   UNL     1      46.420   5.291  13.942  0.00  0.00    +0.000 A 
ATOM      2  N   UNL     1      47.096   6.373  13.515  0.00  0.00    +0.000 NA
ATOM      3  C   UNL     1      48.157   6.731  14.255  0.00  0.00    +0.000 A 
ATOM      4  C   UNL     1      48.574   6.047  15.374  0.00  0.00    +0.000 A 
ATOM      5  C   UNL     1      47.829   4.943  15.753  0.00  0.00    +0.000 A 
ATOM      6  N   UNL     1      46.743   4.579  15.038  0.00  0.00    +0.000 NA
ENDROOT
BRANCH   1  10
ATOM      7  C   UNL     1      43.199   3.827  11.485  0.00  0.00    +0.000 A 
ATOM      8  C   UNL     1      43.091   5.069  12.106  0.00  0.00    +0.000 A 
ATOM      9  C   UNL     1      44.129   5.541  12.919  0.00  0.00    +0.000 A 
ATOM     10  C   UNL     1      45.297   4.786  13.126  0.00  0.00    +0.000 A 
ATOM     11  C   UNL     1      45.371   3.529  12.491  0.00  0.00    +0.000 A 
ATOM     12  C   UNL     1      44.337   3.053  11.680  0.00  0.00    +0.000 A 
ENDBRANCH   1  10
BRANCH   5  13
ATOM     13  C   UNL     1      48.247   4.039  16.917  0.00  0.00    +0.000 C 
ATOM     14  C   UNL     1      48.409   2.559  16.572  0.00  0.00    +0.000 C 
ATOM     15  C   UNL     1      47.258   2.991  17.423  0.00  0.00    +0.000 C 
BRANCH  13  16
ATOM     16  C   UNL     1      49.227   4.624  17.920  0.00  0.00    +0.000 C 
BRANCH  16  17
ATOM     17  C   UNL     1      48.593   5.097  19.207  0.00  0.00    +0.000 A 
ATOM     18  C   UNL     1      48.848   4.461  20.420  0.00  0.00    +0.000 A 
ATOM     19  C   UNL     1      48.335   5.008  21.594  0.00  0.00    +0.000 A 
ATOM     20  C   UNL     1      47.585   6.175  21.530  0.00  0.00    +0.000 A 
ATOM     21  C   UNL     1      47.369   6.741  20.287  0.00  0.00    +0.000 A 
ATOM     22  N   UNL     1      47.855   6.235  19.132  0.00  0.00    +0.000 NA
ENDBRANCH  16  17
ENDBRANCH  13  16
ENDBRANCH   5  13
TORSDOF 4
ENDMDL
MODEL 8
REMARK VINA RESULT:    -5.686      1.902      6.879
REMARK INTER + INTRA:          -7.586
REMARK INTER:                  -6.903
REMARK INTRA:                  -0.683
REMARK UNBOUND:                -0.570
REMARK  Name = 
REMARK  4 active torsions:
REMARK  status: ('A' for Active; 'I' for Inactive)
REMARK    1  A    between atoms: C_4  and  C_5
REMARK    2  A    between atoms: C_9  and  C_10
REMARK    3  A    between atoms: C_10  and  C_11
REMARK    4  A    between atoms: C_11  and  C_12
REMARK                            x       y       z     vdW  Elec       q    Type
REMARK                         _______ _______ _______ _____ _____    ______ ____
ROOT
ATOM      1  C   UNL     1      45.473   6.169  11.342  0.00  0.00    +0.000 A 
ATOM      2  N   UNL     1      44.589   7.183  11.345  0.00  0.00    +0.000 NA
ATOM      3  C   UNL     1      44.924   8.250  12.087  0.00  0.00    +0.000 A 
ATOM      4  C   UNL     1      46.098   8.349  12.798  0.00  0.00    +0.000 A 
ATOM      5  C   UNL     1      46.958   7.266  12.749  0.00  0.00    +0.000 A 
ATOM      6  N   UNL     1      46.632   6.172  12.028  0.00  0.00    +0.000 NA
ENDROOT
BRANCH   1  10
ATOM      7  C   UNL     1      44.656   2.816   8.764  0.00  0.00    +0.000 A 
ATOM      8  C   UNL     1      44.257   2.782  10.098  0.00  0.00    +0.000 A 
ATOM      9  C   UNL     1      44.535   3.862  10.943  0.00  0.00    +0.000 A 
ATOM     10  C   UNL     1      45.214   5.002  10.476  0.00  0.00    +0.000 A 
ATOM     11  C   UNL     1      45.613   5.001   9.124  0.00  0.00    +0.000 A 
ATOM     12  C   UNL     1      45.339   3.924   8.276  0.00  0.00    +0.000 A 
ENDBRANCH   1  10
BRANCH   5  13
ATOM     13  C   UNL     1      48.339   7.291  13.412  0.00  0.00    +0.000 C 
ATOM     14  C   UNL     1      48.444   6.537  14.737  0.00  0.00    +0.000 C 
ATOM     15  C   UNL     1      48.504   8.031  14.738  0.00  0.00    +0.000 C 
BRANCH  13  16
ATOM     16  C   UNL     1      49.543   7.229  12.486  0.00  0.00    +0.000 C 
BRANCH  16  17
ATOM     17  C   UNL     1      50.116   8.578  12.120  0.00  0.00    +0.000 A 
ATOM     18  C   UNL     1      49.371   9.515  11.407  0.00  0.00    +0.000 A 
ATOM     19  C   UNL     1      49.900  10.787  11.198  0.00  0.00    +0.000 A 
ATOM     20  C   UNL     1      51.154  11.094  11.708  0.00  0.00    +0.000 A 
ATOM     21  C   UNL     1      51.835  10.107  12.398  0.00  0.00    +0.000 A 
ATOM     22  N   UNL     1      51.346   8.866  12.618  0.00  0.00    +0.000 NA
ENDBRANCH  16  17
ENDBRANCH  13  16
ENDBRANCH   5  13
TORSDOF 4
ENDMDL
MODEL 9
REMARK VINA RESULT:    -5.633      4.962      8.691
REMARK INTER + INTRA:          -7.520
REMARK INTER:                  -6.840
REMARK INTRA:                  -0.680
REMARK UNBOUND:                -0.570
REMARK  Name = 
REMARK  4 active torsions:
REMARK  status: ('A' for Active; 'I' for Inactive)
REMARK    1  A    between atoms: C_4  and  C_5
REMARK    2  A    between atoms: C_9  and  C_10
REMARK    3  A    between atoms: C_10  and  C_11
REMARK    4  A    between atoms: C_11  and  C_12
REMARK                            x       y       z     vdW  Elec       q    Type
REMARK                         _______ _______ _______ _____ _____    ______ ____
ROOT
ATOM      1  C   UNL     1      47.439   4.694  14.695  0.00  0.00    +0.000 A 
ATOM      2  N   UNL     1      47.241   3.463  15.202  0.00  0.00    +0.000 NA
ATOM      3  C   UNL     1      47.807   3.224  16.395  0.00  0.00    +0.000 A 
ATOM      4  C   UNL     1      48.533   4.158  17.099  0.00  0.00    +0.000 A 
ATOM      5  C   UNL     1      48.695   5.402  16.514  0.00  0.00    +0.000 A 
ATOM      6  N   UNL     1      48.155   5.659  15.303  0.00  0.00    +0.000 NA
ENDROOT
BRANCH   1  10
ATOM      7  C   UNL     1      45.527   5.681  10.963  0.00  0.00    +0.000 A 
ATOM      8  C   UNL     1      46.511   6.518  11.483  0.00  0.00    +0.000 A 
ATOM      9  C   UNL     1      47.124   6.209  12.704  0.00  0.00    +0.000 A 
ATOM     10  C   UNL     1      46.769   5.058  13.430  0.00  0.00    +0.000 A 
ATOM     11  C   UNL     1      45.763   4.237  12.881  0.00  0.00    +0.000 A 
ATOM     12  C   UNL     1      45.148   4.542  11.664  0.00  0.00    +0.000 A 
ENDBRANCH   1  10
BRANCH   5  13
ATOM     13  C   UNL     1      49.392   6.557  17.237  0.00  0.00    +0.000 C 
ATOM     14  C   UNL     1      50.749   6.967  16.664  0.00  0.00    +0.000 C 
ATOM     15  C   UNL     1      50.691   6.276  17.990  0.00  0.00    +0.000 C 
BRANCH  13  16
ATOM     16  C   UNL     1      48.502   7.672  17.762  0.00  0.00    +0.000 C 
BRANCH  16  17
ATOM     17  C   UNL     1      48.167   7.560  19.231  0.00  0.00    +0.000 A 
ATOM     18  C   UNL     1      47.441   6.481  19.730  0.00  0.00    +0.000 A 
ATOM     19  C   UNL     1      47.261   6.362  21.107  0.00  0.00    +0.000 A 
ATOM     20  C   UNL     1      47.811   7.319  21.950  0.00  0.00    +0.000 A 
ATOM     21  C   UNL     1      48.510   8.366  21.376  0.00  0.00    +0.000 A 
ATOM     22  N   UNL     1      48.703   8.505  20.045  0.00  0.00    +0.000 NA
ENDBRANCH  16  17
ENDBRANCH  13  16
ENDBRANCH   5  13
TORSDOF 4
ENDMDL
