MODEL 1
REMARK VINA RESULT:    -7.530      0.000      0.000
REMARK INTER + INTRA:         -10.493
REMARK INTER:                  -9.731
REMARK INTRA:                  -0.763
REMARK UNBOUND:                -0.763
REMARK  Name = 
REMARK  5 active torsions:
REMARK  status: ('A' for Active; 'I' for Inactive)
REMARK    1  A    between atoms: C_2  and  C_4
REMARK    2  A    between atoms: C_8  and  C_9
REMARK    3  A    between atoms: C_9  and  O_10
REMARK    4  A    between atoms: O_10  and  C_11
REMARK    5  A    between atoms: C_16  and  N_17
REMARK                            x       y       z     vdW  Elec       q    Type
REMARK                         _______ _______ _______ _____ _____    ______ ____
ROOT
ATOM      1  C   UNL     1      47.929   6.687  14.018  0.00  0.00    +0.000 A 
ATOM      2  C   UNL     1      47.676   7.977  13.571  0.00  0.00    +0.000 A 
ATOM      3  C   UNL     1      46.483   8.238  12.914  0.00  0.00    +0.000 A 
ATOM      4  F   UNL     1      46.220   9.485  12.500  0.00  0.00    +0.000 F 
ATOM      5  C   UNL     1      45.540   7.234  12.700  0.00  0.00    +0.000 A 
ATOM      6  C   UNL     1      45.773   5.923  13.132  0.00  0.00    +0.000 A 
ATOM      7  C   UNL     1      46.998   5.673  13.769  0.00  0.00    +0.000 A 
ENDROOT
BRANCH   6   8
ATOM      8  N   UNL     1      44.836   4.923  12.955  0.00  0.00    +0.000 N 
ATOM      9  C   UNL     1      45.189   3.583  12.460  0.00  0.00    +0.000 C 
ATOM     10  C   UNL     1      44.440   3.265  11.150  0.00  0.00    +0.000 C 
ATOM     11  N   UNL     1      42.976   3.432  11.264  0.00  0.00    +0.000 NA
ATOM     12  C   UNL     1      42.694   4.813  11.713  0.00  0.00    +0.000 C 
ATOM     13  C   UNL     1      43.395   5.204  13.038  0.00  0.00    +0.000 C 
ATOM     14  H   UNL     1      42.644   2.795  11.989  0.00  0.00    +0.000 HD
ENDBRANCH   6   8
BRANCH   1  15
ATOM     15  O   UNL     1      49.115   6.497  14.674  0.00  0.00    +0.000 OA
BRANCH  15  16
ATOM     16  C   UNL     1      49.141   6.957  16.032  0.00  0.00    +0.000 C 
BRANCH  16  21
ATOM     17  C   UNL     1      49.378   3.557  17.465  0.00  0.00    +0.000 A 
ATOM     18  C   UNL     1      48.711   3.640  18.680  0.00  0.00    +0.000 A 
ATOM     19  C   UNL     1      48.172   4.864  19.050  0.00  0.00    +0.000 A 
ATOM     20  C   UNL     1      48.315   5.955  18.199  0.00  0.00    +0.000 A 
ATOM     21  C   UNL     1      49.017   5.802  17.003  0.00  0.00    +0.000 A 
ATOM     22  N   UNL     1      49.545   4.610  16.613  0.00  0.00    +0.000 NA
BRANCH  17  24
ATOM     23  N   UNL     1      50.929   1.726  17.843  0.00  0.00    +0.000 N 
ATOM     24  C   UNL     1      49.952   2.242  17.036  0.00  0.00    +0.000 C 
ATOM     25  O   UNL     1      49.576   1.654  16.028  0.00  0.00    +0.000 OA
ATOM     26  H   UNL     1      51.329   0.826  17.620  0.00  0.00    +0.000 HD
ATOM     27  H   UNL     1      51.194   2.216  18.689  0.00  0.00    +0.000 HD
ENDBRANCH  17  24
ENDBRANCH  16  21
ENDBRANCH  15  16
ENDBRANCH   1  15
TORSDOF 5
ENDMDL
MODEL 2
REMARK VINA RESULT:    -7.288      1.555      1.954
REMARK INTER + INTRA:         -10.181
REMARK INTER:                  -9.368
REMARK INTRA:                  -0.813
REMARK UNBOUND:                -0.763
REMARK  Name = 
REMARK  5 active torsions:
REMARK  status: ('A' for Active; 'I' for Inactive)
REMARK    1  A    between atoms: C_2  and  C_4
REMARK    2  A    between atoms: C_8  and  C_9
REMARK    3  A    between atoms: C_9  and  O_10
REMARK    4  A    between atoms: O_10  and  C_11
REMARK    5  A    between atoms: C_16  and  N_17
REMARK                            x       y       z     vdW  Elec       q    Type
REMARK                         _______ _______ _______ _____ _____    ______ ____
ROOT
ATOM      1  C   UNL     1      47.353   6.717  12.720  0.00  0.00    +0.000 A 
ATOM      2  C   UNL     1      46.978   8.054  12.729  0.00  0.00    +0.000 A 
ATOM      3  C   UNL     1      45.725   8.403  12.247  0.00  0.00    +0.000 A 
ATOM      4  F   UNL     1      45.345   9.688  12.273  0.00  0.00    +0.000 F 
ATOM      5  C   UNL     1      44.842   7.440  11.761  0.00  0.00    +0.000 A 
ATOM      6  C   UNL     1      45.197   6.086  11.732  0.00  0.00    +0.000 A 
ATOM      7  C   UNL     1      46.479   5.756  12.197  0.00  0.00    +0.000 A 
ENDROOT
BRANCH   6   8
ATOM      8  N   UNL     1      44.323   5.116  11.283  0.00  0.00    +0.000 N 
ATOM      9  C   UNL     1      43.310   4.495  12.151  0.00  0.00    +0.000 C 
ATOM     10  C   UNL     1      43.523   2.970  12.244  0.00  0.00    +0.000 C 
ATOM     11  N   UNL     1      43.580   2.312  10.922  0.00  0.00    +0.000 NA
ATOM     12  C   UNL     1      44.651   2.949  10.125  0.00  0.00    +0.000 C 
ATOM     13  C   UNL     1      44.497   4.482   9.967  0.00  0.00    +0.000 C 
ATOM     14  H   UNL     1      42.693   2.486  10.448  0.00  0.00    +0.000 HD
ENDBRANCH   6   8
BRANCH   1  15
ATOM     15  O   UNL     1      48.593   6.434  13.224  0.00  0.00    +0.000 OA
BRANCH  15  16
ATOM     16  C   UNL     1      49.011   7.264  14.315  0.00  0.00    +0.000 C 
BRANCH  16  21
ATOM     17  C   UNL     1      48.286   4.621  16.797  0.00  0.00    +0.000 A 
ATOM     18  C   UNL     1      48.306   5.273  18.022  0.00  0.00    +0.000 A 
ATOM     19  C   UNL     1      48.581   6.634  18.036  0.00  0.00    +0.000 A 
ATOM     20  C   UNL     1      48.822   7.291  16.835  0.00  0.00    +0.000 A 
ATOM     21  C   UNL     1      48.806   6.566  15.644  0.00  0.00    +0.000 A 
ATOM     22  N   UNL     1      48.529   5.234  15.602  0.00  0.00    +0.000 NA
BRANCH  17  24
ATOM     23  N   UNL     1      46.988   2.733  17.604  0.00  0.00    +0.000 N 
ATOM     24  C   UNL     1      47.973   3.156  16.755  0.00  0.00    +0.000 C 
ATOM     25  O   UNL     1      48.554   2.377  16.008  0.00  0.00    +0.000 OA
ATOM     26  H   UNL     1      46.713   1.762  17.595  0.00  0.00    +0.000 HD
ATOM     27  H   UNL     1      46.499   3.405  18.184  0.00  0.00    +0.000 HD
ENDBRANCH  17  24
ENDBRANCH  16  21
ENDBRANCH  15  16
ENDBRANCH   1  15
TORSDOF 5
ENDMDL
MODEL 3
REMARK VINA RESULT:    -6.565      2.484      3.827
REMARK INTER + INTRA:          -9.246
REMARK INTER:                  -8.582
REMARK INTRA:                  -0.664
REMARK UNBOUND:                -0.763
REMARK  Name = 
REMARK  5 active torsions:
REMARK  status: ('A' for Active; 'I' for Inactive)
REMARK    1  A    between atoms: C_2  and  C_4
REMARK    2  A    between atoms: C_8  and  C_9
REMARK    3  A    between atoms: C_9  and  O_10
REMARK    4  A    between atoms: O_10  and  C_11
REMARK    5  A    between atoms: C_16  and  N_17
REMARK                            x       y       z     vdW  Elec       q    Type
REMARK                         _______ _______ _______ _____ _____    ______ ____
ROOT
ATOM      1  C   UNL     1      46.757   3.926  13.582  0.00  0.00    +0.000 A 
ATOM      2  C   UNL     1      45.834   3.157  12.886  0.00  0.00    +0.000 A 
ATOM      3  C   UNL     1      45.088   3.751  11.879  0.00  0.00    +0.000 A 
ATOM      4  F   UNL     1      44.211   3.011  11.186  0.00  0.00    +0.000 F 
ATOM      5  C   UNL     1      45.252   5.097  11.555  0.00  0.00    +0.000 A 
ATOM      6  C   UNL     1      46.170   5.898  12.246  0.00  0.00    +0.000 A 
ATOM      7  C   UNL     1      46.893   5.286  13.280  0.00  0.00    +0.000 A 
ENDROOT
BRANCH   6   8
ATOM      8  N   UNL     1      46.366   7.225  11.917  0.00  0.00    +0.000 N 
ATOM      9  C   UNL     1      47.667   7.896  12.068  0.00  0.00    +0.000 C 
ATOM     10  C   UNL     1      47.560   9.094  13.033  0.00  0.00    +0.000 C 
ATOM     11  N   UNL     1      46.499  10.050  12.656  0.00  0.00    +0.000 NA
ATOM     12  C   UNL     1      45.215   9.319  12.575  0.00  0.00    +0.000 C 
ATOM     13  C   UNL     1      45.234   8.110  11.607  0.00  0.00    +0.000 C 
ATOM     14  H   UNL     1      46.714  10.405  11.724  0.00  0.00    +0.000 HD
ENDBRANCH   6   8
BRANCH   1  15
ATOM     15  O   UNL     1      47.474   3.279  14.551  0.00  0.00    +0.000 OA
BRANCH  15  16
ATOM     16  C   UNL     1      47.214   3.710  15.893  0.00  0.00    +0.000 C 
BRANCH  16  21
ATOM     17  C   UNL     1      50.498   3.130  17.490  0.00  0.00    +0.000 A 
ATOM     18  C   UNL     1      50.807   4.334  18.107  0.00  0.00    +0.000 A 
ATOM     19  C   UNL     1      49.907   5.384  17.984  0.00  0.00    +0.000 A 
ATOM     20  C   UNL     1      48.737   5.195  17.257  0.00  0.00    +0.000 A 
ATOM     21  C   UNL     1      48.503   3.963  16.646  0.00  0.00    +0.000 A 
ATOM     22  N   UNL     1      49.365   2.915  16.761  0.00  0.00    +0.000 NA
BRANCH  17  24
ATOM     23  N   UNL     1      52.477   2.153  18.505  0.00  0.00    +0.000 N 
ATOM     24  C   UNL     1      51.445   1.977  17.625  0.00  0.00    +0.000 C 
ATOM     25  O   UNL     1      51.311   0.935  16.994  0.00  0.00    +0.000 OA
ATOM     26  H   UNL     1      53.127   1.397  18.660  0.00  0.00    +0.000 HD
ATOM     27  H   UNL     1      52.542   3.011  19.040  0.00  0.00    +0.000 HD
ENDBRANCH  17  24
ENDBRANCH  16  21
ENDBRANCH  15  16
ENDBRANCH   1  15
TORSDOF 5
ENDMDL
MODEL 4
REMARK VINA RESULT:    -6.517      5.592      9.246
REMARK INTER + INTRA:          -9.184
REMARK INTER:                  -8.629
REMARK INTRA:                  -0.555
REMARK UNBOUND:                -0.763
REMARK  Name = 
REMARK  5 active torsions:
REMARK  status: ('A' for Active; 'I' for Inactive)
REMARK    1  A    between atoms: C_2  and  C_4
REMARK    2  A    between atoms: C_8  and  C_9
REMARK    3  A    between atoms: C_9  and  O_10
REMARK    4  A    between atoms: O_10  and  C_11
REMARK    5  A    between atoms: C_16  and  N_17
REMARK                            x       y       z     vdW  Elec       q    Type
REMARK                         _______ _______ _______ _____ _____    ______ ____
ROOT
ATOM      1  C   UNL     1      45.091   4.130   8.968  0.00  0.00    +0.000 A 
ATOM      2  C   UNL     1      44.366   3.012   9.359  0.00  0.00    +0.000 A 
ATOM      3  C   UNL     1      44.039   2.858  10.698  0.00  0.00    +0.000 A 
ATOM      4  F   UNL     1      43.320   1.794  11.082  0.00  0.00    +0.000 F 
ATOM      5  C   UNL     1      44.423   3.802  11.650  0.00  0.00    +0.000 A 
ATOM      6  C   UNL     1      45.163   4.934  11.285  0.00  0.00    +0.000 A 
ATOM      7  C   UNL     1      45.507   5.057   9.930  0.00  0.00    +0.000 A 
ENDROOT
BRANCH   6   8
ATOM      8  N   UNL     1      45.524   5.893  12.209  0.00  0.00    +0.000 N 
ATOM      9  C   UNL     1      45.347   7.335  11.970  0.00  0.00    +0.000 C 
ATOM     10  C   UNL     1      46.699   8.073  12.027  0.00  0.00    +0.000 C 
ATOM     11  N   UNL     1      47.445   7.821  13.277  0.00  0.00    +0.000 NA
ATOM     12  C   UNL     1      47.633   6.361  13.425  0.00  0.00    +0.000 C 
ATOM     13  C   UNL     1      46.315   5.547  13.400  0.00  0.00    +0.000 C 
ATOM     14  H   UNL     1      46.869   8.142  14.055  0.00  0.00    +0.000 HD
ENDBRANCH   6   8
BRANCH   1  15
ATOM     15  O   UNL     1      45.366   4.233   7.632  0.00  0.00    +0.000 OA
BRANCH  15  16
ATOM     16  C   UNL     1      46.723   3.953   7.264  0.00  0.00    +0.000 C 
BRANCH  16  21
ATOM     17  C   UNL     1      46.864   1.024   5.011  0.00  0.00    +0.000 A 
ATOM     18  C   UNL     1      47.023  -0.064   5.858  0.00  0.00    +0.000 A 
ATOM     19  C   UNL     1      47.099   0.173   7.224  0.00  0.00    +0.000 A 
ATOM     20  C   UNL     1      47.013   1.479   7.692  0.00  0.00    +0.000 A 
ATOM     21  C   UNL     1      46.875   2.525   6.781  0.00  0.00    +0.000 A 
ATOM     22  N   UNL     1      46.787   2.318   5.438  0.00  0.00    +0.000 NA
BRANCH  17  24
ATOM     23  N   UNL     1      45.579   1.165   2.955  0.00  0.00    +0.000 N 
ATOM     24  C   UNL     1      46.760   0.791   3.535  0.00  0.00    +0.000 C 
ATOM     25  O   UNL     1      47.670   0.299   2.878  0.00  0.00    +0.000 OA
ATOM     26  H   UNL     1      45.466   1.061   1.957  0.00  0.00    +0.000 HD
ATOM     27  H   UNL     1      44.858   1.602   3.516  0.00  0.00    +0.000 HD
ENDBRANCH  17  24
ENDBRANCH  16  21
ENDBRANCH  15  16
ENDBRANCH   1  15
TORSDOF 5
ENDMDL
MODEL 5
REMARK VINA RESULT:    -6.380      3.331      7.937
REMARK INTER + INTRA:          -9.008
REMARK INTER:                  -8.398
REMARK INTRA:                  -0.610
REMARK UNBOUND:                -0.763
REMARK  Name = 
REMARK  5 active torsions:
REMARK  status: ('A' for Active; 'I' for Inactive)
REMARK    1  A    between atoms: C_2  and  C_4
REMARK    2  A    between atoms: C_8  and  C_9
REMARK    3  A    between atoms: C_9  and  O_10
REMARK    4  A    between atoms: O_10  and  C_11
REMARK    5  A    between atoms: C_16  and  N_17
REMARK                            x       y       z     vdW  Elec       q    Type
REMARK                         _______ _______ _______ _____ _____    ______ ____
ROOT
ATOM      1  C   UNL     1      47.584   3.889  16.448  0.00  0.00    +0.000 A 
ATOM      2  C   UNL     1      48.459   2.811  16.421  0.00  0.00    +0.000 A 
ATOM      3  C   UNL     1      49.469   2.742  17.370  0.00  0.00    +0.000 A 
ATOM      4  F   UNL     1      50.304   1.694  17.366  0.00  0.00    +0.000 F 
ATOM      5  C   UNL     1      49.615   3.729  18.344  0.00  0.00    +0.000 A 
ATOM      6  C   UNL     1      48.752   4.831  18.389  0.00  0.00    +0.000 A 
ATOM      7  C   UNL     1      47.756   4.896  17.403  0.00  0.00    +0.000 A 
ENDROOT
BRANCH   6   8
ATOM      8  N   UNL     1      48.864   5.801  19.365  0.00  0.00    +0.000 N 
ATOM      9  C   UNL     1      47.694   6.427  20.001  0.00  0.00    +0.000 C 
ATOM     10  C   UNL     1      47.690   7.951  19.768  0.00  0.00    +0.000 C 
ATOM     11  N   UNL     1      48.947   8.605  20.187  0.00  0.00    +0.000 NA
ATOM     12  C   UNL     1      50.072   7.963  19.470  0.00  0.00    +0.000 C 
ATOM     13  C   UNL     1      50.158   6.429  19.672  0.00  0.00    +0.000 C 
ATOM     14  H   UNL     1      49.073   8.431  21.184  0.00  0.00    +0.000 HD
ENDBRANCH   6   8
BRANCH   1  15
ATOM     15  O   UNL     1      46.600   3.890  15.498  0.00  0.00    +0.000 OA
BRANCH  15  16
ATOM     16  C   UNL     1      47.062   3.885  14.140  0.00  0.00    +0.000 C 
BRANCH  16  21
ATOM     17  C   UNL     1      44.461   5.487  12.056  0.00  0.00    +0.000 A 
ATOM     18  C   UNL     1      45.004   6.712  11.695  0.00  0.00    +0.000 A 
ATOM     19  C   UNL     1      46.271   7.032  12.165  0.00  0.00    +0.000 A 
ATOM     20  C   UNL     1      46.946   6.122  12.971  0.00  0.00    +0.000 A 
ATOM     21  C   UNL     1      46.329   4.919  13.310  0.00  0.00    +0.000 A 
ATOM     22  N   UNL     1      45.093   4.578  12.854  0.00  0.00    +0.000 NA
BRANCH  17  24
ATOM     23  N   UNL     1      42.124   6.053  11.710  0.00  0.00    +0.000 N 
ATOM     24  C   UNL     1      43.103   5.112  11.546  0.00  0.00    +0.000 C 
ATOM     25  O   UNL     1      42.872   4.034  11.011  0.00  0.00    +0.000 OA
ATOM     26  H   UNL     1      41.197   5.867  11.357  0.00  0.00    +0.000 HD
ATOM     27  H   UNL     1      42.351   6.950  12.124  0.00  0.00    +0.000 HD
ENDBRANCH  17  24
ENDBRANCH  16  21
ENDBRANCH  15  16
ENDBRANCH   1  15
TORSDOF 5
ENDMDL
MODEL 6
REMARK VINA RESULT:    -6.366      1.787      2.085
REMARK INTER + INTRA:          -8.990
REMARK INTER:                  -8.338
REMARK INTRA:                  -0.652
REMARK UNBOUND:                -0.763
REMARK  Name = 
REMARK  5 active torsions:
REMARK  status: ('A' for Active; 'I' for Inactive)
REMARK    1  A    between atoms: C_2  and  C_4
REMARK    2  A    between atoms: C_8  and  C_9
REMARK    3  A    between atoms: C_9  and  O_10
REMARK    4  A    between atoms: O_10  and  C_11
REMARK    5  A    between atoms: C_16  and  N_17
REMARK                            x       y       z     vdW  Elec       q    Type
REMARK                         _______ _______ _______ _____ _____    ______ ____
ROOT
ATOM      1  C   UNL     1      47.862   5.675  14.730  0.00  0.00    +0.000 A 
ATOM      2  C   UNL     1      48.607   6.662  14.098  0.00  0.00    +0.000 A 
ATOM      3  C   UNL     1      48.204   7.111  12.848  0.00  0.00    +0.000 A 
ATOM      4  F   UNL     1      48.903   8.079  12.241  0.00  0.00    +0.000 F 
ATOM      5  C   UNL     1      47.071   6.593  12.224  0.00  0.00    +0.000 A 
ATOM      6  C   UNL     1      46.306   5.591  12.835  0.00  0.00    +0.000 A 
ATOM      7  C   UNL     1      46.746   5.131  14.085  0.00  0.00    +0.000 A 
ENDROOT
BRANCH   6   8
ATOM      8  N   UNL     1      45.163   5.088  12.244  0.00  0.00    +0.000 N 
ATOM      9  C   UNL     1      44.644   5.593  10.963  0.00  0.00    +0.000 C 
ATOM     10  C   UNL     1      43.217   6.153  11.129  0.00  0.00    +0.000 C 
ATOM     11  N   UNL     1      42.284   5.189  11.749  0.00  0.00    +0.000 NA
ATOM     12  C   UNL     1      42.843   4.766  13.052  0.00  0.00    +0.000 C 
ATOM     13  C   UNL     1      44.270   4.171  12.967  0.00  0.00    +0.000 C 
ATOM     14  H   UNL     1      42.240   4.366  11.147  0.00  0.00    +0.000 HD
ENDBRANCH   6   8
BRANCH   1  15
ATOM     15  O   UNL     1      48.299   5.288  15.967  0.00  0.00    +0.000 OA
BRANCH  15  16
ATOM     16  C   UNL     1      49.264   6.159  16.573  0.00  0.00    +0.000 C 
BRANCH  16  21
ATOM     17  C   UNL     1      51.354   3.307  17.655  0.00  0.00    +0.000 A 
ATOM     18  C   UNL     1      52.335   3.874  18.457  0.00  0.00    +0.000 A 
ATOM     19  C   UNL     1      52.318   5.250  18.641  0.00  0.00    +0.000 A 
ATOM     20  C   UNL     1      51.327   6.006  18.024  0.00  0.00    +0.000 A 
ATOM     21  C   UNL     1      50.386   5.370  17.214  0.00  0.00    +0.000 A 
ATOM     22  N   UNL     1      50.376   4.022  17.027  0.00  0.00    +0.000 NA
BRANCH  17  24
ATOM     23  N   UNL     1      52.250   1.115  18.196  0.00  0.00    +0.000 N 
ATOM     24  C   UNL     1      51.342   1.822  17.457  0.00  0.00    +0.000 C 
ATOM     25  O   UNL     1      50.569   1.265  16.686  0.00  0.00    +0.000 OA
ATOM     26  H   UNL     1      52.265   0.108  18.127  0.00  0.00    +0.000 HD
ATOM     27  H   UNL     1      52.852   1.599  18.851  0.00  0.00    +0.000 HD
ENDBRANCH  17  24
ENDBRANCH  16  21
ENDBRANCH  15  16
ENDBRANCH   1  15
TORSDOF 5
ENDMDL
MODEL 7
REMARK VINA RESULT:    -6.360      1.553      1.837
REMARK INTER + INTRA:          -8.982
REMARK INTER:                  -8.115
REMARK INTRA:                  -0.866
REMARK UNBOUND:                -0.763
REMARK  Name = 
REMARK  5 active torsions:
REMARK  status: ('A' for Active; 'I' for Inactive)
REMARK    1  A    between atoms: C_2  and  C_4
REMARK    2  A    between atoms: C_8  and  C_9
REMARK    3  A    between atoms: C_9  and  O_10
REMARK    4  A    between atoms: O_10  and  C_11
REMARK    5  A    between atoms: C_16  and  N_17
REMARK                            x       y       z     vdW  Elec       q    Type
REMARK                         _______ _______ _______ _____ _____    ______ ____
ROOT
ATOM      1  C   UNL     1      48.749   7.582  14.389  0.00  0.00    +0.000 A 
ATOM      2  C   UNL     1      49.663   7.917  13.398  0.00  0.00    +0.000 A 
ATOM      3  C   UNL     1      49.365   7.611  12.078  0.00  0.00    +0.000 A 
ATOM      4  F   UNL     1      50.231   7.951  11.113  0.00  0.00    +0.000 F 
ATOM      5  C   UNL     1      48.170   6.981  11.733  0.00  0.00    +0.000 A 
ATOM      6  C   UNL     1      47.235   6.625  12.712  0.00  0.00    +0.000 A 
ATOM      7  C   UNL     1      47.567   6.917  14.044  0.00  0.00    +0.000 A 
ENDROOT
BRANCH   6   8
ATOM      8  N   UNL     1      46.033   6.028  12.385  0.00  0.00    +0.000 N 
ATOM      9  C   UNL     1      45.437   4.949  13.189  0.00  0.00    +0.000 C 
ATOM     10  C   UNL     1      45.261   3.668  12.349  0.00  0.00    +0.000 C 
ATOM     11  N   UNL     1      44.505   3.893  11.099  0.00  0.00    +0.000 NA
ATOM     12  C   UNL     1      45.189   4.949  10.320  0.00  0.00    +0.000 C 
ATOM     13  C   UNL     1      45.385   6.279  11.089  0.00  0.00    +0.000 C 
ATOM     14  H   UNL     1      43.580   4.243  11.353  0.00  0.00    +0.000 HD
ENDBRANCH   6   8
BRANCH   1  15
ATOM     15  O   UNL     1      49.093   7.926  15.667  0.00  0.00    +0.000 OA
BRANCH  15  16
ATOM     16  C   UNL     1      50.088   7.093  16.276  0.00  0.00    +0.000 C 
BRANCH  16  21
ATOM     17  C   UNL     1      49.332   3.632  17.335  0.00  0.00    +0.000 A 
ATOM     18  C   UNL     1      48.258   3.757  18.205  0.00  0.00    +0.000 A 
ATOM     19  C   UNL     1      47.769   5.030  18.465  0.00  0.00    +0.000 A 
ATOM     20  C   UNL     1      48.364   6.125  17.850  0.00  0.00    +0.000 A 
ATOM     21  C   UNL     1      49.454   5.925  17.003  0.00  0.00    +0.000 A 
ATOM     22  N   UNL     1      49.945   4.687  16.724  0.00  0.00    +0.000 NA
BRANCH  17  24
ATOM     23  N   UNL     1      50.801   1.780  17.895  0.00  0.00    +0.000 N 
ATOM     24  C   UNL     1      49.865   2.267  17.024  0.00  0.00    +0.000 C 
ATOM     25  O   UNL     1      49.492   1.616  16.055  0.00  0.00    +0.000 OA
ATOM     26  H   UNL     1      51.171   0.851  17.753  0.00  0.00    +0.000 HD
ATOM     27  H   UNL     1      51.064   2.324  18.708  0.00  0.00    +0.000 HD
ENDBRANCH  17  24
ENDBRANCH  16  21
ENDBRANCH  15  16
ENDBRANCH   1  15
TORSDOF 5
ENDMDL
MODEL 8
REMARK VINA RESULT:    -5.875      2.334      2.973
REMARK INTER + INTRA:          -8.355
REMARK INTER:                  -7.825
REMARK INTRA:                  -0.530
REMARK UNBOUND:                -0.763
REMARK  Name = 
REMARK  5 active torsions:
REMARK  status: ('A' for Active; 'I' for Inactive)
REMARK    1  A    between atoms: C_2  and  C_4
REMARK    2  A    between atoms: C_8  and  C_9
REMARK    3  A    between atoms: C_9  and  O_10
REMARK    4  A    between atoms: O_10  and  C_11
REMARK    5  A    between atoms: C_16  and  N_17
REMARK                            x       y       z     vdW  Elec       q    Type
REMARK                         _______ _______ _______ _____ _____    ______ ____
ROOT
ATOM      1  C   UNL     1      47.807   5.884  14.009  0.00  0.00    +0.000 A 
ATOM      2  C   UNL     1      48.592   6.823  13.352  0.00  0.00    +0.000 A 
ATOM      3  C   UNL     1      48.179   7.297  12.115  0.00  0.00    +0.000 A 
ATOM      4  F   UNL     1      48.917   8.220  11.484  0.00  0.00    +0.000 F 
ATOM      5  C   UNL     1      46.996   6.850  11.528  0.00  0.00    +0.000 A 
ATOM      6  C   UNL     1      46.190   5.897  12.164  0.00  0.00    +0.000 A 
ATOM      7  C   UNL     1      46.640   5.410  13.400  0.00  0.00    +0.000 A 
ENDROOT
BRANCH   6   8
ATOM      8  N   UNL     1      45.001   5.467  11.610  0.00  0.00    +0.000 N 
ATOM      9  C   UNL     1      43.691   5.757  12.216  0.00  0.00    +0.000 C 
ATOM     10  C   UNL     1      42.947   4.454  12.569  0.00  0.00    +0.000 C 
ATOM     11  N   UNL     1      42.819   3.530  11.423  0.00  0.00    +0.000 NA
ATOM     12  C   UNL     1      44.173   3.242  10.899  0.00  0.00    +0.000 C 
ATOM     13  C   UNL     1      44.980   4.503  10.500  0.00  0.00    +0.000 C 
ATOM     14  H   UNL     1      42.298   4.012  10.689  0.00  0.00    +0.000 HD
ENDBRANCH   6   8
BRANCH   1  15
ATOM     15  O   UNL     1      48.259   5.470  15.232  0.00  0.00    +0.000 OA
BRANCH  15  16
ATOM     16  C   UNL     1      49.015   6.443  15.965  0.00  0.00    +0.000 C 
BRANCH  16  21
ATOM     17  C   UNL     1      49.229   5.572  19.552  0.00  0.00    +0.000 A 
ATOM     18  C   UNL     1      50.463   4.950  19.690  0.00  0.00    +0.000 A 
ATOM     19  C   UNL     1      51.252   4.799  18.558  0.00  0.00    +0.000 A 
ATOM     20  C   UNL     1      50.785   5.273  17.337  0.00  0.00    +0.000 A 
ATOM     21  C   UNL     1      49.526   5.869  17.270  0.00  0.00    +0.000 A 
ATOM     22  N   UNL     1      48.739   6.038  18.367  0.00  0.00    +0.000 NA
BRANCH  17  24
ATOM     23  N   UNL     1      47.021   5.653  20.559  0.00  0.00    +0.000 N 
ATOM     24  C   UNL     1      48.369   5.763  20.763  0.00  0.00    +0.000 C 
ATOM     25  O   UNL     1      48.832   6.001  21.873  0.00  0.00    +0.000 OA
ATOM     26  H   UNL     1      46.394   5.740  21.346  0.00  0.00    +0.000 HD
ATOM     27  H   UNL     1      46.667   5.420  19.639  0.00  0.00    +0.000 HD
ENDBRANCH  17  24
ENDBRANCH  16  21
ENDBRANCH  15  16
ENDBRANCH   1  15
TORSDOF 5
ENDMDL
MODEL 9
REMARK VINA RESULT:    -5.589      2.860      7.190
REMARK INTER + INTRA:          -7.985
REMARK INTER:                  -7.282
REMARK INTRA:                  -0.704
REMARK UNBOUND:                -0.763
REMARK  Name = 
REMARK  5 active torsions:
REMARK  status: ('A' for Active; 'I' for Inactive)
REMARK    1  A    between atoms: C_2  and  C_4
REMARK    2  A    between atoms: C_8  and  C_9
REMARK    3  A    between atoms: C_9  and  O_10
REMARK    4  A    between atoms: O_10  and  C_11
REMARK    5  A    between atoms: C_16  and  N_17
REMARK                            x       y       z     vdW  Elec       q    Type
REMARK                         _______ _______ _______ _____ _____    ______ ____
ROOT
ATOM      1  C   UNL     1      47.131   7.542  12.982  0.00  0.00    +0.000 A 
ATOM      2  C   UNL     1      47.843   7.558  11.790  0.00  0.00    +0.000 A 
ATOM      3  C   UNL     1      49.228   7.623  11.836  0.00  0.00    +0.000 A 
ATOM      4  F   UNL     1      49.925   7.616  10.692  0.00  0.00    +0.000 F 
ATOM      5  C   UNL     1      49.910   7.669  13.051  0.00  0.00    +0.000 A 
ATOM      6  C   UNL     1      49.216   7.663  14.268  0.00  0.00    +0.000 A 
ATOM      7  C   UNL     1      47.816   7.625  14.199  0.00  0.00    +0.000 A 
ENDROOT
BRANCH   6   8
ATOM      8  N   UNL     1      49.877   7.677  15.480  0.00  0.00    +0.000 N 
ATOM      9  C   UNL     1      51.343   7.766  15.585  0.00  0.00    +0.000 C 
ATOM     10  C   UNL     1      51.918   6.536  16.317  0.00  0.00    +0.000 C 
ATOM     11  N   UNL     1      51.295   6.303  17.637  0.00  0.00    +0.000 NA
ATOM     12  C   UNL     1      49.833   6.171  17.449  0.00  0.00    +0.000 C 
ATOM     13  C   UNL     1      49.174   7.379  16.737  0.00  0.00    +0.000 C 
ATOM     14  H   UNL     1      51.462   7.129  18.212  0.00  0.00    +0.000 HD
ENDBRANCH   6   8
BRANCH   1  15
ATOM     15  O   UNL     1      45.770   7.459  12.870  0.00  0.00    +0.000 OA
BRANCH  15  16
ATOM     16  C   UNL     1      45.287   7.066  11.578  0.00  0.00    +0.000 C 
BRANCH  16  21
ATOM     17  C   UNL     1      44.439   3.640  10.474  0.00  0.00    +0.000 A 
ATOM     18  C   UNL     1      43.734   3.092  11.537  0.00  0.00    +0.000 A 
ATOM     19  C   UNL     1      43.540   3.874  12.668  0.00  0.00    +0.000 A 
ATOM     20  C   UNL     1      44.050   5.167  12.696  0.00  0.00    +0.000 A 
ATOM     21  C   UNL     1      44.766   5.643  11.599  0.00  0.00    +0.000 A 
ATOM     22  N   UNL     1      44.961   4.901  10.475  0.00  0.00    +0.000 NA
BRANCH  17  24
ATOM     23  N   UNL     1      45.062   3.510   8.130  0.00  0.00    +0.000 N 
ATOM     24  C   UNL     1      44.645   2.822   9.236  0.00  0.00    +0.000 C 
ATOM     25  O   UNL     1      44.457   1.611   9.205  0.00  0.00    +0.000 OA
ATOM     26  H   UNL     1      45.248   3.005   7.276  0.00  0.00    +0.000 HD
ATOM     27  H   UNL     1      45.244   4.505   8.194  0.00  0.00    +0.000 HD
ENDBRANCH  17  24
ENDBRANCH  16  21
ENDBRANCH  15  16
ENDBRANCH   1  15
TORSDOF 5
ENDMDL
