MODEL 1
REMARK VINA RESULT:    -8.180      0.000      0.000
REMARK INTER + INTRA:         -12.513
REMARK INTER:                 -11.528
REMARK INTRA:                  -0.986
REMARK UNBOUND:                -0.986
REMARK  Name = 
REMARK  8 active torsions:
REMARK  status: ('A' for Active; 'I' for Inactive)
REMARK    1  A    between atoms: C_1  and  N_2
REMARK    2  A    between atoms: C_4  and  C_5
REMARK    3  A    between atoms: N_7  and  C_8
REMARK    4  A    between atoms: C_8  and  C_9
REMARK    5  A    between atoms: C_12  and  N_13
REMARK    6  A    between atoms: N_13  and  C_14
REMARK    7  A    between atoms: C_14  and  C_15
REMARK    8  A    between atoms: C_15  and  C_16
REMARK                            x       y       z     vdW  Elec       q    Type
REMARK                         _______ _______ _______ _____ _____    ______ ____
ROOT
ATOM      1  C   UNL     1      47.399   8.362  13.535  0.00  0.00    +0.000 C 
ENDROOT
BRANCH   1   2
ATOM      2  C   UNL     1      46.433   7.538  12.734  0.00  0.00    +0.000 A 
ATOM      3  C   UNL     1      45.225   8.080  12.304  0.00  0.00    +0.000 A 
ATOM      4  C   UNL     1      44.335   7.317  11.538  0.00  0.00    +0.000 A 
ATOM      5  C   UNL     1      44.613   5.982  11.225  0.00  0.00    +0.000 A 
ATOM      6  C   UNL     1      45.832   5.450  11.649  0.00  0.00    +0.000 A 
ATOM      7  C   UNL     1      46.734   6.215  12.400  0.00  0.00    +0.000 A 
BRANCH   5   8
ATOM      8  N   UNL     1      43.769   5.204  10.452  0.00  0.00    +0.000 N 
ATOM      9  H   UNL     1      42.790   5.463  10.398  0.00  0.00    +0.000 HD
BRANCH   8  10
ATOM     10  C   UNL     1      44.219   3.954   9.863  0.00  0.00    +0.000 C 
BRANCH  10  11
ATOM     11  C   UNL     1      44.642   4.150   8.408  0.00  0.00    +0.000 C 
BRANCH  11  12
ATOM     12  C   UNL     1      45.657   3.118   7.998  0.00  0.00    +0.000 A 
ATOM     13  C   UNL     1      46.680   3.407   7.092  0.00  0.00    +0.000 A 
ATOM     14  C   UNL     1      47.576   2.406   6.726  0.00  0.00    +0.000 A 
ATOM     15  C   UNL     1      47.411   1.144   7.271  0.00  0.00    +0.000 A 
ATOM     16  N   UNL     1      46.425   0.824   8.136  0.00  0.00    +0.000 NA
ATOM     17  C   UNL     1      45.575   1.814   8.479  0.00  0.00    +0.000 A 
ENDBRANCH  11  12
ENDBRANCH  10  11
ENDBRANCH   8  10
ENDBRANCH   5   8
ENDBRANCH   1   2
BRANCH   1  20
ATOM     18  C   UNL     1      48.991   7.101  14.889  0.00  0.00    +0.000 C 
ATOM     19  O   UNL     1      49.757   7.029  13.936  0.00  0.00    +0.000 OA
ATOM     20  N   UNL     1      47.764   7.725  14.780  0.00  0.00    +0.000 N 
ATOM     21  H   UNL     1      47.165   7.824  15.586  0.00  0.00    +0.000 HD
BRANCH  18  25
ATOM     22  C   UNL     1      50.932   6.569  19.461  0.00  0.00    +0.000 C 
ATOM     23  N   UNL     1      50.168   6.316  18.259  0.00  0.00    +0.000 N 
ATOM     24  C   UNL     1      50.167   7.099  17.137  0.00  0.00    +0.000 A 
ATOM     25  C   UNL     1      49.304   6.540  16.200  0.00  0.00    +0.000 A 
ATOM     26  C   UNL     1      48.763   5.349  16.805  0.00  0.00    +0.000 A 
ATOM     27  C   UNL     1      47.889   4.305  16.492  0.00  0.00    +0.000 A 
ATOM     28 CL   UNL     1      47.139   4.189  14.979  0.00  0.00    +0.000 Cl
ATOM     29  N   UNL     1      47.640   3.299  17.347  0.00  0.00    +0.000 NA
ATOM     30  C   UNL     1      48.254   3.343  18.533  0.00  0.00    +0.000 A 
ATOM     31  N   UNL     1      49.111   4.275  18.980  0.00  0.00    +0.000 NA
ATOM     32  C   UNL     1      49.330   5.249  18.074  0.00  0.00    +0.000 A 
ENDBRANCH  18  25
ENDBRANCH   1  20
TORSDOF 7
ENDMDL
MODEL 2
REMARK VINA RESULT:    -7.930      2.129      2.769
REMARK INTER + INTRA:         -12.161
REMARK INTER:                 -11.336
REMARK INTRA:                  -0.825
REMARK UNBOUND:                -0.986
REMARK  Name = 
REMARK  8 active torsions:
REMARK  status: ('A' for Active; 'I' for Inactive)
REMARK    1  A    between atoms: C_1  and  N_2
REMARK    2  A    between atoms: C_4  and  C_5
REMARK    3  A    between atoms: N_7  and  C_8
REMARK    4  A    between atoms: C_8  and  C_9
REMARK    5  A    between atoms: C_12  and  N_13
REMARK    6  A    between atoms: N_13  and  C_14
REMARK    7  A    between atoms: C_14  and  C_15
REMARK    8  A    between atoms: C_15  and  C_16
REMARK                            x       y       z     vdW  Elec       q    Type
REMARK                         _______ _______ _______ _____ _____    ______ ____
ROOT
ATOM      1  C   UNL     1      48.286   6.720  14.021  0.00  0.00    +0.000 C 
ENDROOT
BRANCH   1   2
ATOM      2  C   UNL     1      47.170   6.153  13.193  0.00  0.00    +0.000 A 
ATOM      3  C   UNL     1      46.447   5.050  13.637  0.00  0.00    +0.000 A 
ATOM      4  C   UNL     1      45.391   4.537  12.872  0.00  0.00    +0.000 A 
ATOM      5  C   UNL     1      45.067   5.086  11.628  0.00  0.00    +0.000 A 
ATOM      6  C   UNL     1      45.790   6.200  11.195  0.00  0.00    +0.000 A 
ATOM      7  C   UNL     1      46.834   6.728  11.965  0.00  0.00    +0.000 A 
BRANCH   5   8
ATOM      8  N   UNL     1      44.017   4.620  10.855  0.00  0.00    +0.000 N 
ATOM      9  H   UNL     1      43.091   4.994  11.026  0.00  0.00    +0.000 HD
BRANCH   8  10
ATOM     10  C   UNL     1      44.190   3.508   9.936  0.00  0.00    +0.000 C 
BRANCH  10  11
ATOM     11  C   UNL     1      44.707   3.988   8.579  0.00  0.00    +0.000 C 
BRANCH  11  12
ATOM     12  C   UNL     1      45.697   3.013   8.004  0.00  0.00    +0.000 A 
ATOM     13  C   UNL     1      46.539   3.354   6.943  0.00  0.00    +0.000 A 
ATOM     14  C   UNL     1      47.417   2.402   6.430  0.00  0.00    +0.000 A 
ATOM     15  C   UNL     1      47.414   1.136   6.990  0.00  0.00    +0.000 A 
ATOM     16  N   UNL     1      46.604   0.766   8.004  0.00  0.00    +0.000 NA
ATOM     17  C   UNL     1      45.767   1.709   8.486  0.00  0.00    +0.000 A 
ENDBRANCH  11  12
ENDBRANCH  10  11
ENDBRANCH   8  10
ENDBRANCH   5   8
ENDBRANCH   1   2
BRANCH   1  20
ATOM     18  C   UNL     1      49.104   6.343  16.290  0.00  0.00    +0.000 C 
ATOM     19  O   UNL     1      50.241   6.189  15.862  0.00  0.00    +0.000 OA
ATOM     20  N   UNL     1      48.043   6.584  15.440  0.00  0.00    +0.000 N 
ATOM     21  H   UNL     1      47.120   6.762  15.807  0.00  0.00    +0.000 HD
BRANCH  18  25
ATOM     22  C   UNL     1      48.619   4.634  20.959  0.00  0.00    +0.000 C 
ATOM     23  N   UNL     1      48.577   5.513  19.810  0.00  0.00    +0.000 N 
ATOM     24  C   UNL     1      48.948   5.175  18.537  0.00  0.00    +0.000 A 
ATOM     25  C   UNL     1      48.777   6.283  17.711  0.00  0.00    +0.000 A 
ATOM     26  C   UNL     1      48.271   7.340  18.549  0.00  0.00    +0.000 A 
ATOM     27  C   UNL     1      47.863   8.671  18.443  0.00  0.00    +0.000 A 
ATOM     28 CL   UNL     1      47.852   9.489  16.961  0.00  0.00    +0.000 Cl
ATOM     29  N   UNL     1      47.396   9.363  19.496  0.00  0.00    +0.000 NA
ATOM     30  C   UNL     1      47.353   8.727  20.671  0.00  0.00    +0.000 A 
ATOM     31  N   UNL     1      47.712   7.461  20.932  0.00  0.00    +0.000 NA
ATOM     32  C   UNL     1      48.159   6.816  19.836  0.00  0.00    +0.000 A 
ENDBRANCH  18  25
ENDBRANCH   1  20
TORSDOF 7
ENDMDL
MODEL 3
REMARK VINA RESULT:    -7.891      1.670      1.917
REMARK INTER + INTRA:         -12.106
REMARK INTER:                 -11.203
REMARK INTRA:                  -0.903
REMARK UNBOUND:                -0.986
REMARK  Name = 
REMARK  8 active torsions:
REMARK  status: ('A' for Active; 'I' for Inactive)
REMARK    1  A    between atoms: C_1  and  N_2
REMARK    2  A    between atoms: C_4  and  C_5
REMARK    3  A    between atoms: N_7  and  C_8
REMARK    4  A    between atoms: C_8  and  C_9
REMARK    5  A    between atoms: C_12  and  N_13
REMARK    6  A    between atoms: N_13  and  C_14
REMARK    7  A    between atoms: C_14  and  C_15
REMARK    8  A    between atoms: C_15  and  C_16
REMARK                            x       y       z     vdW  Elec       q    Type
REMARK                         _______ _______ _______ _____ _____    ______ ____
ROOT
ATOM      1  C   UNL     1      48.372   6.667  13.750  0.00  0.00    +0.000 C 
ENDROOT
BRANCH   1   2
ATOM      2  C   UNL     1      47.198   6.141  12.975  0.00  0.00    +0.000 A 
ATOM      3  C   UNL     1      46.839   6.712  11.757  0.00  0.00    +0.000 A 
ATOM      4  C   UNL     1      45.758   6.205  11.026  0.00  0.00    +0.000 A 
ATOM      5  C   UNL     1      44.985   5.148  11.518  0.00  0.00    +0.000 A 
ATOM      6  C   UNL     1      45.360   4.574  12.735  0.00  0.00    +0.000 A 
ATOM      7  C   UNL     1      46.452   5.065  13.461  0.00  0.00    +0.000 A 
BRANCH   5   8
ATOM      8  N   UNL     1      43.923   4.606  10.814  0.00  0.00    +0.000 N 
ATOM      9  H   UNL     1      42.988   4.939  11.022  0.00  0.00    +0.000 HD
BRANCH   8  10
ATOM     10  C   UNL     1      44.106   3.476   9.920  0.00  0.00    +0.000 C 
BRANCH  10  11
ATOM     11  C   UNL     1      44.588   3.934   8.543  0.00  0.00    +0.000 C 
BRANCH  11  12
ATOM     12  C   UNL     1      45.651   3.012   8.011  0.00  0.00    +0.000 A 
ATOM     13  C   UNL     1      46.569   3.424   7.043  0.00  0.00    +0.000 A 
ATOM     14  C   UNL     1      47.514   2.520   6.564  0.00  0.00    +0.000 A 
ATOM     15  C   UNL     1      47.501   1.229   7.063  0.00  0.00    +0.000 A 
ATOM     16  N   UNL     1      46.619   0.791   7.986  0.00  0.00    +0.000 NA
ATOM     17  C   UNL     1      45.718   1.689   8.437  0.00  0.00    +0.000 A 
ENDBRANCH  11  12
ENDBRANCH  10  11
ENDBRANCH   8  10
ENDBRANCH   5   8
ENDBRANCH   1   2
BRANCH   1  20
ATOM     18  C   UNL     1      49.139   6.754  16.066  0.00  0.00    +0.000 C 
ATOM     19  O   UNL     1      50.294   6.587  15.697  0.00  0.00    +0.000 OA
ATOM     20  N   UNL     1      48.093   6.778  15.164  0.00  0.00    +0.000 N 
ATOM     21  H   UNL     1      47.152   6.969  15.474  0.00  0.00    +0.000 HD
BRANCH  18  25
ATOM     22  C   UNL     1      47.591   8.889  20.308  0.00  0.00    +0.000 C 
ATOM     23  N   UNL     1      48.062   7.898  19.365  0.00  0.00    +0.000 N 
ATOM     24  C   UNL     1      48.366   8.130  18.052  0.00  0.00    +0.000 A 
ATOM     25  C   UNL     1      48.772   6.934  17.467  0.00  0.00    +0.000 A 
ATOM     26  C   UNL     1      48.707   5.933  18.501  0.00  0.00    +0.000 A 
ATOM     27  C   UNL     1      48.963   4.571  18.674  0.00  0.00    +0.000 A 
ATOM     28 CL   UNL     1      49.567   3.608  17.421  0.00  0.00    +0.000 Cl
ATOM     29  N   UNL     1      48.805   3.958  19.859  0.00  0.00    +0.000 NA
ATOM     30  C   UNL     1      48.369   4.705  20.878  0.00  0.00    +0.000 A 
ATOM     31  N   UNL     1      48.078   6.015  20.868  0.00  0.00    +0.000 NA
ATOM     32  C   UNL     1      48.268   6.576  19.658  0.00  0.00    +0.000 A 
ENDBRANCH  18  25
ENDBRANCH   1  20
TORSDOF 7
ENDMDL
MODEL 4
REMARK VINA RESULT:    -7.386      1.853      2.665
REMARK INTER + INTRA:         -11.394
REMARK INTER:                 -10.536
REMARK INTRA:                  -0.858
REMARK UNBOUND:                -0.986
REMARK  Name = 
REMARK  8 active torsions:
REMARK  status: ('A' for Active; 'I' for Inactive)
REMARK    1  A    between atoms: C_1  and  N_2
REMARK    2  A    between atoms: C_4  and  C_5
REMARK    3  A    between atoms: N_7  and  C_8
REMARK    4  A    between atoms: C_8  and  C_9
REMARK    5  A    between atoms: C_12  and  N_13
REMARK    6  A    between atoms: N_13  and  C_14
REMARK    7  A    between atoms: C_14  and  C_15
REMARK    8  A    between atoms: C_15  and  C_16
REMARK                            x       y       z     vdW  Elec       q    Type
REMARK                         _______ _______ _______ _____ _____    ______ ____
ROOT
ATOM      1  C   UNL     1      47.519   6.832  13.650  0.00  0.00    +0.000 C 
ENDROOT
BRANCH   1   2
ATOM      2  C   UNL     1      46.631   5.945  12.826  0.00  0.00    +0.000 A 
ATOM      3  C   UNL     1      46.180   4.728  13.331  0.00  0.00    +0.000 A 
ATOM      4  C   UNL     1      45.333   3.913  12.568  0.00  0.00    +0.000 A 
ATOM      5  C   UNL     1      44.959   4.274  11.270  0.00  0.00    +0.000 A 
ATOM      6  C   UNL     1      45.407   5.501  10.777  0.00  0.00    +0.000 A 
ATOM      7  C   UNL     1      46.238   6.329  11.542  0.00  0.00    +0.000 A 
BRANCH   5   8
ATOM      8  N   UNL     1      44.107   3.505  10.496  0.00  0.00    +0.000 N 
ATOM      9  H   UNL     1      43.302   3.081  10.943  0.00  0.00    +0.000 HD
BRANCH   8  10
ATOM     10  C   UNL     1      44.432   3.168   9.120  0.00  0.00    +0.000 C 
BRANCH  10  11
ATOM     11  C   UNL     1      45.492   2.068   9.058  0.00  0.00    +0.000 C 
BRANCH  11  12
ATOM     12  C   UNL     1      46.272   2.144   7.774  0.00  0.00    +0.000 A 
ATOM     13  C   UNL     1      46.176   3.241   6.915  0.00  0.00    +0.000 A 
ATOM     14  C   UNL     1      46.898   3.246   5.724  0.00  0.00    +0.000 A 
ATOM     15  C   UNL     1      47.685   2.146   5.428  0.00  0.00    +0.000 A 
ATOM     16  N   UNL     1      47.789   1.062   6.225  0.00  0.00    +0.000 NA
ATOM     17  C   UNL     1      47.083   1.086   7.375  0.00  0.00    +0.000 A 
ENDBRANCH  11  12
ENDBRANCH  10  11
ENDBRANCH   8  10
ENDBRANCH   5   8
ENDBRANCH   1   2
BRANCH   1  20
ATOM     18  C   UNL     1      48.838   6.856  15.704  0.00  0.00    +0.000 C 
ATOM     19  O   UNL     1      49.210   7.997  15.460  0.00  0.00    +0.000 OA
ATOM     20  N   UNL     1      48.009   6.170  14.838  0.00  0.00    +0.000 N 
ATOM     21  H   UNL     1      47.667   5.251  15.075  0.00  0.00    +0.000 HD
BRANCH  18  25
ATOM     22  C   UNL     1      48.566   4.210  19.932  0.00  0.00    +0.000 C 
ATOM     23  N   UNL     1      49.104   4.932  18.800  0.00  0.00    +0.000 N 
ATOM     24  C   UNL     1      48.367   5.562  17.835  0.00  0.00    +0.000 A 
ATOM     25  C   UNL     1      49.235   6.134  16.909  0.00  0.00    +0.000 A 
ATOM     26  C   UNL     1      50.569   5.825  17.357  0.00  0.00    +0.000 A 
ATOM     27  C   UNL     1      51.893   6.059  16.981  0.00  0.00    +0.000 A 
ATOM     28 CL   UNL     1      52.287   6.991  15.623  0.00  0.00    +0.000 Cl
ATOM     29  N   UNL     1      52.933   5.612  17.705  0.00  0.00    +0.000 NA
ATOM     30  C   UNL     1      52.650   4.910  18.806  0.00  0.00    +0.000 A 
ATOM     31  N   UNL     1      51.439   4.601  19.293  0.00  0.00    +0.000 NA
ATOM     32  C   UNL     1      50.438   5.086  18.532  0.00  0.00    +0.000 A 
ENDBRANCH  18  25
ENDBRANCH   1  20
TORSDOF 7
ENDMDL
MODEL 5
REMARK VINA RESULT:    -7.355      4.079      6.455
REMARK INTER + INTRA:         -11.351
REMARK INTER:                 -10.531
REMARK INTRA:                  -0.820
REMARK UNBOUND:                -0.986
REMARK  Name = 
REMARK  8 active torsions:
REMARK  status: ('A' for Active; 'I' for Inactive)
REMARK    1  A    between atoms: C_1  and  N_2
REMARK    2  A    between atoms: C_4  and  C_5
REMARK    3  A    between atoms: N_7  and  C_8
REMARK    4  A    between atoms: C_8  and  C_9
REMARK    5  A    between atoms: C_12  and  N_13
REMARK    6  A    between atoms: N_13  and  C_14
REMARK    7  A    between atoms: C_14  and  C_15
REMARK    8  A    between atoms: C_15  and  C_16
REMARK                            x       y       z     vdW  Elec       q    Type
REMARK                         _______ _______ _______ _____ _____    ______ ____
ROOT
ATOM      1  C   UNL     1      43.879   4.921  10.712  0.00  0.00    +0.000 C 
ENDROOT
BRANCH   1   2
ATOM      2  C   UNL     1      44.649   4.095   9.724  0.00  0.00    +0.000 A 
ATOM      3  C   UNL     1      44.540   2.707   9.722  0.00  0.00    +0.000 A 
ATOM      4  C   UNL     1      45.242   1.940   8.784  0.00  0.00    +0.000 A 
ATOM      5  C   UNL     1      46.104   2.540   7.860  0.00  0.00    +0.000 A 
ATOM      6  C   UNL     1      46.198   3.933   7.861  0.00  0.00    +0.000 A 
ATOM      7  C   UNL     1      45.483   4.706   8.785  0.00  0.00    +0.000 A 
BRANCH   5   8
ATOM      8  N   UNL     1      46.797   1.816   6.905  0.00  0.00    +0.000 N 
ATOM      9  H   UNL     1      47.467   1.124   7.219  0.00  0.00    +0.000 HD
BRANCH   8  10
ATOM     10  C   UNL     1      46.703   2.143   5.492  0.00  0.00    +0.000 C 
BRANCH  10  11
ATOM     11  C   UNL     1      47.577   1.212   4.651  0.00  0.00    +0.000 C 
BRANCH  11  12
ATOM     12  C   UNL     1      46.742   0.407   3.694  0.00  0.00    +0.000 A 
ATOM     13  C   UNL     1      45.771   0.998   2.882  0.00  0.00    +0.000 A 
ATOM     14  C   UNL     1      45.005   0.200   2.035  0.00  0.00    +0.000 A 
ATOM     15  C   UNL     1      45.231  -1.166   2.038  0.00  0.00    +0.000 A 
ATOM     16  N   UNL     1      46.148  -1.773   2.820  0.00  0.00    +0.000 NA
ATOM     17  C   UNL     1      46.879  -0.977   3.627  0.00  0.00    +0.000 A 
ENDBRANCH  11  12
ENDBRANCH  10  11
ENDBRANCH   8  10
ENDBRANCH   5   8
ENDBRANCH   1   2
BRANCH   1  20
ATOM     18  C   UNL     1      44.774   6.824  11.953  0.00  0.00    +0.000 C 
ATOM     19  O   UNL     1      44.738   6.173  12.990  0.00  0.00    +0.000 OA
ATOM     20  N   UNL     1      44.334   6.293  10.756  0.00  0.00    +0.000 N 
ATOM     21  H   UNL     1      44.417   6.819   9.899  0.00  0.00    +0.000 HD
BRANCH  18  25
ATOM     22  C   UNL     1      44.896  11.791  11.441  0.00  0.00    +0.000 C 
ATOM     23  N   UNL     1      45.318  10.427  11.677  0.00  0.00    +0.000 N 
ATOM     24  C   UNL     1      44.517   9.321  11.586  0.00  0.00    +0.000 A 
ATOM     25  C   UNL     1      45.274   8.194  11.893  0.00  0.00    +0.000 A 
ATOM     26  C   UNL     1      46.606   8.664  12.180  0.00  0.00    +0.000 A 
ATOM     27  C   UNL     1      47.856   8.152  12.532  0.00  0.00    +0.000 A 
ATOM     28 CL   UNL     1      48.127   6.489  12.705  0.00  0.00    +0.000 Cl
ATOM     29  N   UNL     1      48.933   8.939  12.694  0.00  0.00    +0.000 NA
ATOM     30  C   UNL     1      48.757  10.253  12.521  0.00  0.00    +0.000 A 
ATOM     31  N   UNL     1      47.625  10.892  12.189  0.00  0.00    +0.000 NA
ATOM     32  C   UNL     1      46.586  10.049  12.028  0.00  0.00    +0.000 A 
ENDBRANCH  18  25
ENDBRANCH   1  20
TORSDOF 7
ENDMDL
MODEL 6
REMARK VINA RESULT:    -7.309      2.702      4.585
REMARK INTER + INTRA:         -11.286
REMARK INTER:                 -10.170
REMARK INTRA:                  -1.116
REMARK UNBOUND:                -0.986
REMARK  Name = 
REMARK  8 active torsions:
REMARK  status: ('A' for Active; 'I' for Inactive)
REMARK    1  A    between atoms: C_1  and  N_2
REMARK    2  A    between atoms: C_4  and  C_5
REMARK    3  A    between atoms: N_7  and  C_8
REMARK    4  A    between atoms: C_8  and  C_9
REMARK    5  A    between atoms: C_12  and  N_13
REMARK    6  A    between atoms: N_13  and  C_14
REMARK    7  A    between atoms: C_14  and  C_15
REMARK    8  A    between atoms: C_15  and  C_16
REMARK                            x       y       z     vdW  Elec       q    Type
REMARK                         _______ _______ _______ _____ _____    ______ ____
ROOT
ATOM      1  C   UNL     1      47.557   5.524  14.494  0.00  0.00    +0.000 C 
ENDROOT
BRANCH   1   2
ATOM      2  C   UNL     1      46.643   5.110  13.378  0.00  0.00    +0.000 A 
ATOM      3  C   UNL     1      46.195   3.796  13.279  0.00  0.00    +0.000 A 
ATOM      4  C   UNL     1      45.323   3.417  12.250  0.00  0.00    +0.000 A 
ATOM      5  C   UNL     1      44.919   4.332  11.272  0.00  0.00    +0.000 A 
ATOM      6  C   UNL     1      45.364   5.651  11.386  0.00  0.00    +0.000 A 
ATOM      7  C   UNL     1      46.221   6.039  12.424  0.00  0.00    +0.000 A 
BRANCH   5   8
ATOM      8  N   UNL     1      44.043   4.000  10.253  0.00  0.00    +0.000 N 
ATOM      9  H   UNL     1      43.074   4.284  10.341  0.00  0.00    +0.000 HD
BRANCH   8  10
ATOM     10  C   UNL     1      44.445   3.128   9.163  0.00  0.00    +0.000 C 
BRANCH  10  11
ATOM     11  C   UNL     1      45.278   3.885   8.129  0.00  0.00    +0.000 C 
BRANCH  11  12
ATOM     12  C   UNL     1      46.125   2.939   7.322  0.00  0.00    +0.000 A 
ATOM     13  C   UNL     1      46.531   3.238   6.020  0.00  0.00    +0.000 A 
ATOM     14  C   UNL     1      47.290   2.313   5.307  0.00  0.00    +0.000 A 
ATOM     15  C   UNL     1      47.607   1.112   5.920  0.00  0.00    +0.000 A 
ATOM     16  N   UNL     1      47.218   0.782   7.169  0.00  0.00    +0.000 NA
ATOM     17  C   UNL     1      46.489   1.699   7.839  0.00  0.00    +0.000 A 
ENDBRANCH  11  12
ENDBRANCH  10  11
ENDBRANCH   8  10
ENDBRANCH   5   8
ENDBRANCH   1   2
BRANCH   1  20
ATOM     18  C   UNL     1      48.971   7.492  14.792  0.00  0.00    +0.000 C 
ATOM     19  O   UNL     1      49.945   6.773  14.976  0.00  0.00    +0.000 OA
ATOM     20  N   UNL     1      47.716   6.959  14.572  0.00  0.00    +0.000 N 
ATOM     21  H   UNL     1      46.931   7.560  14.369  0.00  0.00    +0.000 HD
BRANCH  18  25
ATOM     22  C   UNL     1      49.294  12.205  16.415  0.00  0.00    +0.000 C 
ATOM     23  N   UNL     1      49.210  11.063  15.531  0.00  0.00    +0.000 N 
ATOM     24  C   UNL     1      49.088   9.759  15.926  0.00  0.00    +0.000 A 
ATOM     25  C   UNL     1      49.050   8.950  14.794  0.00  0.00    +0.000 A 
ATOM     26  C   UNL     1      49.153   9.832  13.659  0.00  0.00    +0.000 A 
ATOM     27  C   UNL     1      49.169   9.765  12.264  0.00  0.00    +0.000 A 
ATOM     28 CL   UNL     1      49.003   8.299  11.436  0.00  0.00    +0.000 Cl
ATOM     29  N   UNL     1      49.253  10.865  11.496  0.00  0.00    +0.000 NA
ATOM     30  C   UNL     1      49.342  12.041  12.125  0.00  0.00    +0.000 A 
ATOM     31  N   UNL     1      49.345  12.265  13.448  0.00  0.00    +0.000 NA
ATOM     32  C   UNL     1      49.245  11.128  14.163  0.00  0.00    +0.000 A 
ENDBRANCH  18  25
ENDBRANCH   1  20
TORSDOF 7
ENDMDL
MODEL 7
REMARK VINA RESULT:    -7.117      4.582      6.844
REMARK INTER + INTRA:         -11.015
REMARK INTER:                 -10.251
REMARK INTRA:                  -0.764
REMARK UNBOUND:                -0.986
REMARK  Name = 
REMARK  8 active torsions:
REMARK  status: ('A' for Active; 'I' for Inactive)
REMARK    1  A    between atoms: C_1  and  N_2
REMARK    2  A    between atoms: C_4  and  C_5
REMARK    3  A    between atoms: N_7  and  C_8
REMARK    4  A    between atoms: C_8  and  C_9
REMARK    5  A    between atoms: C_12  and  N_13
REMARK    6  A    between atoms: N_13  and  C_14
REMARK    7  A    between atoms: C_14  and  C_15
REMARK    8  A    between atoms: C_15  and  C_16
REMARK                            x       y       z     vdW  Elec       q    Type
REMARK                         _______ _______ _______ _____ _____    ______ ____
ROOT
ATOM      1  C   UNL     1      43.903   4.946  10.603  0.00  0.00    +0.000 C 
ENDROOT
BRANCH   1   2
ATOM      2  C   UNL     1      44.697   4.081   9.668  0.00  0.00    +0.000 A 
ATOM      3  C   UNL     1      44.648   2.694   9.771  0.00  0.00    +0.000 A 
ATOM      4  C   UNL     1      45.372   1.889   8.882  0.00  0.00    +0.000 A 
ATOM      5  C   UNL     1      46.195   2.454   7.902  0.00  0.00    +0.000 A 
ATOM      6  C   UNL     1      46.229   3.846   7.799  0.00  0.00    +0.000 A 
ATOM      7  C   UNL     1      45.492   4.655   8.673  0.00  0.00    +0.000 A 
BRANCH   5   8
ATOM      8  N   UNL     1      46.908   1.691   6.993  0.00  0.00    +0.000 N 
ATOM      9  H   UNL     1      47.540   0.983   7.350  0.00  0.00    +0.000 HD
BRANCH   8  10
ATOM     10  C   UNL     1      46.891   1.995   5.572  0.00  0.00    +0.000 C 
BRANCH  10  11
ATOM     11  C   UNL     1      47.706   0.973   4.780  0.00  0.00    +0.000 C 
BRANCH  11  12
ATOM     12  C   UNL     1      46.843   0.257   3.777  0.00  0.00    +0.000 A 
ATOM     13  C   UNL     1      45.964   0.942   2.935  0.00  0.00    +0.000 A 
ATOM     14  C   UNL     1      45.167   0.226   2.045  0.00  0.00    +0.000 A 
ATOM     15  C   UNL     1      45.269  -1.155   2.036  0.00  0.00    +0.000 A 
ATOM     16  N   UNL     1      46.094  -1.851   2.846  0.00  0.00    +0.000 NA
ATOM     17  C   UNL     1      46.859  -1.133   3.694  0.00  0.00    +0.000 A 
ENDBRANCH  11  12
ENDBRANCH  10  11
ENDBRANCH   8  10
ENDBRANCH   5   8
ENDBRANCH   1   2
BRANCH   1  20
ATOM     18  C   UNL     1      44.758   6.734  12.029  0.00  0.00    +0.000 C 
ATOM     19  O   UNL     1      44.477   6.083  13.027  0.00  0.00    +0.000 OA
ATOM     20  N   UNL     1      44.481   6.262  10.761  0.00  0.00    +0.000 N 
ATOM     21  H   UNL     1      44.765   6.783   9.945  0.00  0.00    +0.000 HD
BRANCH  18  25
ATOM     22  C   UNL     1      48.201  10.283  12.742  0.00  0.00    +0.000 C 
ATOM     23  N   UNL     1      46.955   9.631  12.400  0.00  0.00    +0.000 N 
ATOM     24  C   UNL     1      46.695   8.294  12.531  0.00  0.00    +0.000 A 
ATOM     25  C   UNL     1      45.398   8.045  12.092  0.00  0.00    +0.000 A 
ATOM     26  C   UNL     1      44.857   9.314  11.678  0.00  0.00    +0.000 A 
ATOM     27  C   UNL     1      43.671   9.844  11.165  0.00  0.00    +0.000 A 
ATOM     28 CL   UNL     1      42.306   8.880  10.890  0.00  0.00    +0.000 Cl
ATOM     29  N   UNL     1      43.520  11.156  10.918  0.00  0.00    +0.000 NA
ATOM     30  C   UNL     1      44.568  11.946  11.167  0.00  0.00    +0.000 A 
ATOM     31  N   UNL     1      45.767  11.589  11.653  0.00  0.00    +0.000 NA
ATOM     32  C   UNL     1      45.853  10.266  11.892  0.00  0.00    +0.000 A 
ENDBRANCH  18  25
ENDBRANCH   1  20
TORSDOF 7
ENDMDL
MODEL 8
REMARK VINA RESULT:    -7.010      3.885      5.579
REMARK INTER + INTRA:         -10.864
REMARK INTER:                  -9.791
REMARK INTRA:                  -1.074
REMARK UNBOUND:                -0.986
REMARK  Name = 
REMARK  8 active torsions:
REMARK  status: ('A' for Active; 'I' for Inactive)
REMARK    1  A    between atoms: C_1  and  N_2
REMARK    2  A    between atoms: C_4  and  C_5
REMARK    3  A    between atoms: N_7  and  C_8
REMARK    4  A    between atoms: C_8  and  C_9
REMARK    5  A    between atoms: C_12  and  N_13
REMARK    6  A    between atoms: N_13  and  C_14
REMARK    7  A    between atoms: C_14  and  C_15
REMARK    8  A    between atoms: C_15  and  C_16
REMARK                            x       y       z     vdW  Elec       q    Type
REMARK                         _______ _______ _______ _____ _____    ______ ____
ROOT
ATOM      1  C   UNL     1      46.679   7.612  13.033  0.00  0.00    +0.000 C 
ENDROOT
BRANCH   1   2
ATOM      2  C   UNL     1      46.037   6.424  12.377  0.00  0.00    +0.000 A 
ATOM      3  C   UNL     1      45.479   5.405  13.144  0.00  0.00    +0.000 A 
ATOM      4  C   UNL     1      44.860   4.310  12.528  0.00  0.00    +0.000 A 
ATOM      5  C   UNL     1      44.827   4.187  11.136  0.00  0.00    +0.000 A 
ATOM      6  C   UNL     1      45.379   5.219  10.374  0.00  0.00    +0.000 A 
ATOM      7  C   UNL     1      45.982   6.326  10.984  0.00  0.00    +0.000 A 
BRANCH   5   8
ATOM      8  N   UNL     1      44.206   3.130  10.492  0.00  0.00    +0.000 N 
ATOM      9  H   UNL     1      43.672   2.474  11.051  0.00  0.00    +0.000 HD
BRANCH   8  10
ATOM     10  C   UNL     1      44.440   2.859   9.084  0.00  0.00    +0.000 C 
BRANCH  10  11
ATOM     11  C   UNL     1      45.509   1.782   8.899  0.00  0.00    +0.000 C 
BRANCH  11  12
ATOM     12  C   UNL     1      46.307   2.025   7.648  0.00  0.00    +0.000 A 
ATOM     13  C   UNL     1      46.130   3.171   6.869  0.00  0.00    +0.000 A 
ATOM     14  C   UNL     1      46.876   3.331   5.703  0.00  0.00    +0.000 A 
ATOM     15  C   UNL     1      47.767   2.331   5.351  0.00  0.00    +0.000 A 
ATOM     16  N   UNL     1      47.953   1.204   6.070  0.00  0.00    +0.000 NA
ATOM     17  C   UNL     1      47.222   1.077   7.197  0.00  0.00    +0.000 A 
ENDBRANCH  11  12
ENDBRANCH  10  11
ENDBRANCH   8  10
ENDBRANCH   5   8
ENDBRANCH   1   2
BRANCH   1  20
ATOM     18  C   UNL     1      49.088   7.610  12.637  0.00  0.00    +0.000 C 
ATOM     19  O   UNL     1      49.248   6.835  13.572  0.00  0.00    +0.000 OA
ATOM     20  N   UNL     1      47.835   8.085  12.304  0.00  0.00    +0.000 N 
ATOM     21  H   UNL     1      47.708   8.681  11.500  0.00  0.00    +0.000 HD
BRANCH  18  25
ATOM     22  C   UNL     1      52.792   7.706   9.288  0.00  0.00    +0.000 C 
ATOM     23  N   UNL     1      51.843   8.132  10.293  0.00  0.00    +0.000 N 
ATOM     24  C   UNL     1      50.933   7.324  10.919  0.00  0.00    +0.000 A 
ATOM     25  C   UNL     1      50.190   8.093  11.810  0.00  0.00    +0.000 A 
ATOM     26  C   UNL     1      50.695   9.438  11.707  0.00  0.00    +0.000 A 
ATOM     27  C   UNL     1      50.477  10.698  12.268  0.00  0.00    +0.000 A 
ATOM     28 CL   UNL     1      49.327  10.948  13.485  0.00  0.00    +0.000 Cl
ATOM     29  N   UNL     1      51.206  11.772  11.923  0.00  0.00    +0.000 NA
ATOM     30  C   UNL     1      52.150  11.594  10.995  0.00  0.00    +0.000 A 
ATOM     31  N   UNL     1      52.475  10.455  10.363  0.00  0.00    +0.000 NA
ATOM     32  C   UNL     1      51.719   9.412  10.761  0.00  0.00    +0.000 A 
ENDBRANCH  18  25
ENDBRANCH   1  20
TORSDOF 7
ENDMDL
MODEL 9
REMARK VINA RESULT:    -6.892      1.860      2.269
REMARK INTER + INTRA:         -10.698
REMARK INTER:                  -9.498
REMARK INTRA:                  -1.201
REMARK UNBOUND:                -0.986
REMARK  Name = 
REMARK  8 active torsions:
REMARK  status: ('A' for Active; 'I' for Inactive)
REMARK    1  A    between atoms: C_1  and  N_2
REMARK    2  A    between atoms: C_4  and  C_5
REMARK    3  A    between atoms: N_7  and  C_8
REMARK    4  A    between atoms: C_8  and  C_9
REMARK    5  A    between atoms: C_12  and  N_13
REMARK    6  A    between atoms: N_13  and  C_14
REMARK    7  A    between atoms: C_14  and  C_15
REMARK    8  A    between atoms: C_15  and  C_16
REMARK                            x       y       z     vdW  Elec       q    Type
REMARK                         _______ _______ _______ _____ _____    ______ ____
ROOT
ATOM      1  C   UNL     1      47.734   8.046  13.151  0.00  0.00    +0.000 C 
ENDROOT
BRANCH   1   2
ATOM      2  C   UNL     1      46.668   6.995  13.048  0.00  0.00    +0.000 A 
ATOM      3  C   UNL     1      45.421   7.300  12.508  0.00  0.00    +0.000 A 
ATOM      4  C   UNL     1      44.436   6.312  12.392  0.00  0.00    +0.000 A 
ATOM      5  C   UNL     1      44.659   5.011  12.855  0.00  0.00    +0.000 A 
ATOM      6  C   UNL     1      45.915   4.711  13.384  0.00  0.00    +0.000 A 
ATOM      7  C   UNL     1      46.911   5.690  13.485  0.00  0.00    +0.000 A 
BRANCH   5   8
ATOM      8  N   UNL     1      43.717   4.003  12.738  0.00  0.00    +0.000 N 
ATOM      9  H   UNL     1      43.065   3.863  13.501  0.00  0.00    +0.000 HD
BRANCH   8  10
ATOM     10  C   UNL     1      43.753   3.058  11.635  0.00  0.00    +0.000 C 
BRANCH  10  11
ATOM     11  C   UNL     1      43.600   3.772  10.291  0.00  0.00    +0.000 C 
BRANCH  11  12
ATOM     12  C   UNL     1      44.682   3.354   9.333  0.00  0.00    +0.000 A 
ATOM     13  C   UNL     1      45.375   4.281   8.552  0.00  0.00    +0.000 A 
ATOM     14  C   UNL     1      46.348   3.835   7.660  0.00  0.00    +0.000 A 
ATOM     15  C   UNL     1      46.585   2.474   7.572  0.00  0.00    +0.000 A 
ATOM     16  N   UNL     1      45.923   1.549   8.298  0.00  0.00    +0.000 NA
ATOM     17  C   UNL     1      44.991   2.008   9.159  0.00  0.00    +0.000 A 
ENDBRANCH  11  12
ENDBRANCH  10  11
ENDBRANCH   8  10
ENDBRANCH   5   8
ENDBRANCH   1   2
BRANCH   1  20
ATOM     18  C   UNL     1      49.275   7.874  15.037  0.00  0.00    +0.000 C 
ATOM     19  O   UNL     1      48.574   8.638  15.689  0.00  0.00    +0.000 OA
ATOM     20  N   UNL     1      48.954   7.537  13.737  0.00  0.00    +0.000 N 
ATOM     21  H   UNL     1      49.510   6.865  13.229  0.00  0.00    +0.000 HD
BRANCH  18  25
ATOM     22  C   UNL     1      54.099   7.051  16.038  0.00  0.00    +0.000 C 
ATOM     23  N   UNL     1      52.659   6.912  16.027  0.00  0.00    +0.000 N 
ATOM     24  C   UNL     1      51.790   7.697  15.319  0.00  0.00    +0.000 A 
ATOM     25  C   UNL     1      50.490   7.266  15.569  0.00  0.00    +0.000 A 
ATOM     26  C   UNL     1      50.599   6.154  16.480  0.00  0.00    +0.000 A 
ATOM     27  C   UNL     1      49.773   5.240  17.139  0.00  0.00    +0.000 A 
ATOM     28 CL   UNL     1      48.094   5.238  16.929  0.00  0.00    +0.000 Cl
ATOM     29  N   UNL     1      50.265   4.271  17.929  0.00  0.00    +0.000 NA
ATOM     30  C   UNL     1      51.592   4.223  18.078  0.00  0.00    +0.000 A 
ATOM     31  N   UNL     1      52.510   5.027  17.520  0.00  0.00    +0.000 NA
ATOM     32  C   UNL     1      51.958   5.969  16.730  0.00  0.00    +0.000 A 
ENDBRANCH  18  25
ENDBRANCH   1  20
TORSDOF 7
ENDMDL
