MODEL 1
REMARK VINA RESULT:    -7.481      0.000      0.000
REMARK INTER + INTRA:          -9.963
REMARK INTER:                  -9.231
REMARK INTRA:                  -0.732
REMARK UNBOUND:                -0.732
REMARK  Name = 
REMARK  4 active torsions:
REMARK  status: ('A' for Active; 'I' for Inactive)
REMARK    1  A    between atoms: C_5  and  C_6
REMARK    2  A    between atoms: C_10  and  C_11
REMARK    3  A    between atoms: C_11  and  N_12
REMARK    4  A    between atoms: N_12  and  C_13
REMARK                            x       y       z     vdW  Elec       q    Type
REMARK                         _______ _______ _______ _____ _____    ______ ____
ROOT
ATOM      1  C   UNL     1      44.912   3.087   9.316  0.00  0.00    +0.000 A 
ATOM      2  C   UNL     1      44.174   2.177  10.077  0.00  0.00    +0.000 A 
ATOM      3  N   UNL     1      43.362   2.501  11.114  0.00  0.00    +0.000 NA
ATOM      4  C   UNL     1      43.254   3.811  11.414  0.00  0.00    +0.000 A 
ATOM      5  C   UNL     1      43.912   4.820  10.723  0.00  0.00    +0.000 A 
ATOM      6  C   UNL     1      44.769   4.437   9.681  0.00  0.00    +0.000 A 
ENDROOT
BRANCH   1  11
ATOM      7  C   UNL     1      46.862   3.092   6.055  0.00  0.00    +0.000 A 
ATOM      8  C   UNL     1      47.353   1.801   6.085  0.00  0.00    +0.000 A 
ATOM      9  N   UNL     1      47.102   0.935   7.086  0.00  0.00    +0.000 NA
ATOM     10  C   UNL     1      46.324   1.385   8.104  0.00  0.00    +0.000 A 
ATOM     11  C   UNL     1      45.765   2.664   8.187  0.00  0.00    +0.000 A 
ATOM     12  C   UNL     1      46.059   3.520   7.113  0.00  0.00    +0.000 A 
ENDBRANCH   1  11
BRANCH   5  13
ATOM     13  C   UNL     1      43.688   6.263  11.078  0.00  0.00    +0.000 C 
BRANCH  13  14
ATOM     14  N   UNL     1      44.128   6.528  12.440  0.00  0.00    +0.000 N 
ATOM     15  H   UNL     1      43.519   6.098  13.133  0.00  0.00    +0.000 HD
BRANCH  14  16
ATOM     16  C   UNL     1      45.485   6.342  12.749  0.00  0.00    +0.000 A 
ATOM     17  C   UNL     1      45.951   5.313  13.569  0.00  0.00    +0.000 A 
ATOM     18  C   UNL     1      47.318   5.161  13.762  0.00  0.00    +0.000 A 
ATOM     19  N   UNL     1      48.249   5.944  13.187  0.00  0.00    +0.000 NA
ATOM     20  C   UNL     1      47.791   6.902  12.359  0.00  0.00    +0.000 A 
ATOM     21  C   UNL     1      46.443   7.124  12.102  0.00  0.00    +0.000 A 
ENDBRANCH  14  16
ENDBRANCH  13  14
ENDBRANCH   5  13
TORSDOF 4
ENDMDL
MODEL 2
REMARK VINA RESULT:    -7.120      1.632      6.143
REMARK INTER + INTRA:          -9.516
REMARK INTER:                  -8.877
REMARK INTRA:                  -0.639
REMARK UNBOUND:                -0.732
REMARK  Name = 
REMARK  4 active torsions:
REMARK  status: ('A' for Active; 'I' for Inactive)
REMARK    1  A    between atoms: C_5  and  C_6
REMARK    2  A    between atoms: C_10  and  C_11
REMARK    3  A    between atoms: C_11  and  N_12
REMARK    4  A    between atoms: N_12  and  C_13
REMARK                            x       y       z     vdW  Elec       q    Type
REMARK                         _______ _______ _______ _____ _____    ______ ____
ROOT
ATOM      1  C   UNL     1      45.152   5.521  12.117  0.00  0.00    +0.000 A 
ATOM      2  C   UNL     1      44.462   5.061  13.242  0.00  0.00    +0.000 A 
ATOM      3  N   UNL     1      43.698   3.941  13.287  0.00  0.00    +0.000 NA
ATOM      4  C   UNL     1      43.620   3.214  12.155  0.00  0.00    +0.000 A 
ATOM      5  C   UNL     1      44.274   3.544  10.976  0.00  0.00    +0.000 A 
ATOM      6  C   UNL     1      45.025   4.728  10.964  0.00  0.00    +0.000 A 
ENDROOT
BRANCH   1  11
ATOM      7  C   UNL     1      48.130   7.876  11.964  0.00  0.00    +0.000 A 
ATOM      8  C   UNL     1      47.486   9.069  12.234  0.00  0.00    +0.000 A 
ATOM      9  N   UNL     1      46.161   9.164  12.456  0.00  0.00    +0.000 NA
ATOM     10  C   UNL     1      45.448   8.009  12.403  0.00  0.00    +0.000 A 
ATOM     11  C   UNL     1      45.982   6.743  12.145  0.00  0.00    +0.000 A 
ATOM     12  C   UNL     1      47.369   6.708  11.926  0.00  0.00    +0.000 A 
ENDBRANCH   1  11
BRANCH   5  13
ATOM     13  C   UNL     1      44.189   2.645   9.775  0.00  0.00    +0.000 C 
BRANCH  13  14
ATOM     14  N   UNL     1      44.788   3.286   8.614  0.00  0.00    +0.000 N 
ATOM     15  H   UNL     1      44.933   4.284   8.755  0.00  0.00    +0.000 HD
BRANCH  14  16
ATOM     16  C   UNL     1      45.903   2.675   8.018  0.00  0.00    +0.000 A 
ATOM     17  C   UNL     1      46.165   1.308   8.101  0.00  0.00    +0.000 A 
ATOM     18  C   UNL     1      47.253   0.778   7.419  0.00  0.00    +0.000 A 
ATOM     19  N   UNL     1      48.085   1.507   6.652  0.00  0.00    +0.000 NA
ATOM     20  C   UNL     1      47.794   2.817   6.539  0.00  0.00    +0.000 A 
ATOM     21  C   UNL     1      46.725   3.431   7.179  0.00  0.00    +0.000 A 
ENDBRANCH  14  16
ENDBRANCH  13  14
ENDBRANCH   5  13
TORSDOF 4
ENDMDL
MODEL 3
REMARK VINA RESULT:    -7.075      1.277      6.235
REMARK INTER + INTRA:          -9.462
REMARK INTER:                  -8.857
REMARK INTRA:                  -0.604
REMARK UNBOUND:                -0.732
REMARK  Name = 
REMARK  4 active torsions:
REMARK  status: ('A' for Active; 'I' for Inactive)
REMARK    1  A    between atoms: C_5  and  C_6
REMARK    2  A    between atoms: C_10  and  C_11
REMARK    3  A    between atoms: C_11  and  N_12
REMARK    4  A    between atoms: N_12  and  C_13
REMARK                            x       y       z     vdW  Elec       q    Type
REMARK                         _______ _______ _______ _____ _____    ______ ____
ROOT
ATOM      1  C   UNL     1      45.263   5.456  12.465  0.00  0.00    +0.000 A 
ATOM      2  C   UNL     1      43.983   5.822  12.891  0.00  0.00    +0.000 A 
ATOM      3  N   UNL     1      42.823   5.305  12.416  0.00  0.00    +0.000 NA
ATOM      4  C   UNL     1      42.926   4.351  11.470  0.00  0.00    +0.000 A 
ATOM      5  C   UNL     1      44.134   3.878  10.975  0.00  0.00    +0.000 A 
ATOM      6  C   UNL     1      45.308   4.465  11.469  0.00  0.00    +0.000 A 
ENDROOT
BRANCH   1  11
ATOM      7  C   UNL     1      48.124   7.846  13.200  0.00  0.00    +0.000 A 
ATOM      8  C   UNL     1      48.806   7.097  14.140  0.00  0.00    +0.000 A 
ATOM      9  N   UNL     1      48.403   5.880  14.554  0.00  0.00    +0.000 NA
ATOM     10  C   UNL     1      47.262   5.393  14.001  0.00  0.00    +0.000 A 
ATOM     11  C   UNL     1      46.487   6.050  13.040  0.00  0.00    +0.000 A 
ATOM     12  C   UNL     1      46.960   7.312  12.646  0.00  0.00    +0.000 A 
ENDBRANCH   1  11
BRANCH   5  13
ATOM     13  C   UNL     1      44.166   2.765   9.966  0.00  0.00    +0.000 C 
BRANCH  13  14
ATOM     14  N   UNL     1      44.517   3.279   8.651  0.00  0.00    +0.000 N 
ATOM     15  H   UNL     1      44.525   4.296   8.623  0.00  0.00    +0.000 HD
BRANCH  14  16
ATOM     16  C   UNL     1      45.633   2.729   7.998  0.00  0.00    +0.000 A 
ATOM     17  C   UNL     1      46.563   3.493   7.293  0.00  0.00    +0.000 A 
ATOM     18  C   UNL     1      47.676   2.874   6.739  0.00  0.00    +0.000 A 
ATOM     19  N   UNL     1      47.935   1.558   6.851  0.00  0.00    +0.000 NA
ATOM     20  C   UNL     1      47.057   0.838   7.575  0.00  0.00    +0.000 A 
ATOM     21  C   UNL     1      45.921   1.374   8.170  0.00  0.00    +0.000 A 
ENDBRANCH  14  16
ENDBRANCH  13  14
ENDBRANCH   5  13
TORSDOF 4
ENDMDL
MODEL 4
REMARK VINA RESULT:    -6.670      1.509      2.074
REMARK INTER + INTRA:          -8.961
REMARK INTER:                  -8.320
REMARK INTRA:                  -0.641
REMARK UNBOUND:                -0.732
REMARK  Name = 
REMARK  4 active torsions:
REMARK  status: ('A' for Active; 'I' for Inactive)
REMARK    1  A    between atoms: C_5  and  C_6
REMARK    2  A    between atoms: C_10  and  C_11
REMARK    3  A    between atoms: C_11  and  N_12
REMARK    4  A    between atoms: N_12  and  C_13
REMARK                            x       y       z     vdW  Elec       q    Type
REMARK                         _______ _______ _______ _____ _____    ______ ____
ROOT
ATOM      1  C   UNL     1      44.803   3.304  10.032  0.00  0.00    +0.000 A 
ATOM      2  C   UNL     1      43.878   2.384  10.533  0.00  0.00    +0.000 A 
ATOM      3  N   UNL     1      43.139   2.552  11.658  0.00  0.00    +0.000 NA
ATOM      4  C   UNL     1      43.308   3.709  12.329  0.00  0.00    +0.000 A 
ATOM      5  C   UNL     1      44.175   4.717  11.927  0.00  0.00    +0.000 A 
ATOM      6  C   UNL     1      44.945   4.487  10.778  0.00  0.00    +0.000 A 
ENDROOT
BRANCH   1  11
ATOM      7  C   UNL     1      46.757   1.590   7.261  0.00  0.00    +0.000 A 
ATOM      8  C   UNL     1      47.002   2.682   6.450  0.00  0.00    +0.000 A 
ATOM      9  N   UNL     1      46.576   3.928   6.735  0.00  0.00    +0.000 NA
ATOM     10  C   UNL     1      45.870   4.085   7.884  0.00  0.00    +0.000 A 
ATOM     11  C   UNL     1      45.562   3.063   8.788  0.00  0.00    +0.000 A 
ATOM     12  C   UNL     1      46.037   1.788   8.439  0.00  0.00    +0.000 A 
ENDBRANCH   1  11
BRANCH   5  13
ATOM     13  C   UNL     1      44.257   6.006  12.694  0.00  0.00    +0.000 C 
BRANCH  13  14
ATOM     14  N   UNL     1      45.581   6.169  13.277  0.00  0.00    +0.000 N 
ATOM     15  H   UNL     1      46.082   5.286  13.352  0.00  0.00    +0.000 HD
BRANCH  14  16
ATOM     16  C   UNL     1      46.403   7.196  12.785  0.00  0.00    +0.000 A 
ATOM     17  C   UNL     1      46.152   8.551  13.004  0.00  0.00    +0.000 A 
ATOM     18  C   UNL     1      47.058   9.497  12.541  0.00  0.00    +0.000 A 
ATOM     19  N   UNL     1      48.198   9.190  11.894  0.00  0.00    +0.000 NA
ATOM     20  C   UNL     1      48.454   7.878  11.731  0.00  0.00    +0.000 A 
ATOM     21  C   UNL     1      47.609   6.864  12.166  0.00  0.00    +0.000 A 
ENDBRANCH  14  16
ENDBRANCH  13  14
ENDBRANCH   5  13
TORSDOF 4
ENDMDL
MODEL 5
REMARK VINA RESULT:    -5.883      2.618      5.080
REMARK INTER + INTRA:          -7.991
REMARK INTER:                  -7.396
REMARK INTRA:                  -0.595
REMARK UNBOUND:                -0.732
REMARK  Name = 
REMARK  4 active torsions:
REMARK  status: ('A' for Active; 'I' for Inactive)
REMARK    1  A    between atoms: C_5  and  C_6
REMARK    2  A    between atoms: C_10  and  C_11
REMARK    3  A    between atoms: C_11  and  N_12
REMARK    4  A    between atoms: N_12  and  C_13
REMARK                            x       y       z     vdW  Elec       q    Type
REMARK                         _______ _______ _______ _____ _____    ______ ____
ROOT
ATOM      1  C   UNL     1      45.955   6.289  11.907  0.00  0.00    +0.000 A 
ATOM      2  C   UNL     1      45.453   7.592  11.852  0.00  0.00    +0.000 A 
ATOM      3  N   UNL     1      45.895   8.633  12.602  0.00  0.00    +0.000 NA
ATOM      4  C   UNL     1      46.910   8.381  13.452  0.00  0.00    +0.000 A 
ATOM      5  C   UNL     1      47.516   7.138  13.588  0.00  0.00    +0.000 A 
ATOM      6  C   UNL     1      47.005   6.083  12.818  0.00  0.00    +0.000 A 
ENDROOT
BRANCH   1  11
ATOM      7  C   UNL     1      45.037   4.219   8.857  0.00  0.00    +0.000 A 
ATOM      8  C   UNL     1      44.421   3.153   9.486  0.00  0.00    +0.000 A 
ATOM      9  N   UNL     1      44.288   3.057  10.823  0.00  0.00    +0.000 NA
ATOM     10  C   UNL     1      44.798   4.075  11.563  0.00  0.00    +0.000 A 
ATOM     11  C   UNL     1      45.437   5.207  11.046  0.00  0.00    +0.000 A 
ATOM     12  C   UNL     1      45.541   5.252   9.646  0.00  0.00    +0.000 A 
ENDBRANCH   1  11
BRANCH   5  13
ATOM     13  C   UNL     1      48.687   6.954  14.511  0.00  0.00    +0.000 C 
BRANCH  13  14
ATOM     14  N   UNL     1      48.230   6.693  15.868  0.00  0.00    +0.000 N 
ATOM     15  H   UNL     1      47.267   6.989  16.015  0.00  0.00    +0.000 HD
BRANCH  14  16
ATOM     16  C   UNL     1      48.479   5.427  16.422  0.00  0.00    +0.000 A 
ATOM     17  C   UNL     1      49.539   5.164  17.291  0.00  0.00    +0.000 A 
ATOM     18  C   UNL     1      49.667   3.898  17.848  0.00  0.00    +0.000 A 
ATOM     19  N   UNL     1      48.810   2.887  17.617  0.00  0.00    +0.000 NA
ATOM     20  C   UNL     1      47.764   3.165  16.816  0.00  0.00    +0.000 A 
ATOM     21  C   UNL     1      47.552   4.402  16.220  0.00  0.00    +0.000 A 
ENDBRANCH  14  16
ENDBRANCH  13  14
ENDBRANCH   5  13
TORSDOF 4
ENDMDL
MODEL 6
REMARK VINA RESULT:    -5.760      2.323      6.855
REMARK INTER + INTRA:          -7.839
REMARK INTER:                  -7.216
REMARK INTRA:                  -0.623
REMARK UNBOUND:                -0.732
REMARK  Name = 
REMARK  4 active torsions:
REMARK  status: ('A' for Active; 'I' for Inactive)
REMARK    1  A    between atoms: C_5  and  C_6
REMARK    2  A    between atoms: C_10  and  C_11
REMARK    3  A    between atoms: C_11  and  N_12
REMARK    4  A    between atoms: N_12  and  C_13
REMARK                            x       y       z     vdW  Elec       q    Type
REMARK                         _______ _______ _______ _____ _____    ______ ____
ROOT
ATOM      1  C   UNL     1      47.614   7.476  12.539  0.00  0.00    +0.000 A 
ATOM      2  C   UNL     1      48.194   6.536  13.395  0.00  0.00    +0.000 A 
ATOM      3  N   UNL     1      47.696   5.302  13.655  0.00  0.00    +0.000 NA
ATOM      4  C   UNL     1      46.558   4.960  13.018  0.00  0.00    +0.000 A 
ATOM      5  C   UNL     1      45.893   5.788  12.124  0.00  0.00    +0.000 A 
ATOM      6  C   UNL     1      46.424   7.068  11.911  0.00  0.00    +0.000 A 
ENDROOT
BRANCH   1  11
ATOM      7  C   UNL     1      49.910  10.216  11.253  0.00  0.00    +0.000 A 
ATOM      8  C   UNL     1      49.332  11.304  11.878  0.00  0.00    +0.000 A 
ATOM      9  N   UNL     1      48.253  11.214  12.678  0.00  0.00    +0.000 NA
ATOM     10  C   UNL     1      47.727   9.975  12.859  0.00  0.00    +0.000 A 
ATOM     11  C   UNL     1      48.223   8.798  12.288  0.00  0.00    +0.000 A 
ATOM     12  C   UNL     1      49.351   8.956  11.468  0.00  0.00    +0.000 A 
ENDBRANCH   1  11
BRANCH   5  13
ATOM     13  C   UNL     1      44.664   5.308  11.404  0.00  0.00    +0.000 C 
BRANCH  13  14
ATOM     14  N   UNL     1      44.826   5.455   9.965  0.00  0.00    +0.000 N 
ATOM     15  H   UNL     1      45.368   6.282   9.720  0.00  0.00    +0.000 HD
BRANCH  14  16
ATOM     16  C   UNL     1      45.220   4.332   9.221  0.00  0.00    +0.000 A 
ATOM     17  C   UNL     1      46.068   4.402   8.116  0.00  0.00    +0.000 A 
ATOM     18  C   UNL     1      46.464   3.231   7.483  0.00  0.00    +0.000 A 
ATOM     19  N   UNL     1      46.091   2.000   7.880  0.00  0.00    +0.000 NA
ATOM     20  C   UNL     1      45.312   1.941   8.977  0.00  0.00    +0.000 A 
ATOM     21  C   UNL     1      44.873   3.059   9.677  0.00  0.00    +0.000 A 
ENDBRANCH  14  16
ENDBRANCH  13  14
ENDBRANCH   5  13
TORSDOF 4
ENDMDL
MODEL 7
REMARK VINA RESULT:    -5.694      2.442      3.343
REMARK INTER + INTRA:          -7.758
REMARK INTER:                  -7.345
REMARK INTRA:                  -0.413
REMARK UNBOUND:                -0.732
REMARK  Name = 
REMARK  4 active torsions:
REMARK  status: ('A' for Active; 'I' for Inactive)
REMARK    1  A    between atoms: C_5  and  C_6
REMARK    2  A    between atoms: C_10  and  C_11
REMARK    3  A    between atoms: C_11  and  N_12
REMARK    4  A    between atoms: N_12  and  C_13
REMARK                            x       y       z     vdW  Elec       q    Type
REMARK                         _______ _______ _______ _____ _____    ______ ____
ROOT
ATOM      1  C   UNL     1      44.922   3.904  10.689  0.00  0.00    +0.000 A 
ATOM      2  C   UNL     1      43.559   4.049  10.964  0.00  0.00    +0.000 A 
ATOM      3  N   UNL     1      43.041   4.512  12.129  0.00  0.00    +0.000 NA
ATOM      4  C   UNL     1      43.921   4.874  13.084  0.00  0.00    +0.000 A 
ATOM      5  C   UNL     1      45.300   4.804  12.932  0.00  0.00    +0.000 A 
ATOM      6  C   UNL     1      45.792   4.286  11.725  0.00  0.00    +0.000 A 
ENDROOT
BRANCH   1  11
ATOM      7  C   UNL     1      46.263   3.783   7.137  0.00  0.00    +0.000 A 
ATOM      8  C   UNL     1      46.314   2.413   6.963  0.00  0.00    +0.000 A 
ATOM      9  N   UNL     1      45.952   1.530   7.913  0.00  0.00    +0.000 NA
ATOM     10  C   UNL     1      45.519   2.045   9.093  0.00  0.00    +0.000 A 
ATOM     11  C   UNL     1      45.417   3.408   9.389  0.00  0.00    +0.000 A 
ATOM     12  C   UNL     1      45.805   4.278   8.358  0.00  0.00    +0.000 A 
ENDBRANCH   1  11
BRANCH   5  13
ATOM     13  C   UNL     1      46.215   5.288  14.021  0.00  0.00    +0.000 C 
BRANCH  13  14
ATOM     14  N   UNL     1      46.318   4.296  15.080  0.00  0.00    +0.000 N 
ATOM     15  H   UNL     1      46.124   3.354  14.747  0.00  0.00    +0.000 HD
BRANCH  14  16
ATOM     16  C   UNL     1      47.443   4.333  15.920  0.00  0.00    +0.000 A 
ATOM     17  C   UNL     1      48.211   5.479  16.124  0.00  0.00    +0.000 A 
ATOM     18  C   UNL     1      49.265   5.444  17.028  0.00  0.00    +0.000 A 
ATOM     19  N   UNL     1      49.596   4.358  17.752  0.00  0.00    +0.000 NA
ATOM     20  C   UNL     1      48.818   3.272  17.584  0.00  0.00    +0.000 A 
ATOM     21  C   UNL     1      47.741   3.218  16.707  0.00  0.00    +0.000 A 
ENDBRANCH  14  16
ENDBRANCH  13  14
ENDBRANCH   5  13
TORSDOF 4
ENDMDL
MODEL 8
REMARK VINA RESULT:    -5.445      2.747      6.734
REMARK INTER + INTRA:          -7.450
REMARK INTER:                  -6.852
REMARK INTRA:                  -0.599
REMARK UNBOUND:                -0.732
REMARK  Name = 
REMARK  4 active torsions:
REMARK  status: ('A' for Active; 'I' for Inactive)
REMARK    1  A    between atoms: C_5  and  C_6
REMARK    2  A    between atoms: C_10  and  C_11
REMARK    3  A    between atoms: C_11  and  N_12
REMARK    4  A    between atoms: N_12  and  C_13
REMARK                            x       y       z     vdW  Elec       q    Type
REMARK                         _______ _______ _______ _____ _____    ______ ____
ROOT
ATOM      1  C   UNL     1      48.850   8.048  12.120  0.00  0.00    +0.000 A 
ATOM      2  C   UNL     1      49.290   6.958  12.876  0.00  0.00    +0.000 A 
ATOM      3  N   UNL     1      48.490   6.005  13.415  0.00  0.00    +0.000 NA
ATOM      4  C   UNL     1      47.167   6.120  13.183  0.00  0.00    +0.000 A 
ATOM      5  C   UNL     1      46.599   7.140  12.430  0.00  0.00    +0.000 A 
ATOM      6  C   UNL     1      47.460   8.123  11.920  0.00  0.00    +0.000 A 
ENDROOT
BRANCH   1  11
ATOM      7  C   UNL     1      50.274  11.260  10.675  0.00  0.00    +0.000 A 
ATOM      8  C   UNL     1      51.574  10.848  10.452  0.00  0.00    +0.000 A 
ATOM      9  N   UNL     1      52.020   9.610  10.740  0.00  0.00    +0.000 NA
ATOM     10  C   UNL     1      51.122   8.746  11.279  0.00  0.00    +0.000 A 
ATOM     11  C   UNL     1      49.781   9.040  11.548  0.00  0.00    +0.000 A 
ATOM     12  C   UNL     1      49.374  10.344  11.222  0.00  0.00    +0.000 A 
ENDBRANCH   1  11
BRANCH   5  13
ATOM     13  C   UNL     1      45.121   7.162  12.161  0.00  0.00    +0.000 C 
BRANCH  13  14
ATOM     14  N   UNL     1      44.831   6.590  10.855  0.00  0.00    +0.000 N 
ATOM     15  H   UNL     1      45.513   6.868  10.152  0.00  0.00    +0.000 HD
BRANCH  14  16
ATOM     16  C   UNL     1      44.529   5.221  10.779  0.00  0.00    +0.000 A 
ATOM     17  C   UNL     1      43.771   4.548  11.738  0.00  0.00    +0.000 A 
ATOM     18  C   UNL     1      43.460   3.208  11.546  0.00  0.00    +0.000 A 
ATOM     19  N   UNL     1      43.835   2.499  10.465  0.00  0.00    +0.000 NA
ATOM     20  C   UNL     1      44.524   3.170   9.523  0.00  0.00    +0.000 A 
ATOM     21  C   UNL     1      44.874   4.511   9.627  0.00  0.00    +0.000 A 
ENDBRANCH  14  16
ENDBRANCH  13  14
ENDBRANCH   5  13
TORSDOF 4
ENDMDL
MODEL 9
REMARK VINA RESULT:    -5.435      3.097      5.719
REMARK INTER + INTRA:          -7.437
REMARK INTER:                  -6.732
REMARK INTRA:                  -0.705
REMARK UNBOUND:                -0.732
REMARK  Name = 
REMARK  4 active torsions:
REMARK  status: ('A' for Active; 'I' for Inactive)
REMARK    1  A    between atoms: C_5  and  C_6
REMARK    2  A    between atoms: C_10  and  C_11
REMARK    3  A    between atoms: C_11  and  N_12
REMARK    4  A    between atoms: N_12  and  C_13
REMARK                            x       y       z     vdW  Elec       q    Type
REMARK                         _______ _______ _______ _____ _____    ______ ____
ROOT
ATOM      1  C   UNL     1      46.557   5.789  12.617  0.00  0.00    +0.000 A 
ATOM      2  C   UNL     1      47.438   5.419  13.637  0.00  0.00    +0.000 A 
ATOM      3  N   UNL     1      48.446   6.189  14.117  0.00  0.00    +0.000 NA
ATOM      4  C   UNL     1      48.589   7.413  13.571  0.00  0.00    +0.000 A 
ATOM      5  C   UNL     1      47.768   7.914  12.570  0.00  0.00    +0.000 A 
ATOM      6  C   UNL     1      46.760   7.071  12.078  0.00  0.00    +0.000 A 
ENDROOT
BRANCH   1  11
ATOM      7  C   UNL     1      43.854   4.196  10.475  0.00  0.00    +0.000 A 
ATOM      8  C   UNL     1      43.409   3.229  11.357  0.00  0.00    +0.000 A 
ATOM      9  N   UNL     1      43.925   3.055  12.589  0.00  0.00    +0.000 NA
ATOM     10  C   UNL     1      44.934   3.887  12.952  0.00  0.00    +0.000 A 
ATOM     11  C   UNL     1      45.468   4.905  12.155  0.00  0.00    +0.000 A 
ATOM     12  C   UNL     1      44.886   5.040  10.884  0.00  0.00    +0.000 A 
ENDBRANCH   1  11
BRANCH   5  13
ATOM     13  C   UNL     1      47.951   9.315  12.058  0.00  0.00    +0.000 C 
BRANCH  13  14
ATOM     14  N   UNL     1      46.932  10.196  12.608  0.00  0.00    +0.000 N 
ATOM     15  H   UNL     1      47.334  10.985  13.111  0.00  0.00    +0.000 HD
BRANCH  14  16
ATOM     16  C   UNL     1      45.874  10.592  11.774  0.00  0.00    +0.000 A 
ATOM     17  C   UNL     1      44.566  10.130  11.922  0.00  0.00    +0.000 A 
ATOM     18  C   UNL     1      43.568  10.630  11.096  0.00  0.00    +0.000 A 
ATOM     19  N   UNL     1      43.775  11.565  10.150  0.00  0.00    +0.000 NA
ATOM     20  C   UNL     1      45.031  12.040  10.049  0.00  0.00    +0.000 A 
ATOM     21  C   UNL     1      46.090  11.603  10.835  0.00  0.00    +0.000 A 
ENDBRANCH  14  16
ENDBRANCH  13  14
ENDBRANCH   5  13
TORSDOF 4
ENDMDL
