MODEL 1
REMARK VINA RESULT:    -6.772      0.000      0.000
REMARK INTER + INTRA:          -9.652
REMARK INTER:                  -8.752
REMARK INTRA:                  -0.900
REMARK UNBOUND:                -0.900
REMARK  Name = 
REMARK  5 active torsions:
REMARK  status: ('A' for Active; 'I' for Inactive)
REMARK    1  A    between atoms: C_2  and  C_4
REMARK    2  A    between atoms: C_8  and  S_9
REMARK    3  A    between atoms: S_9  and  C_10
REMARK    4  A    between atoms: C_10  and  C_11
REMARK    5  A    between atoms: C_16  and  N_17
REMARK                            x       y       z     vdW  Elec       q    Type
REMARK                         _______ _______ _______ _____ _____    ______ ____
ROOT
ATOM      1  C   UNL     1      48.798   6.799  12.894  0.00  0.00    +0.000 C 
ENDROOT
BRANCH   1   2
ATOM      2  C   UNL     1      47.347   7.133  12.593  0.00  0.00    +0.000 A 
ATOM      3  C   UNL     1      46.833   8.430  12.729  0.00  0.00    +0.000 A 
ATOM      4  C   UNL     1      45.532   8.711  12.340  0.00  0.00    +0.000 A 
ATOM      5  F   UNL     1      45.052   9.953  12.487  0.00  0.00    +0.000 F 
ATOM      6  C   UNL     1      44.734   7.738  11.758  0.00  0.00    +0.000 A 
ATOM      7  C   UNL     1      45.216   6.441  11.555  0.00  0.00    +0.000 A 
ATOM      8  C   UNL     1      46.510   6.146  12.024  0.00  0.00    +0.000 A 
BRANCH   7   9
ATOM      9  N   UNL     1      44.493   5.511  10.835  0.00  0.00    +0.000 N 
ATOM     10  C   UNL     1      43.176   5.051  11.305  0.00  0.00    +0.000 C 
ATOM     11  C   UNL     1      43.219   3.562  11.659  0.00  0.00    +0.000 C 
ATOM     12  O   UNL     1      43.703   2.781  10.554  0.00  0.00    +0.000 OA
ATOM     13  C   UNL     1      45.040   3.185  10.209  0.00  0.00    +0.000 C 
ATOM     14  C   UNL     1      45.113   4.671   9.800  0.00  0.00    +0.000 C 
ENDBRANCH   7   9
ENDBRANCH   1   2
BRANCH   1  15
ATOM     15  S   UNL     1      49.508   7.760  14.278  0.00  0.00    +0.000 S 
BRANCH  15  20
ATOM     16  C   UNL     1      47.991   4.901  16.694  0.00  0.00    +0.000 A 
ATOM     17  C   UNL     1      47.982   5.476  17.968  0.00  0.00    +0.000 A 
ATOM     18  C   UNL     1      48.426   6.790  18.135  0.00  0.00    +0.000 A 
ATOM     19  C   UNL     1      48.882   7.536  17.039  0.00  0.00    +0.000 A 
ATOM     20  C   UNL     1      48.905   6.969  15.762  0.00  0.00    +0.000 A 
ATOM     21  C   UNL     1      48.450   5.652  15.603  0.00  0.00    +0.000 A 
BRANCH  16  23
ATOM     22  N   UNL     1      46.981   2.824  17.480  0.00  0.00    +0.000 N 
ATOM     23  C   UNL     1      47.588   3.491  16.455  0.00  0.00    +0.000 C 
ATOM     24  O   UNL     1      47.764   2.950  15.374  0.00  0.00    +0.000 OA
ATOM     25  H   UNL     1      46.621   1.905  17.253  0.00  0.00    +0.000 HD
ATOM     26  H   UNL     1      46.576   3.304  18.274  0.00  0.00    +0.000 HD
ENDBRANCH  16  23
ENDBRANCH  15  20
ENDBRANCH   1  15
TORSDOF 5
ENDMDL
MODEL 2
REMARK VINA RESULT:    -6.741      1.948      2.445
REMARK INTER + INTRA:          -9.612
REMARK INTER:                  -8.794
REMARK INTRA:                  -0.818
REMARK UNBOUND:                -0.900
REMARK  Name = 
REMARK  5 active torsions:
REMARK  status: ('A' for Active; 'I' for Inactive)
REMARK    1  A    between atoms: C_2  and  C_4
REMARK    2  A    between atoms: C_8  and  S_9
REMARK    3  A    between atoms: S_9  and  C_10
REMARK    4  A    between atoms: C_10  and  C_11
REMARK    5  A    between atoms: C_16  and  N_17
REMARK                            x       y       z     vdW  Elec       q    Type
REMARK                         _______ _______ _______ _____ _____    ______ ____
ROOT
ATOM      1  C   UNL     1      49.051   7.035  14.564  0.00  0.00    +0.000 C 
ENDROOT
BRANCH   1   2
ATOM      2  C   UNL     1      47.690   7.115  13.893  0.00  0.00    +0.000 A 
ATOM      3  C   UNL     1      47.025   8.332  13.689  0.00  0.00    +0.000 A 
ATOM      4  C   UNL     1      45.836   8.368  12.977  0.00  0.00    +0.000 A 
ATOM      5  F   UNL     1      45.206   9.537  12.800  0.00  0.00    +0.000 F 
ATOM      6  C   UNL     1      45.311   7.219  12.403  0.00  0.00    +0.000 A 
ATOM      7  C   UNL     1      45.962   5.989  12.535  0.00  0.00    +0.000 A 
ATOM      8  C   UNL     1      47.126   5.949  13.325  0.00  0.00    +0.000 A 
BRANCH   7   9
ATOM      9  N   UNL     1      45.539   4.874  11.838  0.00  0.00    +0.000 N 
ATOM     10  C   UNL     1      45.045   4.991  10.457  0.00  0.00    +0.000 C 
ATOM     11  C   UNL     1      43.562   4.614  10.380  0.00  0.00    +0.000 C 
ATOM     12  O   UNL     1      43.332   3.307  10.930  0.00  0.00    +0.000 OA
ATOM     13  C   UNL     1      43.718   3.276  12.315  0.00  0.00    +0.000 C 
ATOM     14  C   UNL     1      45.211   3.610  12.512  0.00  0.00    +0.000 C 
ENDBRANCH   7   9
ENDBRANCH   1   2
BRANCH   1  15
ATOM     15  S   UNL     1      48.974   6.974  16.389  0.00  0.00    +0.000 S 
BRANCH  15  20
ATOM     16  C   UNL     1      49.630   3.092  17.290  0.00  0.00    +0.000 A 
ATOM     17  C   UNL     1      48.359   2.554  17.507  0.00  0.00    +0.000 A 
ATOM     18  C   UNL     1      47.232   3.368  17.359  0.00  0.00    +0.000 A 
ATOM     19  C   UNL     1      47.365   4.716  17.001  0.00  0.00    +0.000 A 
ATOM     20  C   UNL     1      48.631   5.268  16.792  0.00  0.00    +0.000 A 
ATOM     21  C   UNL     1      49.756   4.441  16.933  0.00  0.00    +0.000 A 
BRANCH  16  23
ATOM     22  N   UNL     1      51.833   2.821  18.302  0.00  0.00    +0.000 N 
ATOM     23  C   UNL     1      50.872   2.300  17.485  0.00  0.00    +0.000 C 
ATOM     24  O   UNL     1      51.024   1.208  16.960  0.00  0.00    +0.000 OA
ATOM     25  H   UNL     1      52.617   2.212  18.502  0.00  0.00    +0.000 HD
ATOM     26  H   UNL     1      51.640   3.567  18.959  0.00  0.00    +0.000 HD
ENDBRANCH  16  23
ENDBRANCH  15  20
ENDBRANCH   1  15
TORSDOF 5
ENDMDL
MODEL 3
REMARK VINA RESULT:    -6.441      1.505      1.986
REMARK INTER + INTRA:          -9.224
REMARK INTER:                  -8.489
REMARK INTRA:                  -0.735
REMARK UNBOUND:                -0.900
REMARK  Name = 
REMARK  5 active torsions:
REMARK  status: ('A' for Active; 'I' for Inactive)
REMARK    1  A    between atoms: C_2  and  C_4
REMARK    2  A    between atoms: C_8  and  S_9
REMARK    3  A    between atoms: S_9  and  C_10
REMARK    4  A    between atoms: C_10  and  C_11
REMARK    5  A    between atoms: C_16  and  N_17
REMARK                            x       y       z     vdW  Elec       q    Type
REMARK                         _______ _______ _______ _____ _____    ______ ____
ROOT
ATOM      1  C   UNL     1      48.524   6.688  13.233  0.00  0.00    +0.000 C 
ENDROOT
BRANCH   1   2
ATOM      2  C   UNL     1      47.121   7.050  12.778  0.00  0.00    +0.000 A 
ATOM      3  C   UNL     1      46.644   8.368  12.794  0.00  0.00    +0.000 A 
ATOM      4  C   UNL     1      45.396   8.667  12.268  0.00  0.00    +0.000 A 
ATOM      5  F   UNL     1      44.950   9.930  12.301  0.00  0.00    +0.000 F 
ATOM      6  C   UNL     1      44.621   7.688  11.665  0.00  0.00    +0.000 A 
ATOM      7  C   UNL     1      45.072   6.367  11.579  0.00  0.00    +0.000 A 
ATOM      8  C   UNL     1      46.305   6.059  12.185  0.00  0.00    +0.000 A 
BRANCH   7   9
ATOM      9  N   UNL     1      44.386   5.420  10.844  0.00  0.00    +0.000 N 
ATOM     10  C   UNL     1      43.086   4.905  11.304  0.00  0.00    +0.000 C 
ATOM     11  C   UNL     1      43.185   3.413  11.638  0.00  0.00    +0.000 C 
ATOM     12  O   UNL     1      43.700   2.667  10.524  0.00  0.00    +0.000 OA
ATOM     13  C   UNL     1      45.022   3.126  10.187  0.00  0.00    +0.000 C 
ATOM     14  C   UNL     1      45.040   4.619   9.800  0.00  0.00    +0.000 C 
ENDBRANCH   7   9
ENDBRANCH   1   2
BRANCH   1  15
ATOM     15  S   UNL     1      48.862   7.093  14.984  0.00  0.00    +0.000 S 
BRANCH  15  20
ATOM     16  C   UNL     1      48.447   4.533  18.080  0.00  0.00    +0.000 A 
ATOM     17  C   UNL     1      47.598   3.530  17.606  0.00  0.00    +0.000 A 
ATOM     18  C   UNL     1      47.130   3.589  16.290  0.00  0.00    +0.000 A 
ATOM     19  C   UNL     1      47.502   4.643  15.445  0.00  0.00    +0.000 A 
ATOM     20  C   UNL     1      48.342   5.657  15.911  0.00  0.00    +0.000 A 
ATOM     21  C   UNL     1      48.814   5.585  17.230  0.00  0.00    +0.000 A 
BRANCH  16  23
ATOM     22  N   UNL     1      48.545   3.551  20.311  0.00  0.00    +0.000 N 
ATOM     23  C   UNL     1      48.934   4.564  19.484  0.00  0.00    +0.000 C 
ATOM     24  O   UNL     1      49.678   5.446  19.884  0.00  0.00    +0.000 OA
ATOM     25  H   UNL     1      48.979   3.540  21.227  0.00  0.00    +0.000 HD
ATOM     26  H   UNL     1      48.169   2.679  19.960  0.00  0.00    +0.000 HD
ENDBRANCH  16  23
ENDBRANCH  15  20
ENDBRANCH   1  15
TORSDOF 5
ENDMDL
MODEL 4
REMARK VINA RESULT:    -6.404      3.027      5.784
REMARK INTER + INTRA:          -9.176
REMARK INTER:                  -8.218
REMARK INTRA:                  -0.958
REMARK UNBOUND:                -0.900
REMARK  Name = 
REMARK  5 active torsions:
REMARK  status: ('A' for Active; 'I' for Inactive)
REMARK    1  A    between atoms: C_2  and  C_4
REMARK    2  A    between atoms: C_8  and  S_9
REMARK    3  A    between atoms: S_9  and  C_10
REMARK    4  A    between atoms: C_10  and  C_11
REMARK    5  A    between atoms: C_16  and  N_17
REMARK                            x       y       z     vdW  Elec       q    Type
REMARK                         _______ _______ _______ _____ _____    ______ ____
ROOT
ATOM      1  C   UNL     1      48.250   8.367  11.797  0.00  0.00    +0.000 C 
ENDROOT
BRANCH   1   2
ATOM      2  C   UNL     1      47.659   7.114  12.419  0.00  0.00    +0.000 A 
ATOM      3  C   UNL     1      48.063   6.637  13.674  0.00  0.00    +0.000 A 
ATOM      4  C   UNL     1      47.421   5.552  14.250  0.00  0.00    +0.000 A 
ATOM      5  F   UNL     1      47.827   5.100  15.444  0.00  0.00    +0.000 F 
ATOM      6  C   UNL     1      46.332   4.954  13.632  0.00  0.00    +0.000 A 
ATOM      7  C   UNL     1      45.857   5.423  12.404  0.00  0.00    +0.000 A 
ATOM      8  C   UNL     1      46.565   6.475  11.790  0.00  0.00    +0.000 A 
BRANCH   7   9
ATOM      9  N   UNL     1      44.683   4.945  11.857  0.00  0.00    +0.000 N 
ATOM     10  C   UNL     1      43.673   4.285  12.700  0.00  0.00    +0.000 C 
ATOM     11  C   UNL     1      43.519   2.813  12.305  0.00  0.00    +0.000 C 
ATOM     12  O   UNL     1      43.227   2.681  10.905  0.00  0.00    +0.000 OA
ATOM     13  C   UNL     1      44.299   3.233  10.120  0.00  0.00    +0.000 C 
ATOM     14  C   UNL     1      44.525   4.731  10.412  0.00  0.00    +0.000 C 
ENDBRANCH   7   9
ENDBRANCH   1   2
BRANCH   1  15
ATOM     15  S   UNL     1      47.881   9.899  12.725  0.00  0.00    +0.000 S 
BRANCH  15  20
ATOM     16  C   UNL     1      44.329  10.442  10.881  0.00  0.00    +0.000 A 
ATOM     17  C   UNL     1      44.347  11.771  10.452  0.00  0.00    +0.000 A 
ATOM     18  C   UNL     1      45.476  12.559  10.694  0.00  0.00    +0.000 A 
ATOM     19  C   UNL     1      46.586  12.030  11.365  0.00  0.00    +0.000 A 
ATOM     20  C   UNL     1      46.576  10.705  11.808  0.00  0.00    +0.000 A 
ATOM     21  C   UNL     1      45.442   9.919  11.553  0.00  0.00    +0.000 A 
BRANCH  16  23
ATOM     22  N   UNL     1      43.280   8.243  11.012  0.00  0.00    +0.000 N 
ATOM     23  C   UNL     1      43.140   9.566  10.708  0.00  0.00    +0.000 C 
ATOM     24  O   UNL     1      42.066  10.011  10.334  0.00  0.00    +0.000 OA
ATOM     25  H   UNL     1      42.428   7.695  10.989  0.00  0.00    +0.000 HD
ATOM     26  H   UNL     1      44.047   7.895  11.573  0.00  0.00    +0.000 HD
ENDBRANCH  16  23
ENDBRANCH  15  20
ENDBRANCH   1  15
TORSDOF 5
ENDMDL
MODEL 5
REMARK VINA RESULT:    -6.042      2.390      5.901
REMARK INTER + INTRA:          -8.708
REMARK INTER:                  -7.622
REMARK INTRA:                  -1.087
REMARK UNBOUND:                -0.900
REMARK  Name = 
REMARK  5 active torsions:
REMARK  status: ('A' for Active; 'I' for Inactive)
REMARK    1  A    between atoms: C_2  and  C_4
REMARK    2  A    between atoms: C_8  and  S_9
REMARK    3  A    between atoms: S_9  and  C_10
REMARK    4  A    between atoms: C_10  and  C_11
REMARK    5  A    between atoms: C_16  and  N_17
REMARK                            x       y       z     vdW  Elec       q    Type
REMARK                         _______ _______ _______ _____ _____    ______ ____
ROOT
ATOM      1  C   UNL     1      49.660   7.469  13.380  0.00  0.00    +0.000 C 
ENDROOT
BRANCH   1   2
ATOM      2  C   UNL     1      49.320   7.708  14.841  0.00  0.00    +0.000 A 
ATOM      3  C   UNL     1      48.881   8.952  15.315  0.00  0.00    +0.000 A 
ATOM      4  C   UNL     1      48.479   9.096  16.634  0.00  0.00    +0.000 A 
ATOM      5  F   UNL     1      48.074  10.294  17.076  0.00  0.00    +0.000 F 
ATOM      6  C   UNL     1      48.445   8.008  17.494  0.00  0.00    +0.000 A 
ATOM      7  C   UNL     1      48.825   6.735  17.057  0.00  0.00    +0.000 A 
ATOM      8  C   UNL     1      49.306   6.616  15.739  0.00  0.00    +0.000 A 
BRANCH   7   9
ATOM      9  N   UNL     1      48.645   5.620  17.850  0.00  0.00    +0.000 N 
ATOM     10  C   UNL     1      49.787   4.770  18.226  0.00  0.00    +0.000 C 
ATOM     11  C   UNL     1      49.644   3.373  17.615  0.00  0.00    +0.000 C 
ATOM     12  O   UNL     1      48.385   2.779  17.972  0.00  0.00    +0.000 OA
ATOM     13  C   UNL     1      47.299   3.583  17.479  0.00  0.00    +0.000 C 
ATOM     14  C   UNL     1      47.323   5.013  18.057  0.00  0.00    +0.000 C 
ENDBRANCH   7   9
ENDBRANCH   1   2
BRANCH   1  15
ATOM     15  S   UNL     1      48.451   8.188  12.212  0.00  0.00    +0.000 S 
BRANCH  15  20
ATOM     16  C   UNL     1      46.048   5.021  12.925  0.00  0.00    +0.000 A 
ATOM     17  C   UNL     1      44.752   5.542  12.906  0.00  0.00    +0.000 A 
ATOM     18  C   UNL     1      44.560   6.902  12.646  0.00  0.00    +0.000 A 
ATOM     19  C   UNL     1      45.653   7.746  12.409  0.00  0.00    +0.000 A 
ATOM     20  C   UNL     1      46.954   7.239  12.436  0.00  0.00    +0.000 A 
ATOM     21  C   UNL     1      47.137   5.871  12.688  0.00  0.00    +0.000 A 
BRANCH  16  23
ATOM     22  N   UNL     1      45.509   2.651  12.707  0.00  0.00    +0.000 N 
ATOM     23  C   UNL     1      46.328   3.598  13.251  0.00  0.00    +0.000 C 
ATOM     24  O   UNL     1      47.273   3.277  13.956  0.00  0.00    +0.000 OA
ATOM     25  H   UNL     1      45.790   1.690  12.858  0.00  0.00    +0.000 HD
ATOM     26  H   UNL     1      44.905   2.846  11.919  0.00  0.00    +0.000 HD
ENDBRANCH  16  23
ENDBRANCH  15  20
ENDBRANCH   1  15
TORSDOF 5
ENDMDL
MODEL 6
REMARK VINA RESULT:    -5.856      3.430      7.705
REMARK INTER + INTRA:          -8.468
REMARK INTER:                  -8.012
REMARK INTRA:                  -0.457
REMARK UNBOUND:                -0.900
REMARK  Name = 
REMARK  5 active torsions:
REMARK  status: ('A' for Active; 'I' for Inactive)
REMARK    1  A    between atoms: C_2  and  C_4
REMARK    2  A    between atoms: C_8  and  S_9
REMARK    3  A    between atoms: S_9  and  C_10
REMARK    4  A    between atoms: C_10  and  C_11
REMARK    5  A    between atoms: C_16  and  N_17
REMARK                            x       y       z     vdW  Elec       q    Type
REMARK                         _______ _______ _______ _____ _____    ______ ____
ROOT
ATOM      1  C   UNL     1      45.151   5.134  11.395  0.00  0.00    +0.000 C 
ENDROOT
BRANCH   1   2
ATOM      2  C   UNL     1      45.796   6.362  12.015  0.00  0.00    +0.000 A 
ATOM      3  C   UNL     1      45.131   7.592  12.107  0.00  0.00    +0.000 A 
ATOM      4  C   UNL     1      45.716   8.655  12.777  0.00  0.00    +0.000 A 
ATOM      5  F   UNL     1      45.073   9.828  12.846  0.00  0.00    +0.000 F 
ATOM      6  C   UNL     1      46.937   8.512  13.418  0.00  0.00    +0.000 A 
ATOM      7  C   UNL     1      47.619   7.291  13.399  0.00  0.00    +0.000 A 
ATOM      8  C   UNL     1      47.053   6.241  12.650  0.00  0.00    +0.000 A 
BRANCH   7   9
ATOM      9  N   UNL     1      48.751   7.088  14.163  0.00  0.00    +0.000 N 
ATOM     10  C   UNL     1      48.667   6.419  15.472  0.00  0.00    +0.000 C 
ATOM     11  C   UNL     1      49.054   7.385  16.596  0.00  0.00    +0.000 C 
ATOM     12  O   UNL     1      50.350   7.959  16.363  0.00  0.00    +0.000 OA
ATOM     13  C   UNL     1      50.349   8.703  15.131  0.00  0.00    +0.000 C 
ATOM     14  C   UNL     1      50.002   7.818  13.915  0.00  0.00    +0.000 C 
ENDBRANCH   7   9
ENDBRANCH   1   2
BRANCH   1  15
ATOM     15  S   UNL     1      44.867   5.276   9.595  0.00  0.00    +0.000 S 
BRANCH  15  20
ATOM     16  C   UNL     1      46.573   2.504   7.204  0.00  0.00    +0.000 A 
ATOM     17  C   UNL     1      46.157   1.276   7.724  0.00  0.00    +0.000 A 
ATOM     18  C   UNL     1      45.305   1.250   8.832  0.00  0.00    +0.000 A 
ATOM     19  C   UNL     1      44.867   2.442   9.426  0.00  0.00    +0.000 A 
ATOM     20  C   UNL     1      45.285   3.675   8.921  0.00  0.00    +0.000 A 
ATOM     21  C   UNL     1      46.133   3.692   7.803  0.00  0.00    +0.000 A 
BRANCH  16  23
ATOM     22  N   UNL     1      48.847   2.402   6.327  0.00  0.00    +0.000 N 
ATOM     23  C   UNL     1      47.523   2.605   6.065  0.00  0.00    +0.000 C 
ATOM     24  O   UNL     1      47.138   2.832   4.928  0.00  0.00    +0.000 OA
ATOM     25  H   UNL     1      49.454   2.368   5.517  0.00  0.00    +0.000 HD
ATOM     26  H   UNL     1      49.169   1.949   7.173  0.00  0.00    +0.000 HD
ENDBRANCH  16  23
ENDBRANCH  15  20
ENDBRANCH   1  15
TORSDOF 5
ENDMDL
MODEL 7
REMARK VINA RESULT:    -5.842      2.218      6.451
REMARK INTER + INTRA:          -8.449
REMARK INTER:                  -7.695
REMARK INTRA:                  -0.754
REMARK UNBOUND:                -0.900
REMARK  Name = 
REMARK  5 active torsions:
REMARK  status: ('A' for Active; 'I' for Inactive)
REMARK    1  A    between atoms: C_2  and  C_4
REMARK    2  A    between atoms: C_8  and  S_9
REMARK    3  A    between atoms: S_9  and  C_10
REMARK    4  A    between atoms: C_10  and  C_11
REMARK    5  A    between atoms: C_16  and  N_17
REMARK                            x       y       z     vdW  Elec       q    Type
REMARK                         _______ _______ _______ _____ _____    ______ ____
ROOT
ATOM      1  C   UNL     1      48.696   7.961  13.715  0.00  0.00    +0.000 C 
ENDROOT
BRANCH   1   2
ATOM      2  C   UNL     1      48.681   7.939  15.234  0.00  0.00    +0.000 A 
ATOM      3  C   UNL     1      48.349   9.067  15.997  0.00  0.00    +0.000 A 
ATOM      4  C   UNL     1      48.244   8.972  17.376  0.00  0.00    +0.000 A 
ATOM      5  F   UNL     1      47.937  10.062  18.092  0.00  0.00    +0.000 F 
ATOM      6  C   UNL     1      48.404   7.756  18.024  0.00  0.00    +0.000 A 
ATOM      7  C   UNL     1      48.687   6.591  17.304  0.00  0.00    +0.000 A 
ATOM      8  C   UNL     1      48.870   6.713  15.913  0.00  0.00    +0.000 A 
BRANCH   7   9
ATOM      9  N   UNL     1      48.691   5.353  17.914  0.00  0.00    +0.000 N 
ATOM     10  C   UNL     1      49.945   4.755  18.400  0.00  0.00    +0.000 C 
ATOM     11  C   UNL     1      50.275   3.482  17.616  0.00  0.00    +0.000 C 
ATOM     12  O   UNL     1      49.181   2.552  17.655  0.00  0.00    +0.000 OA
ATOM     13  C   UNL     1      48.009   3.138  17.060  0.00  0.00    +0.000 C 
ATOM     14  C   UNL     1      47.562   4.420  17.794  0.00  0.00    +0.000 C 
ENDBRANCH   7   9
ENDBRANCH   1   2
BRANCH   1  15
ATOM     15  S   UNL     1      47.038   8.122  12.961  0.00  0.00    +0.000 S 
BRANCH  15  20
ATOM     16  C   UNL     1      44.419   5.110  12.345  0.00  0.00    +0.000 A 
ATOM     17  C   UNL     1      45.091   3.959  12.764  0.00  0.00    +0.000 A 
ATOM     18  C   UNL     1      46.385   4.066  13.281  0.00  0.00    +0.000 A 
ATOM     19  C   UNL     1      47.015   5.314  13.380  0.00  0.00    +0.000 A 
ATOM     20  C   UNL     1      46.357   6.471  12.956  0.00  0.00    +0.000 A 
ATOM     21  C   UNL     1      45.055   6.355  12.446  0.00  0.00    +0.000 A 
BRANCH  16  23
ATOM     22  N   UNL     1      42.326   6.211  11.743  0.00  0.00    +0.000 N 
ATOM     23  C   UNL     1      43.065   5.063  11.733  0.00  0.00    +0.000 C 
ATOM     24  O   UNL     1      42.634   4.046  11.212  0.00  0.00    +0.000 OA
ATOM     25  H   UNL     1      41.457   6.177  11.224  0.00  0.00    +0.000 HD
ATOM     26  H   UNL     1      42.739   7.120  11.908  0.00  0.00    +0.000 HD
ENDBRANCH  16  23
ENDBRANCH  15  20
ENDBRANCH   1  15
TORSDOF 5
ENDMDL
MODEL 8
REMARK VINA RESULT:    -5.696      4.033      6.391
REMARK INTER + INTRA:          -8.261
REMARK INTER:                  -7.587
REMARK INTRA:                  -0.674
REMARK UNBOUND:                -0.900
REMARK  Name = 
REMARK  5 active torsions:
REMARK  status: ('A' for Active; 'I' for Inactive)
REMARK    1  A    between atoms: C_2  and  C_4
REMARK    2  A    between atoms: C_8  and  S_9
REMARK    3  A    between atoms: S_9  and  C_10
REMARK    4  A    between atoms: C_10  and  C_11
REMARK    5  A    between atoms: C_16  and  N_17
REMARK                            x       y       z     vdW  Elec       q    Type
REMARK                         _______ _______ _______ _____ _____    ______ ____
ROOT
ATOM      1  C   UNL     1      46.269   8.296  13.120  0.00  0.00    +0.000 C 
ENDROOT
BRANCH   1   2
ATOM      2  C   UNL     1      46.494   9.574  12.331  0.00  0.00    +0.000 A 
ATOM      3  C   UNL     1      47.773  10.007  11.954  0.00  0.00    +0.000 A 
ATOM      4  C   UNL     1      47.924  11.121  11.143  0.00  0.00    +0.000 A 
ATOM      5  F   UNL     1      49.153  11.529  10.801  0.00  0.00    +0.000 F 
ATOM      6  C   UNL     1      46.820  11.794  10.640  0.00  0.00    +0.000 A 
ATOM      7  C   UNL     1      45.522  11.374  10.946  0.00  0.00    +0.000 A 
ATOM      8  C   UNL     1      45.381  10.289  11.833  0.00  0.00    +0.000 A 
BRANCH   7   9
ATOM      9  N   UNL     1      44.422  11.932  10.328  0.00  0.00    +0.000 N 
ATOM     10  C   UNL     1      43.208  12.255  11.096  0.00  0.00    +0.000 C 
ATOM     11  C   UNL     1      42.031  11.392  10.633  0.00  0.00    +0.000 C 
ATOM     12  O   UNL     1      41.824  11.515   9.217  0.00  0.00    +0.000 OA
ATOM     13  C   UNL     1      42.994  11.075   8.504  0.00  0.00    +0.000 C 
ATOM     14  C   UNL     1      44.245  11.901   8.869  0.00  0.00    +0.000 C 
ENDBRANCH   7   9
ENDBRANCH   1   2
BRANCH   1  15
ATOM     15  S   UNL     1      46.812   6.783  12.248  0.00  0.00    +0.000 S 
BRANCH  15  20
ATOM     16  C   UNL     1      44.229   4.155  10.594  0.00  0.00    +0.000 A 
ATOM     17  C   UNL     1      43.139   4.124  11.468  0.00  0.00    +0.000 A 
ATOM     18  C   UNL     1      43.144   4.938  12.604  0.00  0.00    +0.000 A 
ATOM     19  C   UNL     1      44.230   5.781  12.876  0.00  0.00    +0.000 A 
ATOM     20  C   UNL     1      45.329   5.812  12.015  0.00  0.00    +0.000 A 
ATOM     21  C   UNL     1      45.313   4.999  10.873  0.00  0.00    +0.000 A 
BRANCH  16  23
ATOM     22  N   UNL     1      44.350   3.873   8.174  0.00  0.00    +0.000 N 
ATOM     23  C   UNL     1      44.316   3.274   9.400  0.00  0.00    +0.000 C 
ATOM     24  O   UNL     1      44.383   2.059   9.504  0.00  0.00    +0.000 OA
ATOM     25  H   UNL     1      44.519   3.256   7.389  0.00  0.00    +0.000 HD
ATOM     26  H   UNL     1      44.572   4.853   8.056  0.00  0.00    +0.000 HD
ENDBRANCH  16  23
ENDBRANCH  15  20
ENDBRANCH   1  15
TORSDOF 5
ENDMDL
MODEL 9
REMARK VINA RESULT:    -5.450      2.145      2.851
REMARK INTER + INTRA:          -7.944
REMARK INTER:                  -7.006
REMARK INTRA:                  -0.937
REMARK UNBOUND:                -0.900
REMARK  Name = 
REMARK  5 active torsions:
REMARK  status: ('A' for Active; 'I' for Inactive)
REMARK    1  A    between atoms: C_2  and  C_4
REMARK    2  A    between atoms: C_8  and  S_9
REMARK    3  A    between atoms: S_9  and  C_10
REMARK    4  A    between atoms: C_10  and  C_11
REMARK    5  A    between atoms: C_16  and  N_17
REMARK                            x       y       z     vdW  Elec       q    Type
REMARK                         _______ _______ _______ _____ _____    ______ ____
ROOT
ATOM      1  C   UNL     1      49.623   8.418  15.736  0.00  0.00    +0.000 C 
ENDROOT
BRANCH   1   2
ATOM      2  C   UNL     1      49.065   8.010  14.383  0.00  0.00    +0.000 A 
ATOM      3  C   UNL     1      49.846   8.013  13.219  0.00  0.00    +0.000 A 
ATOM      4  C   UNL     1      49.327   7.530  12.027  0.00  0.00    +0.000 A 
ATOM      5  F   UNL     1      50.082   7.550  10.921  0.00  0.00    +0.000 F 
ATOM      6  C   UNL     1      48.055   6.982  11.971  0.00  0.00    +0.000 A 
ATOM      7  C   UNL     1      47.253   6.910  13.115  0.00  0.00    +0.000 A 
ATOM      8  C   UNL     1      47.760   7.474  14.302  0.00  0.00    +0.000 A 
BRANCH   7   9
ATOM      9  N   UNL     1      46.054   6.225  13.110  0.00  0.00    +0.000 N 
ATOM     10  C   UNL     1      45.966   4.854  13.638  0.00  0.00    +0.000 C 
ATOM     11  C   UNL     1      45.617   3.867  12.521  0.00  0.00    +0.000 C 
ATOM     12  O   UNL     1      44.416   4.263  11.838  0.00  0.00    +0.000 OA
ATOM     13  C   UNL     1      44.591   5.558  11.236  0.00  0.00    +0.000 C 
ATOM     14  C   UNL     1      44.918   6.647  12.279  0.00  0.00    +0.000 C 
ENDBRANCH   7   9
ENDBRANCH   1   2
BRANCH   1  15
ATOM     15  S   UNL     1      51.092   7.459  16.252  0.00  0.00    +0.000 S 
BRANCH  15  20
ATOM     16  C   UNL     1      49.090   4.162  17.452  0.00  0.00    +0.000 A 
ATOM     17  C   UNL     1      49.416   4.016  18.802  0.00  0.00    +0.000 A 
ATOM     18  C   UNL     1      50.257   4.951  19.413  0.00  0.00    +0.000 A 
ATOM     19  C   UNL     1      50.778   6.029  18.685  0.00  0.00    +0.000 A 
ATOM     20  C   UNL     1      50.467   6.180  17.331  0.00  0.00    +0.000 A 
ATOM     21  C   UNL     1      49.615   5.242  16.728  0.00  0.00    +0.000 A 
BRANCH  16  23
ATOM     22  N   UNL     1      46.902   3.214  16.938  0.00  0.00    +0.000 N 
ATOM     23  C   UNL     1      48.250   3.175  16.725  0.00  0.00    +0.000 C 
ATOM     24  O   UNL     1      48.736   2.373  15.943  0.00  0.00    +0.000 OA
ATOM     25  H   UNL     1      46.347   2.605  16.349  0.00  0.00    +0.000 HD
ATOM     26  H   UNL     1      46.442   4.016  17.349  0.00  0.00    +0.000 HD
ENDBRANCH  16  23
ENDBRANCH  15  20
ENDBRANCH   1  15
TORSDOF 5
ENDMDL
