MODEL 1
REMARK VINA RESULT:    -7.193      0.000      0.000
REMARK INTER + INTRA:         -10.968
REMARK INTER:                  -9.716
REMARK INTRA:                  -1.251
REMARK UNBOUND:                -1.251
REMARK  Name = 
REMARK  8 active torsions:
REMARK  status: ('A' for Active; 'I' for Inactive)
REMARK    1  A    between atoms: C_1  and  C_2
REMARK    2  A    between atoms: C_6  and  C_7
REMARK    3  A    between atoms: C_7  and  N_8
REMARK    4  A    between atoms: N_8  and  C_9
REMARK    5  A    between atoms: C_12  and  C_13
REMARK    6  A    between atoms: C_13  and  N_14
REMARK    7  A    between atoms: N_14  and  C_15
REMARK    8  A    between atoms: C_16  and  C_18
REMARK                            x       y       z     vdW  Elec       q    Type
REMARK                         _______ _______ _______ _____ _____    ______ ____
ROOT
ATOM      1  C   UNL     1      45.166   3.658  12.466  0.00  0.00    +0.000 A 
ATOM      2  C   UNL     1      44.829   5.012  12.575  0.00  0.00    +0.000 A 
ATOM      3  C   UNL     1      45.708   5.938  13.159  0.00  0.00    +0.000 A 
ATOM      4  C   UNL     1      46.960   5.532  13.636  0.00  0.00    +0.000 A 
ATOM      5  C   UNL     1      47.240   4.164  13.655  0.00  0.00    +0.000 A 
ATOM      6  C   UNL     1      46.345   3.243  13.100  0.00  0.00    +0.000 A 
ENDROOT
BRANCH   1   7
ATOM      7  N   UNL     1      44.263   2.760  11.867  0.00  0.00    +0.000 N 
ATOM      8  H   UNL     1      43.505   2.534  12.509  0.00  0.00    +0.000 HD
BRANCH   7   9
ATOM      9  C   UNL     1      43.707   3.133  10.557  0.00  0.00    +0.000 C 
BRANCH   9  15
ATOM     10  C   UNL     1      46.700   0.528   7.709  0.00  0.00    +0.000 C 
ATOM     11  C   UNL     1      46.193   1.882   8.104  0.00  0.00    +0.000 A 
ATOM     12  C   UNL     1      46.659   3.032   7.477  0.00  0.00    +0.000 A 
ATOM     13  C   UNL     1      46.151   4.264   7.877  0.00  0.00    +0.000 A 
ATOM     14  C   UNL     1      45.195   4.313   8.889  0.00  0.00    +0.000 A 
ATOM     15  C   UNL     1      44.775   3.121   9.477  0.00  0.00    +0.000 A 
ATOM     16  N   UNL     1      45.265   1.913   9.093  0.00  0.00    +0.000 NA
ENDBRANCH   9  15
ENDBRANCH   7   9
ENDBRANCH   1   7
BRANCH   4  17
ATOM     17  C   UNL     1      48.008   6.545  14.043  0.00  0.00    +0.000 C 
BRANCH  17  18
ATOM     18  N   UNL     1      48.164   7.655  13.113  0.00  0.00    +0.000 N 
ATOM     19  C   UNL     1      48.456   7.319  11.728  0.00  0.00    +0.000 C 
ATOM     20  C   UNL     1      47.906   8.940  13.601  0.00  0.00    +0.000 C 
ATOM     21  O   UNL     1      47.656   9.138  14.785  0.00  0.00    +0.000 OA
BRANCH  20  22
ATOM     22  C   UNL     1      47.871  10.070  12.658  0.00  0.00    +0.000 A 
ATOM     23  C   UNL     1      48.973  10.815  12.256  0.00  0.00    +0.000 A 
ATOM     24  S   UNL     1      48.611  12.017  11.106  0.00  0.00    +0.000 S 
ATOM     25  C   UNL     1      47.009  11.478  10.987  0.00  0.00    +0.000 A 
ATOM     26  N   UNL     1      46.169  12.007  10.053  0.00  0.00    +0.000 NA
ATOM     27  C   UNL     1      45.001  11.460  10.037  0.00  0.00    +0.000 A 
ATOM     28  N   UNL     1      44.581  10.477  10.894  0.00  0.00    +0.000 N 
ATOM     29  C   UNL     1      45.348  10.003  11.932  0.00  0.00    +0.000 A 
ATOM     30  O   UNL     1      44.854   9.297  12.806  0.00  0.00    +0.000 OA
ATOM     31  C   UNL     1      46.718  10.488  11.902  0.00  0.00    +0.000 A 
ATOM     32  H   UNL     1      43.622  10.148  10.876  0.00  0.00    +0.000 HD
ENDBRANCH  20  22
ENDBRANCH  17  18
ENDBRANCH   4  17
TORSDOF 6
ENDMDL
MODEL 2
REMARK VINA RESULT:    -7.058      3.077      5.020
REMARK INTER + INTRA:         -10.785
REMARK INTER:                  -9.892
REMARK INTRA:                  -0.893
REMARK UNBOUND:                -1.251
REMARK  Name = 
REMARK  8 active torsions:
REMARK  status: ('A' for Active; 'I' for Inactive)
REMARK    1  A    between atoms: C_1  and  C_2
REMARK    2  A    between atoms: C_6  and  C_7
REMARK    3  A    between atoms: C_7  and  N_8
REMARK    4  A    between atoms: N_8  and  C_9
REMARK    5  A    between atoms: C_12  and  C_13
REMARK    6  A    between atoms: C_13  and  N_14
REMARK    7  A    between atoms: N_14  and  C_15
REMARK    8  A    between atoms: C_16  and  C_18
REMARK                            x       y       z     vdW  Elec       q    Type
REMARK                         _______ _______ _______ _____ _____    ______ ____
ROOT
ATOM      1  C   UNL     1      45.225   4.147  11.853  0.00  0.00    +0.000 A 
ATOM      2  C   UNL     1      44.995   5.394  11.259  0.00  0.00    +0.000 A 
ATOM      3  C   UNL     1      45.521   6.573  11.808  0.00  0.00    +0.000 A 
ATOM      4  C   UNL     1      46.312   6.532  12.964  0.00  0.00    +0.000 A 
ATOM      5  C   UNL     1      46.427   5.312  13.634  0.00  0.00    +0.000 A 
ATOM      6  C   UNL     1      45.871   4.146  13.096  0.00  0.00    +0.000 A 
ENDROOT
BRANCH   1   7
ATOM      7  N   UNL     1      44.687   2.985  11.269  0.00  0.00    +0.000 N 
ATOM      8  H   UNL     1      43.991   2.566  11.883  0.00  0.00    +0.000 HD
BRANCH   7   9
ATOM      9  C   UNL     1      44.140   3.104   9.908  0.00  0.00    +0.000 C 
BRANCH   9  15
ATOM     10  C   UNL     1      46.898  -0.228   7.638  0.00  0.00    +0.000 C 
ATOM     11  C   UNL     1      46.499   1.212   7.759  0.00  0.00    +0.000 A 
ATOM     12  C   UNL     1      47.047   2.179   6.923  0.00  0.00    +0.000 A 
ATOM     13  C   UNL     1      46.639   3.501   7.074  0.00  0.00    +0.000 A 
ATOM     14  C   UNL     1      45.699   3.819   8.051  0.00  0.00    +0.000 A 
ATOM     15  C   UNL     1      45.194   2.800   8.857  0.00  0.00    +0.000 A 
ATOM     16  N   UNL     1      45.586   1.506   8.717  0.00  0.00    +0.000 NA
ENDBRANCH   9  15
ENDBRANCH   7   9
ENDBRANCH   1   7
BRANCH   4  17
ATOM     17  C   UNL     1      47.081   7.749  13.429  0.00  0.00    +0.000 C 
BRANCH  17  18
ATOM     18  N   UNL     1      48.500   7.511  13.661  0.00  0.00    +0.000 N 
ATOM     19  C   UNL     1      49.272   6.989  12.544  0.00  0.00    +0.000 C 
ATOM     20  C   UNL     1      49.023   7.912  14.894  0.00  0.00    +0.000 C 
ATOM     21  O   UNL     1      48.302   8.353  15.783  0.00  0.00    +0.000 OA
BRANCH  20  22
ATOM     22  C   UNL     1      50.479   7.862  15.105  0.00  0.00    +0.000 A 
ATOM     23  C   UNL     1      51.390   8.801  14.639  0.00  0.00    +0.000 A 
ATOM     24  S   UNL     1      52.998   8.492  15.104  0.00  0.00    +0.000 S 
ATOM     25  C   UNL     1      52.511   7.190  16.072  0.00  0.00    +0.000 A 
ATOM     26  N   UNL     1      53.408   6.550  16.875  0.00  0.00    +0.000 NA
ATOM     27  C   UNL     1      52.886   5.621  17.600  0.00  0.00    +0.000 A 
ATOM     28  N   UNL     1      51.570   5.238  17.560  0.00  0.00    +0.000 N 
ATOM     29  C   UNL     1      50.658   5.766  16.677  0.00  0.00    +0.000 A 
ATOM     30  O   UNL     1      49.560   5.239  16.519  0.00  0.00    +0.000 OA
ATOM     31  C   UNL     1      51.166   6.911  15.941  0.00  0.00    +0.000 A 
ATOM     32  H   UNL     1      51.244   4.446  18.101  0.00  0.00    +0.000 HD
ENDBRANCH  20  22
ENDBRANCH  17  18
ENDBRANCH   4  17
TORSDOF 6
ENDMDL
MODEL 3
REMARK VINA RESULT:    -6.899      3.534      5.247
REMARK INTER + INTRA:         -10.570
REMARK INTER:                  -9.870
REMARK INTRA:                  -0.701
REMARK UNBOUND:                -1.251
REMARK  Name = 
REMARK  8 active torsions:
REMARK  status: ('A' for Active; 'I' for Inactive)
REMARK    1  A    between atoms: C_1  and  C_2
REMARK    2  A    between atoms: C_6  and  C_7
REMARK    3  A    between atoms: C_7  and  N_8
REMARK    4  A    between atoms: N_8  and  C_9
REMARK    5  A    between atoms: C_12  and  C_13
REMARK    6  A    between atoms: C_13  and  N_14
REMARK    7  A    between atoms: N_14  and  C_15
REMARK    8  A    between atoms: C_16  and  C_18
REMARK                            x       y       z     vdW  Elec       q    Type
REMARK                         _______ _______ _______ _____ _____    ______ ____
ROOT
ATOM      1  C   UNL     1      45.232   5.246  11.679  0.00  0.00    +0.000 A 
ATOM      2  C   UNL     1      45.571   6.561  11.337  0.00  0.00    +0.000 A 
ATOM      3  C   UNL     1      46.654   7.216  11.943  0.00  0.00    +0.000 A 
ATOM      4  C   UNL     1      47.442   6.562  12.899  0.00  0.00    +0.000 A 
ATOM      5  C   UNL     1      47.023   5.305  13.341  0.00  0.00    +0.000 A 
ATOM      6  C   UNL     1      45.922   4.672  12.755  0.00  0.00    +0.000 A 
ENDROOT
BRANCH   1   7
ATOM      7  N   UNL     1      44.143   4.619  11.045  0.00  0.00    +0.000 N 
ATOM      8  H   UNL     1      43.842   5.159  10.236  0.00  0.00    +0.000 HD
BRANCH   7   9
ATOM      9  C   UNL     1      44.305   3.207  10.666  0.00  0.00    +0.000 C 
BRANCH   9  15
ATOM     10  C   UNL     1      46.814   0.284   7.662  0.00  0.00    +0.000 C 
ATOM     11  C   UNL     1      46.319   1.668   7.957  0.00  0.00    +0.000 A 
ATOM     12  C   UNL     1      46.585   2.723   7.091  0.00  0.00    +0.000 A 
ATOM     13  C   UNL     1      46.098   3.987   7.409  0.00  0.00    +0.000 A 
ATOM     14  C   UNL     1      45.361   4.162   8.578  0.00  0.00    +0.000 A 
ATOM     15  C   UNL     1      45.135   3.061   9.402  0.00  0.00    +0.000 A 
ATOM     16  N   UNL     1      45.607   1.823   9.101  0.00  0.00    +0.000 NA
ENDBRANCH   9  15
ENDBRANCH   7   9
ENDBRANCH   1   7
BRANCH   4  17
ATOM     17  C   UNL     1      48.746   7.160  13.379  0.00  0.00    +0.000 C 
BRANCH  17  18
ATOM     18  N   UNL     1      48.683   7.752  14.709  0.00  0.00    +0.000 N 
ATOM     19  C   UNL     1      47.708   8.812  14.913  0.00  0.00    +0.000 C 
ATOM     20  C   UNL     1      49.479   7.177  15.704  0.00  0.00    +0.000 C 
ATOM     21  O   UNL     1      50.272   6.276  15.449  0.00  0.00    +0.000 OA
BRANCH  20  22
ATOM     22  C   UNL     1      49.313   7.619  17.098  0.00  0.00    +0.000 A 
ATOM     23  C   UNL     1      49.722   8.846  17.604  0.00  0.00    +0.000 A 
ATOM     24  S   UNL     1      49.330   9.081  19.245  0.00  0.00    +0.000 S 
ATOM     25  C   UNL     1      48.462   7.627  19.287  0.00  0.00    +0.000 A 
ATOM     26  N   UNL     1      47.742   7.283  20.392  0.00  0.00    +0.000 NA
ATOM     27  C   UNL     1      47.084   6.181  20.261  0.00  0.00    +0.000 A 
ATOM     28  N   UNL     1      47.120   5.371  19.156  0.00  0.00    +0.000 N 
ATOM     29  C   UNL     1      47.930   5.611  18.071  0.00  0.00    +0.000 A 
ATOM     30  O   UNL     1      48.102   4.748  17.214  0.00  0.00    +0.000 OA
ATOM     31  C   UNL     1      48.580   6.909  18.115  0.00  0.00    +0.000 A 
ATOM     32  H   UNL     1      46.640   4.478  19.152  0.00  0.00    +0.000 HD
ENDBRANCH  20  22
ENDBRANCH  17  18
ENDBRANCH   4  17
TORSDOF 6
ENDMDL
MODEL 4
REMARK VINA RESULT:    -6.894      3.489      5.860
REMARK INTER + INTRA:         -10.564
REMARK INTER:                  -9.425
REMARK INTRA:                  -1.139
REMARK UNBOUND:                -1.251
REMARK  Name = 
REMARK  8 active torsions:
REMARK  status: ('A' for Active; 'I' for Inactive)
REMARK    1  A    between atoms: C_1  and  C_2
REMARK    2  A    between atoms: C_6  and  C_7
REMARK    3  A    between atoms: C_7  and  N_8
REMARK    4  A    between atoms: N_8  and  C_9
REMARK    5  A    between atoms: C_12  and  C_13
REMARK    6  A    between atoms: C_13  and  N_14
REMARK    7  A    between atoms: N_14  and  C_15
REMARK    8  A    between atoms: C_16  and  C_18
REMARK                            x       y       z     vdW  Elec       q    Type
REMARK                         _______ _______ _______ _____ _____    ______ ____
ROOT
ATOM      1  C   UNL     1      45.713   7.352  11.739  0.00  0.00    +0.000 A 
ATOM      2  C   UNL     1      47.048   6.940  11.667  0.00  0.00    +0.000 A 
ATOM      3  C   UNL     1      48.046   7.553  12.440  0.00  0.00    +0.000 A 
ATOM      4  C   UNL     1      47.726   8.591  13.325  0.00  0.00    +0.000 A 
ATOM      5  C   UNL     1      46.424   9.096  13.298  0.00  0.00    +0.000 A 
ATOM      6  C   UNL     1      45.443   8.499  12.499  0.00  0.00    +0.000 A 
ENDROOT
BRANCH   1   7
ATOM      7  N   UNL     1      44.739   6.708  10.954  0.00  0.00    +0.000 N 
ATOM      8  H   UNL     1      45.036   6.666   9.981  0.00  0.00    +0.000 HD
BRANCH   7   9
ATOM      9  C   UNL     1      44.289   5.378  11.393  0.00  0.00    +0.000 C 
BRANCH   9  15
ATOM     10  C   UNL     1      46.621   4.151   7.280  0.00  0.00    +0.000 C 
ATOM     11  C   UNL     1      45.721   3.720   8.399  0.00  0.00    +0.000 A 
ATOM     12  C   UNL     1      45.247   2.415   8.475  0.00  0.00    +0.000 A 
ATOM     13  C   UNL     1      44.419   2.066   9.537  0.00  0.00    +0.000 A 
ATOM     14  C   UNL     1      44.089   3.025  10.491  0.00  0.00    +0.000 A 
ATOM     15  C   UNL     1      44.598   4.315  10.352  0.00  0.00    +0.000 A 
ATOM     16  N   UNL     1      45.407   4.666   9.318  0.00  0.00    +0.000 NA
ENDBRANCH   9  15
ENDBRANCH   7   9
ENDBRANCH   1   7
BRANCH   4  17
ATOM     17  C   UNL     1      48.734   9.096  14.335  0.00  0.00    +0.000 C 
BRANCH  17  18
ATOM     18  N   UNL     1      48.831   8.287  15.543  0.00  0.00    +0.000 N 
ATOM     19  C   UNL     1      47.889   8.582  16.611  0.00  0.00    +0.000 C 
ATOM     20  C   UNL     1      49.740   7.225  15.531  0.00  0.00    +0.000 C 
ATOM     21  O   UNL     1      50.496   7.039  14.583  0.00  0.00    +0.000 OA
BRANCH  20  22
ATOM     22  C   UNL     1      49.743   6.272  16.653  0.00  0.00    +0.000 A 
ATOM     23  C   UNL     1      50.505   6.396  17.808  0.00  0.00    +0.000 A 
ATOM     24  S   UNL     1      50.236   5.159  18.947  0.00  0.00    +0.000 S 
ATOM     25  C   UNL     1      48.982   4.513  18.009  0.00  0.00    +0.000 A 
ATOM     26  N   UNL     1      48.218   3.489  18.487  0.00  0.00    +0.000 NA
ATOM     27  C   UNL     1      47.264   3.140  17.693  0.00  0.00    +0.000 A 
ATOM     28  N   UNL     1      47.035   3.678  16.453  0.00  0.00    +0.000 N 
ATOM     29  C   UNL     1      47.855   4.621  15.878  0.00  0.00    +0.000 A 
ATOM     30  O   UNL     1      47.747   4.903  14.687  0.00  0.00    +0.000 OA
ATOM     31  C   UNL     1      48.858   5.144  16.790  0.00  0.00    +0.000 A 
ATOM     32  H   UNL     1      46.315   3.300  15.848  0.00  0.00    +0.000 HD
ENDBRANCH  20  22
ENDBRANCH  17  18
ENDBRANCH   4  17
TORSDOF 6
ENDMDL
MODEL 5
REMARK VINA RESULT:    -6.703      3.914      5.795
REMARK INTER + INTRA:         -10.305
REMARK INTER:                  -9.091
REMARK INTRA:                  -1.214
REMARK UNBOUND:                -1.251
REMARK  Name = 
REMARK  8 active torsions:
REMARK  status: ('A' for Active; 'I' for Inactive)
REMARK    1  A    between atoms: C_1  and  C_2
REMARK    2  A    between atoms: C_6  and  C_7
REMARK    3  A    between atoms: C_7  and  N_8
REMARK    4  A    between atoms: N_8  and  C_9
REMARK    5  A    between atoms: C_12  and  C_13
REMARK    6  A    between atoms: C_13  and  N_14
REMARK    7  A    between atoms: N_14  and  C_15
REMARK    8  A    between atoms: C_16  and  C_18
REMARK                            x       y       z     vdW  Elec       q    Type
REMARK                         _______ _______ _______ _____ _____    ______ ____
ROOT
ATOM      1  C   UNL     1      45.470   5.944  12.667  0.00  0.00    +0.000 A 
ATOM      2  C   UNL     1      46.258   5.193  13.547  0.00  0.00    +0.000 A 
ATOM      3  C   UNL     1      47.553   5.603  13.900  0.00  0.00    +0.000 A 
ATOM      4  C   UNL     1      48.090   6.792  13.390  0.00  0.00    +0.000 A 
ATOM      5  C   UNL     1      47.363   7.469  12.408  0.00  0.00    +0.000 A 
ATOM      6  C   UNL     1      46.086   7.035  12.038  0.00  0.00    +0.000 A 
ENDROOT
BRANCH   1   7
ATOM      7  N   UNL     1      44.173   5.506  12.343  0.00  0.00    +0.000 N 
ATOM      8  H   UNL     1      43.482   5.981  12.920  0.00  0.00    +0.000 HD
BRANCH   7   9
ATOM      9  C   UNL     1      43.770   5.575  10.930  0.00  0.00    +0.000 C 
BRANCH   9  15
ATOM     10  C   UNL     1      46.587   3.941   7.289  0.00  0.00    +0.000 C 
ATOM     11  C   UNL     1      45.658   3.605   8.416  0.00  0.00    +0.000 A 
ATOM     12  C   UNL     1      45.352   2.283   8.722  0.00  0.00    +0.000 A 
ATOM     13  C   UNL     1      44.489   2.025   9.782  0.00  0.00    +0.000 A 
ATOM     14  C   UNL     1      43.956   3.090  10.505  0.00  0.00    +0.000 A 
ATOM     15  C   UNL     1      44.302   4.390  10.142  0.00  0.00    +0.000 A 
ATOM     16  N   UNL     1      45.145   4.652   9.108  0.00  0.00    +0.000 NA
ENDBRANCH   9  15
ENDBRANCH   7   9
ENDBRANCH   1   7
BRANCH   4  17
ATOM     17  C   UNL     1      49.375   7.369  13.941  0.00  0.00    +0.000 C 
BRANCH  17  18
ATOM     18  N   UNL     1      49.297   7.792  15.334  0.00  0.00    +0.000 N 
ATOM     19  C   UNL     1      48.373   8.872  15.643  0.00  0.00    +0.000 C 
ATOM     20  C   UNL     1      50.024   7.050  16.270  0.00  0.00    +0.000 C 
ATOM     21  O   UNL     1      50.776   6.145  15.925  0.00  0.00    +0.000 OA
BRANCH  20  22
ATOM     22  C   UNL     1      49.833   7.323  17.703  0.00  0.00    +0.000 A 
ATOM     23  C   UNL     1      50.471   8.325  18.422  0.00  0.00    +0.000 A 
ATOM     24  S   UNL     1      49.987   8.421  20.052  0.00  0.00    +0.000 S 
ATOM     25  C   UNL     1      48.797   7.240  19.809  0.00  0.00    +0.000 A 
ATOM     26  N   UNL     1      47.910   6.938  20.800  0.00  0.00    +0.000 NA
ATOM     27  C   UNL     1      47.024   6.067  20.456  0.00  0.00    +0.000 A 
ATOM     28  N   UNL     1      46.973   5.434  19.240  0.00  0.00    +0.000 N 
ATOM     29  C   UNL     1      47.920   5.611  18.259  0.00  0.00    +0.000 A 
ATOM     30  O   UNL     1      47.964   4.861  17.288  0.00  0.00    +0.000 OA
ATOM     31  C   UNL     1      48.854   6.686  18.548  0.00  0.00    +0.000 A 
ATOM     32  H   UNL     1      46.297   4.701  19.066  0.00  0.00    +0.000 HD
ENDBRANCH  20  22
ENDBRANCH  17  18
ENDBRANCH   4  17
TORSDOF 6
ENDMDL
MODEL 6
REMARK VINA RESULT:    -6.545      3.844      5.536
REMARK INTER + INTRA:         -10.092
REMARK INTER:                  -9.127
REMARK INTRA:                  -0.965
REMARK UNBOUND:                -1.251
REMARK  Name = 
REMARK  8 active torsions:
REMARK  status: ('A' for Active; 'I' for Inactive)
REMARK    1  A    between atoms: C_1  and  C_2
REMARK    2  A    between atoms: C_6  and  C_7
REMARK    3  A    between atoms: C_7  and  N_8
REMARK    4  A    between atoms: N_8  and  C_9
REMARK    5  A    between atoms: C_12  and  C_13
REMARK    6  A    between atoms: C_13  and  N_14
REMARK    7  A    between atoms: N_14  and  C_15
REMARK    8  A    between atoms: C_16  and  C_18
REMARK                            x       y       z     vdW  Elec       q    Type
REMARK                         _______ _______ _______ _____ _____    ______ ____
ROOT
ATOM      1  C   UNL     1      45.322   5.157  11.735  0.00  0.00    +0.000 A 
ATOM      2  C   UNL     1      45.890   6.390  11.394  0.00  0.00    +0.000 A 
ATOM      3  C   UNL     1      46.971   6.920  12.115  0.00  0.00    +0.000 A 
ATOM      4  C   UNL     1      47.525   6.217  13.192  0.00  0.00    +0.000 A 
ATOM      5  C   UNL     1      46.875   5.057  13.619  0.00  0.00    +0.000 A 
ATOM      6  C   UNL     1      45.778   4.552  12.914  0.00  0.00    +0.000 A 
ENDROOT
BRANCH   1   7
ATOM      7  N   UNL     1      44.245   4.652  10.983  0.00  0.00    +0.000 N 
ATOM      8  H   UNL     1      44.073   5.238  10.168  0.00  0.00    +0.000 HD
BRANCH   7   9
ATOM      9  C   UNL     1      44.308   3.241  10.575  0.00  0.00    +0.000 C 
BRANCH   9  15
ATOM     10  C   UNL     1      46.781   0.220   7.639  0.00  0.00    +0.000 C 
ATOM     11  C   UNL     1      46.321   1.620   7.913  0.00  0.00    +0.000 A 
ATOM     12  C   UNL     1      46.632   2.660   7.043  0.00  0.00    +0.000 A 
ATOM     13  C   UNL     1      46.177   3.940   7.342  0.00  0.00    +0.000 A 
ATOM     14  C   UNL     1      45.426   4.146   8.496  0.00  0.00    +0.000 A 
ATOM     15  C   UNL     1      45.154   3.060   9.326  0.00  0.00    +0.000 A 
ATOM     16  N   UNL     1      45.595   1.806   9.043  0.00  0.00    +0.000 NA
ENDBRANCH   9  15
ENDBRANCH   7   9
ENDBRANCH   1   7
BRANCH   4  17
ATOM     17  C   UNL     1      48.830   6.653  13.822  0.00  0.00    +0.000 C 
BRANCH  17  18
ATOM     18  N   UNL     1      48.687   7.287  15.126  0.00  0.00    +0.000 N 
ATOM     19  C   UNL     1      47.997   8.567  15.164  0.00  0.00    +0.000 C 
ATOM     20  C   UNL     1      49.119   6.562  16.241  0.00  0.00    +0.000 C 
ATOM     21  O   UNL     1      49.686   5.481  16.122  0.00  0.00    +0.000 OA
BRANCH  20  22
ATOM     22  C   UNL     1      48.828   7.080  17.588  0.00  0.00    +0.000 A 
ATOM     23  C   UNL     1      47.815   6.625  18.421  0.00  0.00    +0.000 A 
ATOM     24  S   UNL     1      47.778   7.387  19.943  0.00  0.00    +0.000 S 
ATOM     25  C   UNL     1      49.207   8.230  19.600  0.00  0.00    +0.000 A 
ATOM     26  N   UNL     1      49.813   8.984  20.561  0.00  0.00    +0.000 NA
ATOM     27  C   UNL     1      50.923   9.518  20.178  0.00  0.00    +0.000 A 
ATOM     28  N   UNL     1      51.452   9.415  18.918  0.00  0.00    +0.000 N 
ATOM     29  C   UNL     1      50.813   8.774  17.882  0.00  0.00    +0.000 A 
ATOM     30  O   UNL     1      51.208   8.902  16.727  0.00  0.00    +0.000 OA
ATOM     31  C   UNL     1      49.632   8.039  18.302  0.00  0.00    +0.000 A 
ATOM     32  H   UNL     1      52.288   9.927  18.663  0.00  0.00    +0.000 HD
ENDBRANCH  20  22
ENDBRANCH  17  18
ENDBRANCH   4  17
TORSDOF 6
ENDMDL
MODEL 7
REMARK VINA RESULT:    -6.531      5.196      7.774
REMARK INTER + INTRA:         -10.073
REMARK INTER:                  -9.079
REMARK INTRA:                  -0.994
REMARK UNBOUND:                -1.251
REMARK  Name = 
REMARK  8 active torsions:
REMARK  status: ('A' for Active; 'I' for Inactive)
REMARK    1  A    between atoms: C_1  and  C_2
REMARK    2  A    between atoms: C_6  and  C_7
REMARK    3  A    between atoms: C_7  and  N_8
REMARK    4  A    between atoms: N_8  and  C_9
REMARK    5  A    between atoms: C_12  and  C_13
REMARK    6  A    between atoms: C_13  and  N_14
REMARK    7  A    between atoms: N_14  and  C_15
REMARK    8  A    between atoms: C_16  and  C_18
REMARK                            x       y       z     vdW  Elec       q    Type
REMARK                         _______ _______ _______ _____ _____    ______ ____
ROOT
ATOM      1  C   UNL     1      47.507   6.699  13.033  0.00  0.00    +0.000 A 
ATOM      2  C   UNL     1      47.922   7.942  13.525  0.00  0.00    +0.000 A 
ATOM      3  C   UNL     1      48.397   8.088  14.837  0.00  0.00    +0.000 A 
ATOM      4  C   UNL     1      48.487   6.981  15.691  0.00  0.00    +0.000 A 
ATOM      5  C   UNL     1      47.946   5.771  15.251  0.00  0.00    +0.000 A 
ATOM      6  C   UNL     1      47.444   5.642  13.952  0.00  0.00    +0.000 A 
ENDROOT
BRANCH   1   7
ATOM      7  N   UNL     1      47.044   6.590  11.709  0.00  0.00    +0.000 N 
ATOM      8  H   UNL     1      47.458   5.780  11.252  0.00  0.00    +0.000 HD
BRANCH   7   9
ATOM      9  C   UNL     1      45.588   6.587  11.501  0.00  0.00    +0.000 C 
BRANCH   9  15
ATOM     10  C   UNL     1      45.475   3.517   7.703  0.00  0.00    +0.000 C 
ATOM     11  C   UNL     1      45.069   3.789   9.120  0.00  0.00    +0.000 A 
ATOM     12  C   UNL     1      44.337   2.857   9.847  0.00  0.00    +0.000 A 
ATOM     13  C   UNL     1      43.991   3.156  11.161  0.00  0.00    +0.000 A 
ATOM     14  C   UNL     1      44.383   4.375  11.710  0.00  0.00    +0.000 A 
ATOM     15  C   UNL     1      45.112   5.264  10.924  0.00  0.00    +0.000 A 
ATOM     16  N   UNL     1      45.455   4.981   9.639  0.00  0.00    +0.000 NA
ENDBRANCH   9  15
ENDBRANCH   7   9
ENDBRANCH   1   7
BRANCH   4  17
ATOM     17  C   UNL     1      49.216   7.071  17.014  0.00  0.00    +0.000 C 
BRANCH  17  18
ATOM     18  N   UNL     1      50.386   6.208  17.116  0.00  0.00    +0.000 N 
ATOM     19  C   UNL     1      51.514   6.523  16.254  0.00  0.00    +0.000 C 
ATOM     20  C   UNL     1      50.372   5.226  18.111  0.00  0.00    +0.000 C 
ATOM     21  O   UNL     1      49.379   5.031  18.805  0.00  0.00    +0.000 OA
BRANCH  20  22
ATOM     22  C   UNL     1      51.597   4.455  18.373  0.00  0.00    +0.000 A 
ATOM     23  C   UNL     1      52.680   4.899  19.121  0.00  0.00    +0.000 A 
ATOM     24  S   UNL     1      53.921   3.744  19.291  0.00  0.00    +0.000 S 
ATOM     25  C   UNL     1      52.985   2.565  18.513  0.00  0.00    +0.000 A 
ATOM     26  N   UNL     1      53.418   1.274  18.443  0.00  0.00    +0.000 NA
ATOM     27  C   UNL     1      52.578   0.476  17.878  0.00  0.00    +0.000 A 
ATOM     28  N   UNL     1      51.378   0.853  17.333  0.00  0.00    +0.000 N 
ATOM     29  C   UNL     1      50.959   2.161  17.266  0.00  0.00    +0.000 A 
ATOM     30  O   UNL     1      49.996   2.476  16.572  0.00  0.00    +0.000 OA
ATOM     31  C   UNL     1      51.805   3.075  18.014  0.00  0.00    +0.000 A 
ATOM     32  H   UNL     1      50.803   0.185  16.832  0.00  0.00    +0.000 HD
ENDBRANCH  20  22
ENDBRANCH  17  18
ENDBRANCH   4  17
TORSDOF 6
ENDMDL
MODEL 8
REMARK VINA RESULT:    -6.397      3.446      7.223
REMARK INTER + INTRA:          -9.893
REMARK INTER:                  -8.297
REMARK INTRA:                  -1.596
REMARK UNBOUND:                -1.251
REMARK  Name = 
REMARK  8 active torsions:
REMARK  status: ('A' for Active; 'I' for Inactive)
REMARK    1  A    between atoms: C_1  and  C_2
REMARK    2  A    between atoms: C_6  and  C_7
REMARK    3  A    between atoms: C_7  and  N_8
REMARK    4  A    between atoms: N_8  and  C_9
REMARK    5  A    between atoms: C_12  and  C_13
REMARK    6  A    between atoms: C_13  and  N_14
REMARK    7  A    between atoms: N_14  and  C_15
REMARK    8  A    between atoms: C_16  and  C_18
REMARK                            x       y       z     vdW  Elec       q    Type
REMARK                         _______ _______ _______ _____ _____    ______ ____
ROOT
ATOM      1  C   UNL     1      50.030   7.616  16.819  0.00  0.00    +0.000 A 
ATOM      2  C   UNL     1      49.098   8.659  16.781  0.00  0.00    +0.000 A 
ATOM      3  C   UNL     1      48.695   9.236  15.566  0.00  0.00    +0.000 A 
ATOM      4  C   UNL     1      49.207   8.767  14.349  0.00  0.00    +0.000 A 
ATOM      5  C   UNL     1      50.236   7.825  14.392  0.00  0.00    +0.000 A 
ATOM      6  C   UNL     1      50.654   7.278  15.610  0.00  0.00    +0.000 A 
ENDROOT
BRANCH   1   7
ATOM      7  N   UNL     1      50.403   7.057  18.055  0.00  0.00    +0.000 N 
ATOM      8  H   UNL     1      50.889   7.746  18.626  0.00  0.00    +0.000 HD
BRANCH   7   9
ATOM      9  C   UNL     1      49.348   6.411  18.850  0.00  0.00    +0.000 C 
BRANCH   9  15
ATOM     10  C   UNL     1      50.455   2.005  17.056  0.00  0.00    +0.000 C 
ATOM     11  C   UNL     1      49.390   3.015  17.357  0.00  0.00    +0.000 A 
ATOM     12  C   UNL     1      48.053   2.749  17.082  0.00  0.00    +0.000 A 
ATOM     13  C   UNL     1      47.103   3.719  17.385  0.00  0.00    +0.000 A 
ATOM     14  C   UNL     1      47.512   4.923  17.953  0.00  0.00    +0.000 A 
ATOM     15  C   UNL     1      48.868   5.125  18.199  0.00  0.00    +0.000 A 
ATOM     16  N   UNL     1      49.804   4.184  17.906  0.00  0.00    +0.000 NA
ENDBRANCH   9  15
ENDBRANCH   7   9
ENDBRANCH   1   7
BRANCH   4  17
ATOM     17  C   UNL     1      48.610   9.207  13.030  0.00  0.00    +0.000 C 
BRANCH  17  18
ATOM     18  N   UNL     1      47.741   8.218  12.404  0.00  0.00    +0.000 N 
ATOM     19  C   UNL     1      48.359   7.301  11.460  0.00  0.00    +0.000 C 
ATOM     20  C   UNL     1      46.416   8.159  12.847  0.00  0.00    +0.000 C 
ATOM     21  O   UNL     1      45.974   8.968  13.657  0.00  0.00    +0.000 OA
BRANCH  20  22
ATOM     22  C   UNL     1      45.553   7.062  12.380  0.00  0.00    +0.000 A 
ATOM     23  C   UNL     1      44.554   7.179  11.423  0.00  0.00    +0.000 A 
ATOM     24  S   UNL     1      43.775   5.710  11.055  0.00  0.00    +0.000 S 
ATOM     25  C   UNL     1      44.852   4.846  12.038  0.00  0.00    +0.000 A 
ATOM     26  N   UNL     1      44.822   3.484  12.067  0.00  0.00    +0.000 NA
ATOM     27  C   UNL     1      45.736   2.960  12.810  0.00  0.00    +0.000 A 
ATOM     28  N   UNL     1      46.637   3.666  13.563  0.00  0.00    +0.000 N 
ATOM     29  C   UNL     1      46.624   5.038  13.666  0.00  0.00    +0.000 A 
ATOM     30  O   UNL     1      47.293   5.609  14.522  0.00  0.00    +0.000 OA
ATOM     31  C   UNL     1      45.704   5.674  12.739  0.00  0.00    +0.000 A 
ATOM     32  H   UNL     1      47.278   3.190  14.187  0.00  0.00    +0.000 HD
ENDBRANCH  20  22
ENDBRANCH  17  18
ENDBRANCH   4  17
TORSDOF 6
ENDMDL
MODEL 9
REMARK VINA RESULT:    -6.388      2.824      4.092
REMARK INTER + INTRA:          -9.880
REMARK INTER:                  -9.077
REMARK INTRA:                  -0.804
REMARK UNBOUND:                -1.251
REMARK  Name = 
REMARK  8 active torsions:
REMARK  status: ('A' for Active; 'I' for Inactive)
REMARK    1  A    between atoms: C_1  and  C_2
REMARK    2  A    between atoms: C_6  and  C_7
REMARK    3  A    between atoms: C_7  and  N_8
REMARK    4  A    between atoms: N_8  and  C_9
REMARK    5  A    between atoms: C_12  and  C_13
REMARK    6  A    between atoms: C_13  and  N_14
REMARK    7  A    between atoms: N_14  and  C_15
REMARK    8  A    between atoms: C_16  and  C_18
REMARK                            x       y       z     vdW  Elec       q    Type
REMARK                         _______ _______ _______ _____ _____    ______ ____
ROOT
ATOM      1  C   UNL     1      45.289   4.173  11.612  0.00  0.00    +0.000 A 
ATOM      2  C   UNL     1      45.327   5.351  10.856  0.00  0.00    +0.000 A 
ATOM      3  C   UNL     1      45.753   6.565  11.417  0.00  0.00    +0.000 A 
ATOM      4  C   UNL     1      46.171   6.628  12.752  0.00  0.00    +0.000 A 
ATOM      5  C   UNL     1      46.004   5.490  13.543  0.00  0.00    +0.000 A 
ATOM      6  C   UNL     1      45.548   4.291  12.984  0.00  0.00    +0.000 A 
ENDROOT
BRANCH   1   7
ATOM      7  N   UNL     1      44.864   2.973  11.014  0.00  0.00    +0.000 N 
ATOM      8  H   UNL     1      44.182   2.502  11.605  0.00  0.00    +0.000 HD
BRANCH   7   9
ATOM      9  C   UNL     1      44.356   3.048   9.635  0.00  0.00    +0.000 C 
BRANCH   9  15
ATOM     10  C   UNL     1      46.905  -0.617   7.652  0.00  0.00    +0.000 C 
ATOM     11  C   UNL     1      46.611   0.853   7.670  0.00  0.00    +0.000 A 
ATOM     12  C   UNL     1      47.243   1.721   6.787  0.00  0.00    +0.000 A 
ATOM     13  C   UNL     1      46.930   3.075   6.841  0.00  0.00    +0.000 A 
ATOM     14  C   UNL     1      45.998   3.524   7.773  0.00  0.00    +0.000 A 
ATOM     15  C   UNL     1      45.404   2.600   8.631  0.00  0.00    +0.000 A 
ATOM     16  N   UNL     1      45.703   1.275   8.585  0.00  0.00    +0.000 NA
ENDBRANCH   9  15
ENDBRANCH   7   9
ENDBRANCH   1   7
BRANCH   4  17
ATOM     17  C   UNL     1      46.857   7.861  13.299  0.00  0.00    +0.000 C 
BRANCH  17  18
ATOM     18  N   UNL     1      48.270   7.679  13.605  0.00  0.00    +0.000 N 
ATOM     19  C   UNL     1      49.070   6.969  12.619  0.00  0.00    +0.000 C 
ATOM     20  C   UNL     1      48.761   8.298  14.758  0.00  0.00    +0.000 C 
ATOM     21  O   UNL     1      48.016   8.888  15.535  0.00  0.00    +0.000 OA
BRANCH  20  22
ATOM     22  C   UNL     1      50.211   8.297  15.009  0.00  0.00    +0.000 A 
ATOM     23  C   UNL     1      50.909   7.297  15.673  0.00  0.00    +0.000 A 
ATOM     24  S   UNL     1      52.590   7.561  15.747  0.00  0.00    +0.000 S 
ATOM     25  C   UNL     1      52.458   8.930  14.758  0.00  0.00    +0.000 A 
ATOM     26  N   UNL     1      53.576   9.572  14.312  0.00  0.00    +0.000 NA
ATOM     27  C   UNL     1      53.327  10.559  13.521  0.00  0.00    +0.000 A 
ATOM     28  N   UNL     1      52.073  10.995  13.177  0.00  0.00    +0.000 N 
ATOM     29  C   UNL     1      50.920  10.461  13.702  0.00  0.00    +0.000 A 
ATOM     30  O   UNL     1      49.840  11.026  13.547  0.00  0.00    +0.000 OA
ATOM     31  C   UNL     1      51.147   9.260  14.486  0.00  0.00    +0.000 A 
ATOM     32  H   UNL     1      51.951  11.828  12.613  0.00  0.00    +0.000 HD
ENDBRANCH  20  22
ENDBRANCH  17  18
ENDBRANCH   4  17
TORSDOF 6
ENDMDL
