MODEL 1
REMARK VINA RESULT:    -8.585      0.000      0.000
REMARK INTER + INTRA:         -13.017
REMARK INTER:                 -12.098
REMARK INTRA:                  -0.919
REMARK UNBOUND:                -0.919
REMARK  Name = 
REMARK  7 active torsions:
REMARK  status: ('A' for Active; 'I' for Inactive)
REMARK    1  A    between atoms: C_2  and  C_20
REMARK    2  A    between atoms: N_3  and  C_4
REMARK    3  A    between atoms: C_4  and  C_5
REMARK    4  A    between atoms: C_8  and  C_9
REMARK    5  A    between atoms: C_9  and  N_10
REMARK    6  A    between atoms: N_10  and  C_11
REMARK    7  A    between atoms: C_11  and  C_12
REMARK                            x       y       z     vdW  Elec       q    Type
REMARK                         _______ _______ _______ _____ _____    ______ ____
ROOT
ATOM      1  C   UNL     1      47.985   6.341  14.057  0.00  0.00    +0.000 C 
ENDROOT
BRANCH   1   2
ATOM      2  C   UNL     1      46.837   5.901  13.184  0.00  0.00    +0.000 A 
ATOM      3  C   UNL     1      46.701   6.412  11.888  0.00  0.00    +0.000 A 
ATOM      4  C   UNL     1      45.628   6.030  11.078  0.00  0.00    +0.000 A 
ATOM      5  C   UNL     1      44.660   5.129  11.546  0.00  0.00    +0.000 A 
ATOM      6  C   UNL     1      44.781   4.637  12.852  0.00  0.00    +0.000 A 
ATOM      7  C   UNL     1      45.856   5.023  13.665  0.00  0.00    +0.000 A 
BRANCH   5   8
ATOM      8  C   UNL     1      43.499   4.722  10.664  0.00  0.00    +0.000 C 
BRANCH   8   9
ATOM      9  N   UNL     1      43.963   4.216   9.371  0.00  0.00    +0.000 NA
ATOM     10  H   UNL     1      44.734   4.804   9.049  0.00  0.00    +0.000 HD
BRANCH   9  11
ATOM     11  C   UNL     1      44.461   2.838   9.492  0.00  0.00    +0.000 C 
BRANCH  11  12
ATOM     12  C   UNL     1      45.546   2.522   8.477  0.00  0.00    +0.000 A 
ATOM     13  C   UNL     1      46.028   3.519   7.630  0.00  0.00    +0.000 A 
ATOM     14  C   UNL     1      47.017   3.200   6.704  0.00  0.00    +0.000 A 
ATOM     15  C   UNL     1      47.496   1.898   6.641  0.00  0.00    +0.000 A 
ATOM     16  C   UNL     1      46.964   0.965   7.516  0.00  0.00    +0.000 A 
ATOM     17  N   UNL     1      46.005   1.245   8.429  0.00  0.00    +0.000 NA
ENDBRANCH  11  12
ENDBRANCH   9  11
ENDBRANCH   8   9
ENDBRANCH   5   8
ENDBRANCH   1   2
BRANCH   1  20
ATOM     18  O   UNL     1      49.992   6.267  16.033  0.00  0.00    +0.000 OA
ATOM     19  C   UNL     1      48.923   5.714  16.256  0.00  0.00    +0.000 C 
ATOM     20  N   UNL     1      47.876   5.755  15.367  0.00  0.00    +0.000 N 
ATOM     21  H   UNL     1      47.013   5.274  15.596  0.00  0.00    +0.000 HD
BRANCH  19  22
ATOM     22  C   UNL     1      48.687   4.917  17.462  0.00  0.00    +0.000 A 
ATOM     23  C   UNL     1      48.642   3.540  17.584  0.00  0.00    +0.000 A 
ATOM     24 CL   UNL     1      48.752   2.250  16.475  0.00  0.00    +0.000 Cl
ATOM     25  N   UNL     1      48.510   3.184  18.889  0.00  0.00    +0.000 N 
ATOM     26  C   UNL     1      48.455   4.310  19.654  0.00  0.00    +0.000 A 
ATOM     27  N   UNL     1      48.379   4.302  20.997  0.00  0.00    +0.000 NA
ATOM     28  C   UNL     1      48.318   5.544  21.526  0.00  0.00    +0.000 A 
ATOM     29  C   UNL     1      48.289   6.728  20.803  0.00  0.00    +0.000 A 
ATOM     30  C   UNL     1      48.376   6.677  19.410  0.00  0.00    +0.000 A 
ATOM     31  C   UNL     1      48.491   5.412  18.801  0.00  0.00    +0.000 A 
ATOM     32  H   UNL     1      48.480   2.245  19.255  0.00  0.00    +0.000 HD
ENDBRANCH  19  22
ENDBRANCH   1  20
TORSDOF 7
ENDMDL
MODEL 2
REMARK VINA RESULT:    -8.566      0.755      1.216
REMARK INTER + INTRA:         -12.990
REMARK INTER:                 -12.102
REMARK INTRA:                  -0.888
REMARK UNBOUND:                -0.919
REMARK  Name = 
REMARK  7 active torsions:
REMARK  status: ('A' for Active; 'I' for Inactive)
REMARK    1  A    between atoms: C_2  and  C_20
REMARK    2  A    between atoms: N_3  and  C_4
REMARK    3  A    between atoms: C_4  and  C_5
REMARK    4  A    between atoms: C_8  and  C_9
REMARK    5  A    between atoms: C_9  and  N_10
REMARK    6  A    between atoms: N_10  and  C_11
REMARK    7  A    between atoms: C_11  and  C_12
REMARK                            x       y       z     vdW  Elec       q    Type
REMARK                         _______ _______ _______ _____ _____    ______ ____
ROOT
ATOM      1  C   UNL     1      48.111   6.441  13.800  0.00  0.00    +0.000 C 
ENDROOT
BRANCH   1   2
ATOM      2  C   UNL     1      46.928   6.035  12.957  0.00  0.00    +0.000 A 
ATOM      3  C   UNL     1      46.051   5.042  13.408  0.00  0.00    +0.000 A 
ATOM      4  C   UNL     1      44.965   4.640  12.625  0.00  0.00    +0.000 A 
ATOM      5  C   UNL     1      44.731   5.219  11.369  0.00  0.00    +0.000 A 
ATOM      6  C   UNL     1      45.624   6.194  10.906  0.00  0.00    +0.000 A 
ATOM      7  C   UNL     1      46.714   6.595  11.690  0.00  0.00    +0.000 A 
BRANCH   5   8
ATOM      8  C   UNL     1      43.554   4.776  10.526  0.00  0.00    +0.000 C 
BRANCH   8   9
ATOM      9  N   UNL     1      43.993   4.252   9.231  0.00  0.00    +0.000 NA
ATOM     10  H   UNL     1      44.787   4.807   8.907  0.00  0.00    +0.000 HD
BRANCH   9  11
ATOM     11  C   UNL     1      44.434   2.855   9.351  0.00  0.00    +0.000 C 
BRANCH  11  12
ATOM     12  C   UNL     1      45.538   2.508   8.365  0.00  0.00    +0.000 A 
ATOM     13  C   UNL     1      45.988   3.461   7.452  0.00  0.00    +0.000 A 
ATOM     14  C   UNL     1      46.995   3.113   6.555  0.00  0.00    +0.000 A 
ATOM     15  C   UNL     1      47.522   1.830   6.587  0.00  0.00    +0.000 A 
ATOM     16  C   UNL     1      47.019   0.941   7.523  0.00  0.00    +0.000 A 
ATOM     17  N   UNL     1      46.044   1.249   8.410  0.00  0.00    +0.000 NA
ENDBRANCH  11  12
ENDBRANCH   9  11
ENDBRANCH   8   9
ENDBRANCH   5   8
ENDBRANCH   1   2
BRANCH   1  20
ATOM     18  O   UNL     1      50.027   6.330  15.863  0.00  0.00    +0.000 OA
ATOM     19  C   UNL     1      48.858   6.080  16.128  0.00  0.00    +0.000 C 
ATOM     20  N   UNL     1      47.858   6.169  15.191  0.00  0.00    +0.000 N 
ATOM     21  H   UNL     1      46.906   5.944  15.459  0.00  0.00    +0.000 HD
BRANCH  19  22
ATOM     22  C   UNL     1      48.435   5.613  17.450  0.00  0.00    +0.000 A 
ATOM     23  C   UNL     1      48.330   4.312  17.907  0.00  0.00    +0.000 A 
ATOM     24 CL   UNL     1      48.551   2.784  17.184  0.00  0.00    +0.000 Cl
ATOM     25  N   UNL     1      48.010   4.297  19.227  0.00  0.00    +0.000 N 
ATOM     26  C   UNL     1      47.886   5.579  19.669  0.00  0.00    +0.000 A 
ATOM     27  N   UNL     1      47.626   5.911  20.946  0.00  0.00    +0.000 NA
ATOM     28  C   UNL     1      47.532   7.246  21.133  0.00  0.00    +0.000 A 
ATOM     29  C   UNL     1      47.639   8.209  20.139  0.00  0.00    +0.000 A 
ATOM     30  C   UNL     1      47.914   7.807  18.830  0.00  0.00    +0.000 A 
ATOM     31  C   UNL     1      48.072   6.430  18.580  0.00  0.00    +0.000 A 
ATOM     32  H   UNL     1      47.901   3.480  19.809  0.00  0.00    +0.000 HD
ENDBRANCH  19  22
ENDBRANCH   1  20
TORSDOF 7
ENDMDL
MODEL 3
REMARK VINA RESULT:    -8.137      1.979      2.563
REMARK INTER + INTRA:         -12.386
REMARK INTER:                 -11.273
REMARK INTRA:                  -1.113
REMARK UNBOUND:                -0.919
REMARK  Name = 
REMARK  7 active torsions:
REMARK  status: ('A' for Active; 'I' for Inactive)
REMARK    1  A    between atoms: C_2  and  C_20
REMARK    2  A    between atoms: N_3  and  C_4
REMARK    3  A    between atoms: C_4  and  C_5
REMARK    4  A    between atoms: C_8  and  C_9
REMARK    5  A    between atoms: C_9  and  N_10
REMARK    6  A    between atoms: N_10  and  C_11
REMARK    7  A    between atoms: C_11  and  C_12
REMARK                            x       y       z     vdW  Elec       q    Type
REMARK                         _______ _______ _______ _____ _____    ______ ____
ROOT
ATOM      1  C   UNL     1      46.775   8.054  12.914  0.00  0.00    +0.000 C 
ENDROOT
BRANCH   1   2
ATOM      2  C   UNL     1      45.958   6.898  12.393  0.00  0.00    +0.000 A 
ATOM      3  C   UNL     1      46.134   6.447  11.080  0.00  0.00    +0.000 A 
ATOM      4  C   UNL     1      45.366   5.392  10.579  0.00  0.00    +0.000 A 
ATOM      5  C   UNL     1      44.399   4.765  11.378  0.00  0.00    +0.000 A 
ATOM      6  C   UNL     1      44.205   5.233  12.683  0.00  0.00    +0.000 A 
ATOM      7  C   UNL     1      44.973   6.293  13.185  0.00  0.00    +0.000 A 
BRANCH   5   8
ATOM      8  C   UNL     1      43.569   3.625  10.826  0.00  0.00    +0.000 C 
BRANCH   8   9
ATOM      9  N   UNL     1      43.947   3.309   9.448  0.00  0.00    +0.000 NA
ATOM     10  H   UNL     1      44.546   4.056   9.094  0.00  0.00    +0.000 HD
BRANCH   9  11
ATOM     11  C   UNL     1      44.704   2.050   9.384  0.00  0.00    +0.000 C 
BRANCH  11  12
ATOM     12  C   UNL     1      45.768   2.068   8.299  0.00  0.00    +0.000 A 
ATOM     13  C   UNL     1      46.008   3.231   7.569  0.00  0.00    +0.000 A 
ATOM     14  C   UNL     1      46.983   3.217   6.575  0.00  0.00    +0.000 A 
ATOM     15  C   UNL     1      47.690   2.047   6.333  0.00  0.00    +0.000 A 
ATOM     16  C   UNL     1      47.392   0.933   7.101  0.00  0.00    +0.000 A 
ATOM     17  N   UNL     1      46.452   0.916   8.075  0.00  0.00    +0.000 NA
ENDBRANCH  11  12
ENDBRANCH   9  11
ENDBRANCH   8   9
ENDBRANCH   5   8
ENDBRANCH   1   2
BRANCH   1  20
ATOM     18  O   UNL     1      49.056   6.453  13.329  0.00  0.00    +0.000 OA
ATOM     19  C   UNL     1      48.455   6.889  14.302  0.00  0.00    +0.000 C 
ATOM     20  N   UNL     1      47.370   7.722  14.182  0.00  0.00    +0.000 N 
ATOM     21  H   UNL     1      46.901   8.049  15.020  0.00  0.00    +0.000 HD
BRANCH  19  22
ATOM     22  C   UNL     1      48.806   6.515  15.675  0.00  0.00    +0.000 A 
ATOM     23  C   UNL     1      49.570   7.220  16.586  0.00  0.00    +0.000 A 
ATOM     24 CL   UNL     1      50.444   8.682  16.517  0.00  0.00    +0.000 Cl
ATOM     25  N   UNL     1      49.573   6.590  17.790  0.00  0.00    +0.000 N 
ATOM     26  C   UNL     1      48.824   5.456  17.701  0.00  0.00    +0.000 A 
ATOM     27  N   UNL     1      48.581   4.633  18.736  0.00  0.00    +0.000 NA
ATOM     28  C   UNL     1      47.828   3.566  18.393  0.00  0.00    +0.000 A 
ATOM     29  C   UNL     1      47.365   3.282  17.115  0.00  0.00    +0.000 A 
ATOM     30  C   UNL     1      47.643   4.176  16.078  0.00  0.00    +0.000 A 
ATOM     31  C   UNL     1      48.385   5.333  16.383  0.00  0.00    +0.000 A 
ATOM     32  H   UNL     1      50.029   6.907  18.632  0.00  0.00    +0.000 HD
ENDBRANCH  19  22
ENDBRANCH   1  20
TORSDOF 7
ENDMDL
MODEL 4
REMARK VINA RESULT:    -7.818      1.909      2.473
REMARK INTER + INTRA:         -11.935
REMARK INTER:                 -10.928
REMARK INTRA:                  -1.007
REMARK UNBOUND:                -0.919
REMARK  Name = 
REMARK  7 active torsions:
REMARK  status: ('A' for Active; 'I' for Inactive)
REMARK    1  A    between atoms: C_2  and  C_20
REMARK    2  A    between atoms: N_3  and  C_4
REMARK    3  A    between atoms: C_4  and  C_5
REMARK    4  A    between atoms: C_8  and  C_9
REMARK    5  A    between atoms: C_9  and  N_10
REMARK    6  A    between atoms: N_10  and  C_11
REMARK    7  A    between atoms: C_11  and  C_12
REMARK                            x       y       z     vdW  Elec       q    Type
REMARK                         _______ _______ _______ _____ _____    ______ ____
ROOT
ATOM      1  C   UNL     1      48.214   6.805  13.243  0.00  0.00    +0.000 C 
ENDROOT
BRANCH   1   2
ATOM      2  C   UNL     1      47.033   6.032  12.710  0.00  0.00    +0.000 A 
ATOM      3  C   UNL     1      46.552   4.916  13.404  0.00  0.00    +0.000 A 
ATOM      4  C   UNL     1      45.473   4.178  12.908  0.00  0.00    +0.000 A 
ATOM      5  C   UNL     1      44.851   4.536  11.703  0.00  0.00    +0.000 A 
ATOM      6  C   UNL     1      45.350   5.638  10.995  0.00  0.00    +0.000 A 
ATOM      7  C   UNL     1      46.433   6.376  11.491  0.00  0.00    +0.000 A 
BRANCH   5   8
ATOM      8  C   UNL     1      43.685   3.730  11.171  0.00  0.00    +0.000 C 
BRANCH   8   9
ATOM      9  N   UNL     1      43.830   3.465   9.739  0.00  0.00    +0.000 NA
ATOM     10  H   UNL     1      44.407   4.201   9.328  0.00  0.00    +0.000 HD
BRANCH   9  11
ATOM     11  C   UNL     1      44.501   2.178   9.506  0.00  0.00    +0.000 C 
BRANCH  11  12
ATOM     12  C   UNL     1      45.567   2.266   8.426  0.00  0.00    +0.000 A 
ATOM     13  C   UNL     1      45.711   3.432   7.675  0.00  0.00    +0.000 A 
ATOM     14  C   UNL     1      46.690   3.482   6.686  0.00  0.00    +0.000 A 
ATOM     15  C   UNL     1      47.496   2.373   6.469  0.00  0.00    +0.000 A 
ATOM     16  C   UNL     1      47.289   1.252   7.257  0.00  0.00    +0.000 A 
ATOM     17  N   UNL     1      46.348   1.173   8.227  0.00  0.00    +0.000 NA
ENDBRANCH  11  12
ENDBRANCH   9  11
ENDBRANCH   8   9
ENDBRANCH   5   8
ENDBRANCH   1   2
BRANCH   1  20
ATOM     18  O   UNL     1      50.302   7.311  15.066  0.00  0.00    +0.000 OA
ATOM     19  C   UNL     1      49.158   7.208  15.491  0.00  0.00    +0.000 C 
ATOM     20  N   UNL     1      48.081   7.018  14.660  0.00  0.00    +0.000 N 
ATOM     21  H   UNL     1      47.154   6.931  15.063  0.00  0.00    +0.000 HD
BRANCH  19  22
ATOM     22  C   UNL     1      48.848   7.221  16.923  0.00  0.00    +0.000 A 
ATOM     23  C   UNL     1      48.336   8.259  17.679  0.00  0.00    +0.000 A 
ATOM     24 CL   UNL     1      47.937   9.882  17.344  0.00  0.00    +0.000 Cl
ATOM     25  N   UNL     1      48.083   7.841  18.948  0.00  0.00    +0.000 N 
ATOM     26  C   UNL     1      48.430   6.529  19.061  0.00  0.00    +0.000 A 
ATOM     27  N   UNL     1      48.255   5.801  20.178  0.00  0.00    +0.000 NA
ATOM     28  C   UNL     1      48.694   4.529  20.049  0.00  0.00    +0.000 A 
ATOM     29  C   UNL     1      49.307   3.997  18.923  0.00  0.00    +0.000 A 
ATOM     30  C   UNL     1      49.458   4.799  17.789  0.00  0.00    +0.000 A 
ATOM     31  C   UNL     1      48.976   6.121  17.845  0.00  0.00    +0.000 A 
ATOM     32  H   UNL     1      47.682   8.391  19.692  0.00  0.00    +0.000 HD
ENDBRANCH  19  22
ENDBRANCH   1  20
TORSDOF 7
ENDMDL
MODEL 5
REMARK VINA RESULT:    -7.754      1.753      2.419
REMARK INTER + INTRA:         -11.846
REMARK INTER:                 -11.067
REMARK INTRA:                  -0.780
REMARK UNBOUND:                -0.919
REMARK  Name = 
REMARK  7 active torsions:
REMARK  status: ('A' for Active; 'I' for Inactive)
REMARK    1  A    between atoms: C_2  and  C_20
REMARK    2  A    between atoms: N_3  and  C_4
REMARK    3  A    between atoms: C_4  and  C_5
REMARK    4  A    between atoms: C_8  and  C_9
REMARK    5  A    between atoms: C_9  and  N_10
REMARK    6  A    between atoms: N_10  and  C_11
REMARK    7  A    between atoms: C_11  and  C_12
REMARK                            x       y       z     vdW  Elec       q    Type
REMARK                         _______ _______ _______ _____ _____    ______ ____
ROOT
ATOM      1  C   UNL     1      47.673   7.016  14.157  0.00  0.00    +0.000 C 
ENDROOT
BRANCH   1   2
ATOM      2  C   UNL     1      46.632   6.471  13.212  0.00  0.00    +0.000 A 
ATOM      3  C   UNL     1      46.389   5.093  13.150  0.00  0.00    +0.000 A 
ATOM      4  C   UNL     1      45.443   4.575  12.262  0.00  0.00    +0.000 A 
ATOM      5  C   UNL     1      44.719   5.420  11.408  0.00  0.00    +0.000 A 
ATOM      6  C   UNL     1      44.981   6.796  11.451  0.00  0.00    +0.000 A 
ATOM      7  C   UNL     1      45.931   7.316  12.340  0.00  0.00    +0.000 A 
BRANCH   5   8
ATOM      8  C   UNL     1      43.699   4.849  10.446  0.00  0.00    +0.000 C 
BRANCH   8   9
ATOM      9  N   UNL     1      44.328   4.417   9.197  0.00  0.00    +0.000 NA
ATOM     10  H   UNL     1      45.284   4.775   9.172  0.00  0.00    +0.000 HD
BRANCH   9  11
ATOM     11  C   UNL     1      44.389   2.951   9.117  0.00  0.00    +0.000 C 
BRANCH  11  12
ATOM     12  C   UNL     1      45.541   2.464   8.252  0.00  0.00    +0.000 A 
ATOM     13  C   UNL     1      46.151   3.328   7.344  0.00  0.00    +0.000 A 
ATOM     14  C   UNL     1      47.198   2.854   6.559  0.00  0.00    +0.000 A 
ATOM     15  C   UNL     1      47.606   1.534   6.694  0.00  0.00    +0.000 A 
ATOM     16  C   UNL     1      46.948   0.739   7.618  0.00  0.00    +0.000 A 
ATOM     17  N   UNL     1      45.929   1.171   8.397  0.00  0.00    +0.000 NA
ENDBRANCH  11  12
ENDBRANCH   9  11
ENDBRANCH   8   9
ENDBRANCH   5   8
ENDBRANCH   1   2
BRANCH   1  20
ATOM     18  O   UNL     1      48.764   7.372  16.731  0.00  0.00    +0.000 OA
ATOM     19  C   UNL     1      48.717   6.243  16.260  0.00  0.00    +0.000 C 
ATOM     20  N   UNL     1      48.148   5.981  15.037  0.00  0.00    +0.000 N 
ATOM     21  H   UNL     1      48.142   5.028  14.688  0.00  0.00    +0.000 HD
BRANCH  19  22
ATOM     22  C   UNL     1      49.311   5.086  16.933  0.00  0.00    +0.000 A 
ATOM     23  C   UNL     1      48.685   3.931  17.366  0.00  0.00    +0.000 A 
ATOM     24 CL   UNL     1      47.065   3.400  17.385  0.00  0.00    +0.000 Cl
ATOM     25  N   UNL     1      49.599   3.046  17.844  0.00  0.00    +0.000 N 
ATOM     26  C   UNL     1      50.842   3.596  17.748  0.00  0.00    +0.000 A 
ATOM     27  N   UNL     1      51.974   2.955  18.088  0.00  0.00    +0.000 NA
ATOM     28  C   UNL     1      53.078   3.715  17.921  0.00  0.00    +0.000 A 
ATOM     29  C   UNL     1      53.091   5.035  17.489  0.00  0.00    +0.000 A 
ATOM     30  C   UNL     1      51.884   5.649  17.145  0.00  0.00    +0.000 A 
ATOM     31  C   UNL     1      50.702   4.891  17.252  0.00  0.00    +0.000 A 
ATOM     32  H   UNL     1      49.411   2.119  18.194  0.00  0.00    +0.000 HD
ENDBRANCH  19  22
ENDBRANCH   1  20
TORSDOF 7
ENDMDL
MODEL 6
REMARK VINA RESULT:    -7.559      2.854      9.159
REMARK INTER + INTRA:         -11.571
REMARK INTER:                 -10.493
REMARK INTRA:                  -1.079
REMARK UNBOUND:                -0.919
REMARK  Name = 
REMARK  7 active torsions:
REMARK  status: ('A' for Active; 'I' for Inactive)
REMARK    1  A    between atoms: C_2  and  C_20
REMARK    2  A    between atoms: N_3  and  C_4
REMARK    3  A    between atoms: C_4  and  C_5
REMARK    4  A    between atoms: C_8  and  C_9
REMARK    5  A    between atoms: C_9  and  N_10
REMARK    6  A    between atoms: N_10  and  C_11
REMARK    7  A    between atoms: C_11  and  C_12
REMARK                            x       y       z     vdW  Elec       q    Type
REMARK                         _______ _______ _______ _____ _____    ______ ____
ROOT
ATOM      1  C   UNL     1      45.227   7.385  11.683  0.00  0.00    +0.000 C 
ENDROOT
BRANCH   1   2
ATOM      2  C   UNL     1      46.340   7.527  12.691  0.00  0.00    +0.000 A 
ATOM      3  C   UNL     1      46.703   8.794  13.164  0.00  0.00    +0.000 A 
ATOM      4  C   UNL     1      47.748   8.940  14.081  0.00  0.00    +0.000 A 
ATOM      5  C   UNL     1      48.459   7.824  14.544  0.00  0.00    +0.000 A 
ATOM      6  C   UNL     1      48.113   6.559  14.051  0.00  0.00    +0.000 A 
ATOM      7  C   UNL     1      47.067   6.412  13.130  0.00  0.00    +0.000 A 
BRANCH   5   8
ATOM      8  C   UNL     1      49.593   7.992  15.535  0.00  0.00    +0.000 C 
BRANCH   8   9
ATOM      9  N   UNL     1      50.355   6.751  15.688  0.00  0.00    +0.000 NA
ATOM     10  H   UNL     1      51.338   6.946  15.490  0.00  0.00    +0.000 HD
BRANCH   9  11
ATOM     11  C   UNL     1      50.259   6.240  17.063  0.00  0.00    +0.000 C 
BRANCH  11  12
ATOM     12  C   UNL     1      49.349   5.028  17.170  0.00  0.00    +0.000 A 
ATOM     13  C   UNL     1      47.987   5.193  17.418  0.00  0.00    +0.000 A 
ATOM     14  C   UNL     1      47.177   4.065  17.520  0.00  0.00    +0.000 A 
ATOM     15  C   UNL     1      47.743   2.806  17.376  0.00  0.00    +0.000 A 
ATOM     16  C   UNL     1      49.104   2.726  17.132  0.00  0.00    +0.000 A 
ATOM     17  N   UNL     1      49.917   3.803  17.025  0.00  0.00    +0.000 NA
ENDBRANCH  11  12
ENDBRANCH   9  11
ENDBRANCH   8   9
ENDBRANCH   5   8
ENDBRANCH   1   2
BRANCH   1  20
ATOM     18  O   UNL     1      43.115   5.684  10.917  0.00  0.00    +0.000 OA
ATOM     19  C   UNL     1      44.266   5.339  10.683  0.00  0.00    +0.000 C 
ATOM     20  N   UNL     1      45.345   6.137  10.974  0.00  0.00    +0.000 N 
ATOM     21  H   UNL     1      46.280   5.801  10.768  0.00  0.00    +0.000 HD
BRANCH  19  22
ATOM     22  C   UNL     1      44.594   4.024  10.126  0.00  0.00    +0.000 A 
ATOM     23  C   UNL     1      44.156   2.782  10.546  0.00  0.00    +0.000 A 
ATOM     24 CL   UNL     1      43.179   2.246  11.836  0.00  0.00    +0.000 Cl
ATOM     25  N   UNL     1      44.597   1.813   9.701  0.00  0.00    +0.000 N 
ATOM     26  C   UNL     1      45.341   2.388   8.715  0.00  0.00    +0.000 A 
ATOM     27  N   UNL     1      45.880   1.708   7.688  0.00  0.00    +0.000 NA
ATOM     28  C   UNL     1      46.590   2.496   6.851  0.00  0.00    +0.000 A 
ATOM     29  C   UNL     1      46.806   3.857   7.014  0.00  0.00    +0.000 A 
ATOM     30  C   UNL     1      46.217   4.514   8.098  0.00  0.00    +0.000 A 
ATOM     31  C   UNL     1      45.425   3.754   8.981  0.00  0.00    +0.000 A 
ATOM     32  H   UNL     1      44.397   0.827   9.762  0.00  0.00    +0.000 HD
ENDBRANCH  19  22
ENDBRANCH   1  20
TORSDOF 7
ENDMDL
MODEL 7
REMARK VINA RESULT:    -7.215      3.899      6.265
REMARK INTER + INTRA:         -11.086
REMARK INTER:                 -10.103
REMARK INTRA:                  -0.983
REMARK UNBOUND:                -0.919
REMARK  Name = 
REMARK  7 active torsions:
REMARK  status: ('A' for Active; 'I' for Inactive)
REMARK    1  A    between atoms: C_2  and  C_20
REMARK    2  A    between atoms: N_3  and  C_4
REMARK    3  A    between atoms: C_4  and  C_5
REMARK    4  A    between atoms: C_8  and  C_9
REMARK    5  A    between atoms: C_9  and  N_10
REMARK    6  A    between atoms: N_10  and  C_11
REMARK    7  A    between atoms: C_11  and  C_12
REMARK                            x       y       z     vdW  Elec       q    Type
REMARK                         _______ _______ _______ _____ _____    ______ ____
ROOT
ATOM      1  C   UNL     1      48.088   6.190  13.976  0.00  0.00    +0.000 C 
ENDROOT
BRANCH   1   2
ATOM      2  C   UNL     1      46.879   5.905  13.121  0.00  0.00    +0.000 A 
ATOM      3  C   UNL     1      45.891   5.022  13.571  0.00  0.00    +0.000 A 
ATOM      4  C   UNL     1      44.777   4.732  12.777  0.00  0.00    +0.000 A 
ATOM      5  C   UNL     1      44.626   5.316  11.511  0.00  0.00    +0.000 A 
ATOM      6  C   UNL     1      45.628   6.180  11.049  0.00  0.00    +0.000 A 
ATOM      7  C   UNL     1      46.746   6.468  11.844  0.00  0.00    +0.000 A 
BRANCH   5   8
ATOM      8  C   UNL     1      43.419   4.994  10.656  0.00  0.00    +0.000 C 
BRANCH   8   9
ATOM      9  N   UNL     1      43.816   4.515   9.331  0.00  0.00    +0.000 NA
ATOM     10  H   UNL     1      44.572   5.107   8.983  0.00  0.00    +0.000 HD
BRANCH   9  11
ATOM     11  C   UNL     1      44.315   3.134   9.399  0.00  0.00    +0.000 C 
BRANCH  11  12
ATOM     12  C   UNL     1      45.411   2.862   8.381  0.00  0.00    +0.000 A 
ATOM     13  C   UNL     1      46.023   1.611   8.326  0.00  0.00    +0.000 A 
ATOM     14  C   UNL     1      47.031   1.392   7.389  0.00  0.00    +0.000 A 
ATOM     15  C   UNL     1      47.404   2.423   6.538  0.00  0.00    +0.000 A 
ATOM     16  C   UNL     1      46.748   3.638   6.658  0.00  0.00    +0.000 A 
ATOM     17  N   UNL     1      45.764   3.880   7.555  0.00  0.00    +0.000 NA
ENDBRANCH  11  12
ENDBRANCH   9  11
ENDBRANCH   8   9
ENDBRANCH   5   8
ENDBRANCH   1   2
BRANCH   1  20
ATOM     18  O   UNL     1      48.252   8.962  14.451  0.00  0.00    +0.000 OA
ATOM     19  C   UNL     1      48.946   8.472  13.570  0.00  0.00    +0.000 C 
ATOM     20  N   UNL     1      48.965   7.122  13.317  0.00  0.00    +0.000 N 
ATOM     21  H   UNL     1      49.552   6.766  12.570  0.00  0.00    +0.000 HD
BRANCH  19  22
ATOM     22  C   UNL     1      49.772   9.286  12.676  0.00  0.00    +0.000 A 
ATOM     23  C   UNL     1      51.147   9.269  12.525  0.00  0.00    +0.000 A 
ATOM     24 CL   UNL     1      52.410   8.424  13.296  0.00  0.00    +0.000 Cl
ATOM     25  N   UNL     1      51.524  10.096  11.515  0.00  0.00    +0.000 N 
ATOM     26  C   UNL     1      50.415  10.683  10.984  0.00  0.00    +0.000 A 
ATOM     27  N   UNL     1      50.440  11.517   9.929  0.00  0.00    +0.000 NA
ATOM     28  C   UNL     1      49.215  11.985   9.601  0.00  0.00    +0.000 A 
ATOM     29  C   UNL     1      48.035  11.698  10.274  0.00  0.00    +0.000 A 
ATOM     30  C   UNL     1      48.068  10.820  11.360  0.00  0.00    +0.000 A 
ATOM     31  C   UNL     1      49.310  10.262  11.722  0.00  0.00    +0.000 A 
ATOM     32  H   UNL     1      52.463  10.246  11.180  0.00  0.00    +0.000 HD
ENDBRANCH  19  22
ENDBRANCH   1  20
TORSDOF 7
ENDMDL
MODEL 8
REMARK VINA RESULT:    -7.010      2.347      3.221
REMARK INTER + INTRA:         -10.798
REMARK INTER:                 -10.094
REMARK INTRA:                  -0.704
REMARK UNBOUND:                -0.919
REMARK  Name = 
REMARK  7 active torsions:
REMARK  status: ('A' for Active; 'I' for Inactive)
REMARK    1  A    between atoms: C_2  and  C_20
REMARK    2  A    between atoms: N_3  and  C_4
REMARK    3  A    between atoms: C_4  and  C_5
REMARK    4  A    between atoms: C_8  and  C_9
REMARK    5  A    between atoms: C_9  and  N_10
REMARK    6  A    between atoms: N_10  and  C_11
REMARK    7  A    between atoms: C_11  and  C_12
REMARK                            x       y       z     vdW  Elec       q    Type
REMARK                         _______ _______ _______ _____ _____    ______ ____
ROOT
ATOM      1  C   UNL     1      47.348   4.153  14.702  0.00  0.00    +0.000 C 
ENDROOT
BRANCH   1   2
ATOM      2  C   UNL     1      46.366   4.378  13.580  0.00  0.00    +0.000 A 
ATOM      3  C   UNL     1      45.798   3.287  12.912  0.00  0.00    +0.000 A 
ATOM      4  C   UNL     1      44.905   3.484  11.855  0.00  0.00    +0.000 A 
ATOM      5  C   UNL     1      44.560   4.777  11.437  0.00  0.00    +0.000 A 
ATOM      6  C   UNL     1      45.148   5.869  12.088  0.00  0.00    +0.000 A 
ATOM      7  C   UNL     1      46.046   5.672  13.146  0.00  0.00    +0.000 A 
BRANCH   5   8
ATOM      8  C   UNL     1      43.593   4.981  10.289  0.00  0.00    +0.000 C 
BRANCH   8   9
ATOM      9  N   UNL     1      43.987   4.200   9.116  0.00  0.00    +0.000 NA
ATOM     10  H   UNL     1      43.369   4.442   8.340  0.00  0.00    +0.000 HD
BRANCH   9  11
ATOM     11  C   UNL     1      45.366   4.513   8.713  0.00  0.00    +0.000 C 
BRANCH  11  12
ATOM     12  C   UNL     1      46.040   3.352   8.001  0.00  0.00    +0.000 A 
ATOM     13  C   UNL     1      46.783   3.574   6.842  0.00  0.00    +0.000 A 
ATOM     14  C   UNL     1      47.383   2.490   6.206  0.00  0.00    +0.000 A 
ATOM     15  C   UNL     1      47.225   1.217   6.736  0.00  0.00    +0.000 A 
ATOM     16  C   UNL     1      46.471   1.079   7.890  0.00  0.00    +0.000 A 
ATOM     17  N   UNL     1      45.878   2.112   8.533  0.00  0.00    +0.000 NA
ENDBRANCH  11  12
ENDBRANCH   9  11
ENDBRANCH   8   9
ENDBRANCH   5   8
ENDBRANCH   1   2
BRANCH   1  20
ATOM     18  O   UNL     1      49.299   4.601  16.685  0.00  0.00    +0.000 OA
ATOM     19  C   UNL     1      48.489   5.487  16.443  0.00  0.00    +0.000 C 
ATOM     20  N   UNL     1      47.545   5.366  15.452  0.00  0.00    +0.000 N 
ATOM     21  H   UNL     1      46.891   6.126  15.296  0.00  0.00    +0.000 HD
BRANCH  19  22
ATOM     22  C   UNL     1      48.421   6.725  17.223  0.00  0.00    +0.000 A 
ATOM     23  C   UNL     1      48.111   6.878  18.562  0.00  0.00    +0.000 A 
ATOM     24 CL   UNL     1      47.634   5.804  19.796  0.00  0.00    +0.000 Cl
ATOM     25  N   UNL     1      48.264   8.175  18.938  0.00  0.00    +0.000 N 
ATOM     26  C   UNL     1      48.664   8.907  17.860  0.00  0.00    +0.000 A 
ATOM     27  N   UNL     1      48.955  10.219  17.910  0.00  0.00    +0.000 NA
ATOM     28  C   UNL     1      49.311  10.723  16.708  0.00  0.00    +0.000 A 
ATOM     29  C   UNL     1      49.347  10.015  15.515  0.00  0.00    +0.000 A 
ATOM     30  C   UNL     1      49.040   8.653  15.523  0.00  0.00    +0.000 A 
ATOM     31  C   UNL     1      48.707   8.057  16.756  0.00  0.00    +0.000 A 
ATOM     32  H   UNL     1      48.130   8.551  19.864  0.00  0.00    +0.000 HD
ENDBRANCH  19  22
ENDBRANCH   1  20
TORSDOF 7
ENDMDL
MODEL 9
REMARK VINA RESULT:    -6.841      3.683      9.926
REMARK INTER + INTRA:         -10.559
REMARK INTER:                  -9.074
REMARK INTRA:                  -1.486
REMARK UNBOUND:                -0.919
REMARK  Name = 
REMARK  7 active torsions:
REMARK  status: ('A' for Active; 'I' for Inactive)
REMARK    1  A    between atoms: C_2  and  C_20
REMARK    2  A    between atoms: N_3  and  C_4
REMARK    3  A    between atoms: C_4  and  C_5
REMARK    4  A    between atoms: C_8  and  C_9
REMARK    5  A    between atoms: C_9  and  N_10
REMARK    6  A    between atoms: N_10  and  C_11
REMARK    7  A    between atoms: C_11  and  C_12
REMARK                            x       y       z     vdW  Elec       q    Type
REMARK                         _______ _______ _______ _____ _____    ______ ____
ROOT
ATOM      1  C   UNL     1      47.406   3.454  16.820  0.00  0.00    +0.000 C 
ENDROOT
BRANCH   1   2
ATOM      2  C   UNL     1      48.823   3.879  17.113  0.00  0.00    +0.000 A 
ATOM      3  C   UNL     1      49.193   5.224  16.994  0.00  0.00    +0.000 A 
ATOM      4  C   UNL     1      50.509   5.626  17.241  0.00  0.00    +0.000 A 
ATOM      5  C   UNL     1      51.489   4.692  17.607  0.00  0.00    +0.000 A 
ATOM      6  C   UNL     1      51.125   3.342  17.700  0.00  0.00    +0.000 A 
ATOM      7  C   UNL     1      49.806   2.939  17.451  0.00  0.00    +0.000 A 
BRANCH   5   8
ATOM      8  C   UNL     1      52.913   5.136  17.869  0.00  0.00    +0.000 C 
BRANCH   8   9
ATOM      9  N   UNL     1      52.962   6.217  18.854  0.00  0.00    +0.000 NA
ATOM     10  H   UNL     1      52.215   6.882  18.646  0.00  0.00    +0.000 HD
BRANCH   9  11
ATOM     11  C   UNL     1      52.746   5.702  20.213  0.00  0.00    +0.000 C 
BRANCH  11  12
ATOM     12  C   UNL     1      51.329   5.942  20.706  0.00  0.00    +0.000 A 
ATOM     13  C   UNL     1      50.519   4.867  21.068  0.00  0.00    +0.000 A 
ATOM     14  C   UNL     1      49.221   5.116  21.509  0.00  0.00    +0.000 A 
ATOM     15  C   UNL     1      48.764   6.425  21.573  0.00  0.00    +0.000 A 
ATOM     16  C   UNL     1      49.630   7.438  21.195  0.00  0.00    +0.000 A 
ATOM     17  N   UNL     1      50.897   7.229  20.765  0.00  0.00    +0.000 NA
ENDBRANCH  11  12
ENDBRANCH   9  11
ENDBRANCH   8   9
ENDBRANCH   5   8
ENDBRANCH   1   2
BRANCH   1  20
ATOM     18  O   UNL     1      47.342   3.104  14.025  0.00  0.00    +0.000 OA
ATOM     19  C   UNL     1      46.860   4.122  14.504  0.00  0.00    +0.000 C 
ATOM     20  N   UNL     1      46.801   4.339  15.859  0.00  0.00    +0.000 N 
ATOM     21  H   UNL     1      46.399   5.203  16.206  0.00  0.00    +0.000 HD
BRANCH  19  22
ATOM     22  C   UNL     1      46.355   5.219  13.674  0.00  0.00    +0.000 A 
ATOM     23  C   UNL     1      47.011   6.372  13.286  0.00  0.00    +0.000 A 
ATOM     24 CL   UNL     1      48.546   7.031  13.626  0.00  0.00    +0.000 Cl
ATOM     25  N   UNL     1      46.241   7.089  12.426  0.00  0.00    +0.000 N 
ATOM     26  C   UNL     1      45.061   6.436  12.235  0.00  0.00    +0.000 A 
ATOM     27  N   UNL     1      44.098   6.856  11.396  0.00  0.00    +0.000 NA
ATOM     28  C   UNL     1      43.015   6.049  11.394  0.00  0.00    +0.000 A 
ATOM     29  C   UNL     1      42.848   4.921  12.185  0.00  0.00    +0.000 A 
ATOM     30  C   UNL     1      43.885   4.528  13.036  0.00  0.00    +0.000 A 
ATOM     31  C   UNL     1      45.060   5.303  13.047  0.00  0.00    +0.000 A 
ATOM     32  H   UNL     1      46.493   7.954  11.973  0.00  0.00    +0.000 HD
ENDBRANCH  19  22
ENDBRANCH   1  20
TORSDOF 7
ENDMDL
