MODEL 1
REMARK VINA RESULT:    -7.059      0.000      0.000
REMARK INTER + INTRA:          -9.869
REMARK INTER:                  -9.123
REMARK INTRA:                  -0.746
REMARK UNBOUND:                -0.746
REMARK  Name = 
REMARK  6 active torsions:
REMARK  status: ('A' for Active; 'I' for Inactive)
REMARK    1  A    between atoms: C_1  and  C_2
REMARK    2  A    between atoms: C_5  and  N_6
REMARK    3  A    between atoms: N_6  and  C_7
REMARK    4  A    between atoms: C_7  and  C_8
REMARK    5  A    between atoms: C_12  and  C_13
REMARK    6  A    between atoms: C_17  and  N_18
REMARK                            x       y       z     vdW  Elec       q    Type
REMARK                         _______ _______ _______ _____ _____    ______ ____
ROOT
ATOM      1  C   UNL     1      47.076   4.797  14.876  0.00  0.00    +0.000 C 
ATOM      2  C   UNL     1      46.453   5.071  13.536  0.00  0.00    +0.000 A 
ATOM      3  C   UNL     1      45.587   4.096  13.033  0.00  0.00    +0.000 A 
ATOM      4  N   UNL     1      44.959   4.145  11.840  0.00  0.00    +0.000 NA
ATOM      5  C   UNL     1      45.206   5.204  11.060  0.00  0.00    +0.000 A 
ATOM      6  C   UNL     1      46.094   6.206  11.463  0.00  0.00    +0.000 A 
ATOM      7  C   UNL     1      46.727   6.189  12.727  0.00  0.00    +0.000 A 
ENDROOT
BRANCH   7   8
ATOM      8  N   UNL     1      47.613   7.196  13.079  0.00  0.00    +0.000 N 
ATOM      9  C   UNL     1      49.001   7.218  12.581  0.00  0.00    +0.000 C 
ATOM     10  C   UNL     1      49.953   7.615  13.737  0.00  0.00    +0.000 C 
ATOM     11  N   UNL     1      49.599   8.891  14.402  0.00  0.00    +0.000 NA
ATOM     12  C   UNL     1      48.182   8.831  14.830  0.00  0.00    +0.000 C 
ATOM     13  C   UNL     1      47.211   8.480  13.676  0.00  0.00    +0.000 C 
ATOM     14  H   UNL     1      49.691   9.639  13.718  0.00  0.00    +0.000 HD
ENDBRANCH   7   8
BRANCH   5  15
ATOM     15  N   UNL     1      44.638   5.263   9.770  0.00  0.00    +0.000 N 
ATOM     16  H   UNL     1      43.851   5.901   9.758  0.00  0.00    +0.000 HD
BRANCH  15  17
ATOM     17  C   UNL     1      44.246   3.944   9.274  0.00  0.00    +0.000 C 
BRANCH  17  18
ATOM     18  C   UNL     1      45.379   3.345   8.464  0.00  0.00    +0.000 A 
ATOM     19  C   UNL     1      46.201   4.144   7.657  0.00  0.00    +0.000 A 
ATOM     20  C   UNL     1      47.217   3.573   6.886  0.00  0.00    +0.000 A 
ATOM     21  C   UNL     1      47.419   2.191   6.909  0.00  0.00    +0.000 A 
ATOM     22  C   UNL     1      46.606   1.379   7.706  0.00  0.00    +0.000 A 
ATOM     23  C   UNL     1      45.591   1.954   8.477  0.00  0.00    +0.000 A 
BRANCH  22  24
ATOM     24  C   UNL     1      46.811  -0.042   7.726  0.00  0.00    +0.000 C 
ATOM     25  N   UNL     1      46.975  -1.185   7.744  0.00  0.00    +0.000 NA
ENDBRANCH  22  24
ENDBRANCH  17  18
ENDBRANCH  15  17
ENDBRANCH   5  15
TORSDOF 5
ENDMDL
MODEL 2
REMARK VINA RESULT:    -6.455      3.420      8.160
REMARK INTER + INTRA:          -9.089
REMARK INTER:                  -8.817
REMARK INTRA:                  -0.271
REMARK UNBOUND:                -0.746
REMARK  Name = 
REMARK  6 active torsions:
REMARK  status: ('A' for Active; 'I' for Inactive)
REMARK    1  A    between atoms: C_1  and  C_2
REMARK    2  A    between atoms: C_5  and  N_6
REMARK    3  A    between atoms: N_6  and  C_7
REMARK    4  A    between atoms: C_7  and  C_8
REMARK    5  A    between atoms: C_12  and  C_13
REMARK    6  A    between atoms: C_17  and  N_18
REMARK                            x       y       z     vdW  Elec       q    Type
REMARK                         _______ _______ _______ _____ _____    ______ ____
ROOT
ATOM      1  C   UNL     1      47.297   7.931  12.076  0.00  0.00    +0.000 C 
ATOM      2  C   UNL     1      47.153   6.725  12.960  0.00  0.00    +0.000 A 
ATOM      3  C   UNL     1      48.010   6.646  14.061  0.00  0.00    +0.000 A 
ATOM      4  N   UNL     1      48.056   5.631  14.948  0.00  0.00    +0.000 NA
ATOM      5  C   UNL     1      47.229   4.599  14.743  0.00  0.00    +0.000 A 
ATOM      6  C   UNL     1      46.369   4.572  13.641  0.00  0.00    +0.000 A 
ATOM      7  C   UNL     1      46.280   5.647  12.727  0.00  0.00    +0.000 A 
ENDROOT
BRANCH   7   8
ATOM      8  N   UNL     1      45.425   5.571  11.638  0.00  0.00    +0.000 N 
ATOM      9  C   UNL     1      43.972   5.779  11.776  0.00  0.00    +0.000 C 
ATOM     10  C   UNL     1      43.221   4.726  10.924  0.00  0.00    +0.000 C 
ATOM     11  N   UNL     1      43.627   4.696   9.500  0.00  0.00    +0.000 NA
ATOM     12  C   UNL     1      45.099   4.541   9.425  0.00  0.00    +0.000 C 
ATOM     13  C   UNL     1      45.867   5.615  10.234  0.00  0.00    +0.000 C 
ATOM     14  H   UNL     1      43.383   5.593   9.083  0.00  0.00    +0.000 HD
ENDBRANCH   7   8
BRANCH   5  15
ATOM     15  N   UNL     1      47.295   3.477  15.595  0.00  0.00    +0.000 N 
ATOM     16  H   UNL     1      46.411   2.981  15.596  0.00  0.00    +0.000 HD
BRANCH  15  17
ATOM     17  C   UNL     1      47.692   3.835  16.956  0.00  0.00    +0.000 C 
BRANCH  17  18
ATOM     18  C   UNL     1      49.133   3.428  17.193  0.00  0.00    +0.000 A 
ATOM     19  C   UNL     1      49.572   2.121  16.943  0.00  0.00    +0.000 A 
ATOM     20  C   UNL     1      50.895   1.750  17.202  0.00  0.00    +0.000 A 
ATOM     21  C   UNL     1      51.794   2.685  17.719  0.00  0.00    +0.000 A 
ATOM     22  C   UNL     1      51.371   3.993  17.977  0.00  0.00    +0.000 A 
ATOM     23  C   UNL     1      50.048   4.360  17.716  0.00  0.00    +0.000 A 
BRANCH  22  24
ATOM     24  C   UNL     1      52.295   4.953  18.513  0.00  0.00    +0.000 C 
ATOM     25  N   UNL     1      53.039   5.723  18.945  0.00  0.00    +0.000 NA
ENDBRANCH  22  24
ENDBRANCH  17  18
ENDBRANCH  15  17
ENDBRANCH   5  15
TORSDOF 5
ENDMDL
MODEL 3
REMARK VINA RESULT:    -6.405      1.932      2.663
REMARK INTER + INTRA:          -9.024
REMARK INTER:                  -8.413
REMARK INTRA:                  -0.611
REMARK UNBOUND:                -0.746
REMARK  Name = 
REMARK  6 active torsions:
REMARK  status: ('A' for Active; 'I' for Inactive)
REMARK    1  A    between atoms: C_1  and  C_2
REMARK    2  A    between atoms: C_5  and  N_6
REMARK    3  A    between atoms: N_6  and  C_7
REMARK    4  A    between atoms: C_7  and  C_8
REMARK    5  A    between atoms: C_12  and  C_13
REMARK    6  A    between atoms: C_17  and  N_18
REMARK                            x       y       z     vdW  Elec       q    Type
REMARK                         _______ _______ _______ _____ _____    ______ ____
ROOT
ATOM      1  C   UNL     1      45.301   4.711  13.643  0.00  0.00    +0.000 C 
ATOM      2  C   UNL     1      45.177   4.678  12.146  0.00  0.00    +0.000 A 
ATOM      3  C   UNL     1      44.730   3.482  11.578  0.00  0.00    +0.000 A 
ATOM      4  N   UNL     1      44.585   3.247  10.257  0.00  0.00    +0.000 NA
ATOM      5  C   UNL     1      44.922   4.233   9.417  0.00  0.00    +0.000 A 
ATOM      6  C   UNL     1      45.422   5.448   9.896  0.00  0.00    +0.000 A 
ATOM      7  C   UNL     1      45.540   5.723  11.278  0.00  0.00    +0.000 A 
ENDROOT
BRANCH   7   8
ATOM      8  N   UNL     1      46.056   6.937  11.707  0.00  0.00    +0.000 N 
ATOM      9  C   UNL     1      47.509   7.180  11.782  0.00  0.00    +0.000 C 
ATOM     10  C   UNL     1      47.834   7.938  13.093  0.00  0.00    +0.000 C 
ATOM     11  N   UNL     1      47.068   9.193  13.274  0.00  0.00    +0.000 NA
ATOM     12  C   UNL     1      45.623   8.897  13.134  0.00  0.00    +0.000 C 
ATOM     13  C   UNL     1      45.274   8.180  11.806  0.00  0.00    +0.000 C 
ATOM     14  H   UNL     1      47.333   9.834  12.528  0.00  0.00    +0.000 HD
ENDBRANCH   7   8
BRANCH   5  15
ATOM     15  N   UNL     1      44.866   4.009   8.026  0.00  0.00    +0.000 N 
ATOM     16  H   UNL     1      44.327   3.176   7.823  0.00  0.00    +0.000 HD
BRANCH  15  17
ATOM     17  C   UNL     1      46.195   3.929   7.422  0.00  0.00    +0.000 C 
BRANCH  17  18
ATOM     18  C   UNL     1      46.483   2.501   7.003  0.00  0.00    +0.000 A 
ATOM     19  C   UNL     1      46.608   1.475   7.950  0.00  0.00    +0.000 A 
ATOM     20  C   UNL     1      46.911   0.170   7.552  0.00  0.00    +0.000 A 
ATOM     21  C   UNL     1      47.097  -0.123   6.199  0.00  0.00    +0.000 A 
ATOM     22  C   UNL     1      46.979   0.890   5.243  0.00  0.00    +0.000 A 
ATOM     23  C   UNL     1      46.675   2.194   5.644  0.00  0.00    +0.000 A 
BRANCH  22  24
ATOM     24  C   UNL     1      47.175   0.589   3.852  0.00  0.00    +0.000 C 
ATOM     25  N   UNL     1      47.332   0.349   2.733  0.00  0.00    +0.000 NA
ENDBRANCH  22  24
ENDBRANCH  17  18
ENDBRANCH  15  17
ENDBRANCH   5  15
TORSDOF 5
ENDMDL
MODEL 4
REMARK VINA RESULT:    -6.333      4.279      8.166
REMARK INTER + INTRA:          -8.930
REMARK INTER:                  -8.301
REMARK INTRA:                  -0.629
REMARK UNBOUND:                -0.746
REMARK  Name = 
REMARK  6 active torsions:
REMARK  status: ('A' for Active; 'I' for Inactive)
REMARK    1  A    between atoms: C_1  and  C_2
REMARK    2  A    between atoms: C_5  and  N_6
REMARK    3  A    between atoms: N_6  and  C_7
REMARK    4  A    between atoms: C_7  and  C_8
REMARK    5  A    between atoms: C_12  and  C_13
REMARK    6  A    between atoms: C_17  and  N_18
REMARK                            x       y       z     vdW  Elec       q    Type
REMARK                         _______ _______ _______ _____ _____    ______ ____
ROOT
ATOM      1  C   UNL     1      46.983   6.674  11.919  0.00  0.00    +0.000 C 
ATOM      2  C   UNL     1      47.060   5.943  13.230  0.00  0.00    +0.000 A 
ATOM      3  C   UNL     1      48.126   6.271  14.071  0.00  0.00    +0.000 A 
ATOM      4  N   UNL     1      48.384   5.705  15.268  0.00  0.00    +0.000 NA
ATOM      5  C   UNL     1      47.565   4.727  15.674  0.00  0.00    +0.000 A 
ATOM      6  C   UNL     1      46.499   4.301  14.875  0.00  0.00    +0.000 A 
ATOM      7  C   UNL     1      46.192   4.914  13.638  0.00  0.00    +0.000 A 
ENDROOT
BRANCH   7   8
ATOM      8  N   UNL     1      45.135   4.448  12.870  0.00  0.00    +0.000 N 
ATOM      9  C   UNL     1      45.201   3.159  12.157  0.00  0.00    +0.000 C 
ATOM     10  C   UNL     1      44.594   3.326  10.742  0.00  0.00    +0.000 C 
ATOM     11  N   UNL     1      43.219   3.876  10.733  0.00  0.00    +0.000 NA
ATOM     12  C   UNL     1      43.202   5.138  11.508  0.00  0.00    +0.000 C 
ATOM     13  C   UNL     1      43.764   4.979  12.943  0.00  0.00    +0.000 C 
ATOM     14  H   UNL     1      42.609   3.209  11.203  0.00  0.00    +0.000 HD
ENDBRANCH   7   8
BRANCH   5  15
ATOM     15  N   UNL     1      47.838   4.047  16.879  0.00  0.00    +0.000 N 
ATOM     16  H   UNL     1      48.337   4.651  17.521  0.00  0.00    +0.000 HD
BRANCH  15  17
ATOM     17  C   UNL     1      48.573   2.802  16.660  0.00  0.00    +0.000 C 
BRANCH  17  18
ATOM     18  C   UNL     1      49.961   2.914  17.259  0.00  0.00    +0.000 A 
ATOM     19  C   UNL     1      50.416   4.112  17.827  0.00  0.00    +0.000 A 
ATOM     20  C   UNL     1      51.711   4.213  18.341  0.00  0.00    +0.000 A 
ATOM     21  C   UNL     1      52.571   3.114  18.287  0.00  0.00    +0.000 A 
ATOM     22  C   UNL     1      52.135   1.912  17.721  0.00  0.00    +0.000 A 
ATOM     23  C   UNL     1      50.838   1.815  17.209  0.00  0.00    +0.000 A 
BRANCH  22  24
ATOM     24  C   UNL     1      53.021   0.783  17.662  0.00  0.00    +0.000 C 
ATOM     25  N   UNL     1      53.736  -0.123  17.614  0.00  0.00    +0.000 NA
ENDBRANCH  22  24
ENDBRANCH  17  18
ENDBRANCH  15  17
ENDBRANCH   5  15
TORSDOF 5
ENDMDL
MODEL 5
REMARK VINA RESULT:    -6.097      3.269      7.611
REMARK INTER + INTRA:          -8.626
REMARK INTER:                  -7.944
REMARK INTRA:                  -0.682
REMARK UNBOUND:                -0.746
REMARK  Name = 
REMARK  6 active torsions:
REMARK  status: ('A' for Active; 'I' for Inactive)
REMARK    1  A    between atoms: C_1  and  C_2
REMARK    2  A    between atoms: C_5  and  N_6
REMARK    3  A    between atoms: N_6  and  C_7
REMARK    4  A    between atoms: C_7  and  C_8
REMARK    5  A    between atoms: C_12  and  C_13
REMARK    6  A    between atoms: C_17  and  N_18
REMARK                            x       y       z     vdW  Elec       q    Type
REMARK                         _______ _______ _______ _____ _____    ______ ____
ROOT
ATOM      1  C   UNL     1      44.533   8.525  11.398  0.00  0.00    +0.000 C 
ATOM      2  C   UNL     1      45.792   8.045  12.065  0.00  0.00    +0.000 A 
ATOM      3  C   UNL     1      46.775   9.005  12.317  0.00  0.00    +0.000 A 
ATOM      4  N   UNL     1      47.980   8.765  12.875  0.00  0.00    +0.000 NA
ATOM      5  C   UNL     1      48.270   7.497  13.190  0.00  0.00    +0.000 A 
ATOM      6  C   UNL     1      47.363   6.464  12.931  0.00  0.00    +0.000 A 
ATOM      7  C   UNL     1      46.081   6.706  12.385  0.00  0.00    +0.000 A 
ENDROOT
BRANCH   7   8
ATOM      8  N   UNL     1      45.220   5.650  12.130  0.00  0.00    +0.000 N 
ATOM      9  C   UNL     1      45.059   5.088  10.776  0.00  0.00    +0.000 C 
ATOM     10  C   UNL     1      43.558   4.814  10.510  0.00  0.00    +0.000 C 
ATOM     11  N   UNL     1      42.909   3.957  11.529  0.00  0.00    +0.000 NA
ATOM     12  C   UNL     1      43.150   4.539  12.870  0.00  0.00    +0.000 C 
ATOM     13  C   UNL     1      44.650   4.777  13.170  0.00  0.00    +0.000 C 
ATOM     14  H   UNL     1      43.352   3.040  11.498  0.00  0.00    +0.000 HD
ENDBRANCH   7   8
BRANCH   5  15
ATOM     15  N   UNL     1      49.547   7.183  13.700  0.00  0.00    +0.000 N 
ATOM     16  H   UNL     1      49.723   6.188  13.625  0.00  0.00    +0.000 HD
BRANCH  15  17
ATOM     17  C   UNL     1      49.723   7.640  15.078  0.00  0.00    +0.000 C 
BRANCH  17  18
ATOM     18  C   UNL     1      49.777   6.447  16.011  0.00  0.00    +0.000 A 
ATOM     19  C   UNL     1      50.970   6.068  16.642  0.00  0.00    +0.000 A 
ATOM     20  C   UNL     1      51.013   4.943  17.470  0.00  0.00    +0.000 A 
ATOM     21  C   UNL     1      49.862   4.179  17.672  0.00  0.00    +0.000 A 
ATOM     22  C   UNL     1      48.664   4.542  17.047  0.00  0.00    +0.000 A 
ATOM     23  C   UNL     1      48.624   5.668  16.221  0.00  0.00    +0.000 A 
BRANCH  22  24
ATOM     24  C   UNL     1      47.481   3.753  17.252  0.00  0.00    +0.000 C 
ATOM     25  N   UNL     1      46.529   3.119  17.414  0.00  0.00    +0.000 NA
ENDBRANCH  22  24
ENDBRANCH  17  18
ENDBRANCH  15  17
ENDBRANCH   5  15
TORSDOF 5
ENDMDL
MODEL 6
REMARK VINA RESULT:    -5.928      2.461      4.344
REMARK INTER + INTRA:          -8.407
REMARK INTER:                  -7.629
REMARK INTRA:                  -0.778
REMARK UNBOUND:                -0.746
REMARK  Name = 
REMARK  6 active torsions:
REMARK  status: ('A' for Active; 'I' for Inactive)
REMARK    1  A    between atoms: C_1  and  C_2
REMARK    2  A    between atoms: C_5  and  N_6
REMARK    3  A    between atoms: N_6  and  C_7
REMARK    4  A    between atoms: C_7  and  C_8
REMARK    5  A    between atoms: C_12  and  C_13
REMARK    6  A    between atoms: C_17  and  N_18
REMARK                            x       y       z     vdW  Elec       q    Type
REMARK                         _______ _______ _______ _____ _____    ______ ____
ROOT
ATOM      1  C   UNL     1      48.406  11.352  11.955  0.00  0.00    +0.000 C 
ATOM      2  C   UNL     1      47.427  10.212  11.983  0.00  0.00    +0.000 A 
ATOM      3  C   UNL     1      46.077  10.538  11.833  0.00  0.00    +0.000 A 
ATOM      4  N   UNL     1      45.050   9.664  11.863  0.00  0.00    +0.000 NA
ATOM      5  C   UNL     1      45.346   8.377  12.082  0.00  0.00    +0.000 A 
ATOM      6  C   UNL     1      46.667   7.966  12.289  0.00  0.00    +0.000 A 
ATOM      7  C   UNL     1      47.756   8.865  12.219  0.00  0.00    +0.000 A 
ENDROOT
BRANCH   7   8
ATOM      8  N   UNL     1      49.048   8.417  12.447  0.00  0.00    +0.000 N 
ATOM      9  C   UNL     1      49.611   8.328  13.808  0.00  0.00    +0.000 C 
ATOM     10  C   UNL     1      51.070   8.846  13.793  0.00  0.00    +0.000 C 
ATOM     11  N   UNL     1      51.943   8.171  12.804  0.00  0.00    +0.000 NA
ATOM     12  C   UNL     1      51.302   8.244  11.471  0.00  0.00    +0.000 C 
ATOM     13  C   UNL     1      49.857   7.687  11.458  0.00  0.00    +0.000 C 
ATOM     14  H   UNL     1      52.016   7.190  13.067  0.00  0.00    +0.000 HD
ENDBRANCH   7   8
BRANCH   5  15
ATOM     15  N   UNL     1      44.303   7.435  12.203  0.00  0.00    +0.000 N 
ATOM     16  H   UNL     1      43.521   7.836  12.706  0.00  0.00    +0.000 HD
BRANCH  15  17
ATOM     17  C   UNL     1      44.747   6.194  12.836  0.00  0.00    +0.000 C 
BRANCH  17  18
ATOM     18  C   UNL     1      44.517   5.028  11.894  0.00  0.00    +0.000 A 
ATOM     19  C   UNL     1      43.773   3.907  12.288  0.00  0.00    +0.000 A 
ATOM     20  C   UNL     1      43.601   2.824  11.422  0.00  0.00    +0.000 A 
ATOM     21  C   UNL     1      44.177   2.848  10.150  0.00  0.00    +0.000 A 
ATOM     22  C   UNL     1      44.925   3.957   9.742  0.00  0.00    +0.000 A 
ATOM     23  C   UNL     1      45.094   5.039  10.611  0.00  0.00    +0.000 A 
BRANCH  22  24
ATOM     24  C   UNL     1      45.521   3.979   8.436  0.00  0.00    +0.000 C 
ATOM     25  N   UNL     1      46.001   3.999   7.385  0.00  0.00    +0.000 NA
ENDBRANCH  22  24
ENDBRANCH  17  18
ENDBRANCH  15  17
ENDBRANCH   5  15
TORSDOF 5
ENDMDL
MODEL 7
REMARK VINA RESULT:    -5.893      3.744      9.419
REMARK INTER + INTRA:          -8.362
REMARK INTER:                  -7.727
REMARK INTRA:                  -0.635
REMARK UNBOUND:                -0.746
REMARK  Name = 
REMARK  6 active torsions:
REMARK  status: ('A' for Active; 'I' for Inactive)
REMARK    1  A    between atoms: C_1  and  C_2
REMARK    2  A    between atoms: C_5  and  N_6
REMARK    3  A    between atoms: N_6  and  C_7
REMARK    4  A    between atoms: C_7  and  C_8
REMARK    5  A    between atoms: C_12  and  C_13
REMARK    6  A    between atoms: C_17  and  N_18
REMARK                            x       y       z     vdW  Elec       q    Type
REMARK                         _______ _______ _______ _____ _____    ______ ____
ROOT
ATOM      1  C   UNL     1      46.728   6.925  11.786  0.00  0.00    +0.000 C 
ATOM      2  C   UNL     1      46.978   6.195  13.075  0.00  0.00    +0.000 A 
ATOM      3  C   UNL     1      48.082   6.606  13.827  0.00  0.00    +0.000 A 
ATOM      4  N   UNL     1      48.489   6.055  14.990  0.00  0.00    +0.000 NA
ATOM      5  C   UNL     1      47.792   5.010  15.451  0.00  0.00    +0.000 A 
ATOM      6  C   UNL     1      46.699   4.502  14.741  0.00  0.00    +0.000 A 
ATOM      7  C   UNL     1      46.237   5.094  13.543  0.00  0.00    +0.000 A 
ENDROOT
BRANCH   7   8
ATOM      8  N   UNL     1      45.159   4.547  12.863  0.00  0.00    +0.000 N 
ATOM      9  C   UNL     1      45.235   3.219  12.227  0.00  0.00    +0.000 C 
ATOM     10  C   UNL     1      44.550   3.276  10.839  0.00  0.00    +0.000 C 
ATOM     11  N   UNL     1      43.158   3.779  10.870  0.00  0.00    +0.000 NA
ATOM     12  C   UNL     1      43.135   5.087  11.567  0.00  0.00    +0.000 C 
ATOM     13  C   UNL     1      43.775   5.036  12.976  0.00  0.00    +0.000 C 
ATOM     14  H   UNL     1      42.598   3.123  11.412  0.00  0.00    +0.000 HD
ENDBRANCH   7   8
BRANCH   5  15
ATOM     15  N   UNL     1      48.223   4.348  16.619  0.00  0.00    +0.000 N 
ATOM     16  H   UNL     1      48.493   3.395  16.407  0.00  0.00    +0.000 HD
BRANCH  15  17
ATOM     17  C   UNL     1      47.218   4.381  17.680  0.00  0.00    +0.000 C 
BRANCH  17  18
ATOM     18  C   UNL     1      47.777   5.097  18.894  0.00  0.00    +0.000 A 
ATOM     19  C   UNL     1      48.632   4.447  19.794  0.00  0.00    +0.000 A 
ATOM     20  C   UNL     1      49.110   5.108  20.929  0.00  0.00    +0.000 A 
ATOM     21  C   UNL     1      48.732   6.429  21.179  0.00  0.00    +0.000 A 
ATOM     22  C   UNL     1      47.877   7.091  20.292  0.00  0.00    +0.000 A 
ATOM     23  C   UNL     1      47.403   6.427  19.158  0.00  0.00    +0.000 A 
BRANCH  22  24
ATOM     24  C   UNL     1      47.486   8.448  20.552  0.00  0.00    +0.000 C 
ATOM     25  N   UNL     1      47.169   9.539  20.761  0.00  0.00    +0.000 NA
ENDBRANCH  22  24
ENDBRANCH  17  18
ENDBRANCH  15  17
ENDBRANCH   5  15
TORSDOF 5
ENDMDL
MODEL 8
REMARK VINA RESULT:    -5.869      2.819      5.156
REMARK INTER + INTRA:          -8.331
REMARK INTER:                  -7.701
REMARK INTRA:                  -0.630
REMARK UNBOUND:                -0.746
REMARK  Name = 
REMARK  6 active torsions:
REMARK  status: ('A' for Active; 'I' for Inactive)
REMARK    1  A    between atoms: C_1  and  C_2
REMARK    2  A    between atoms: C_5  and  N_6
REMARK    3  A    between atoms: N_6  and  C_7
REMARK    4  A    between atoms: C_7  and  C_8
REMARK    5  A    between atoms: C_12  and  C_13
REMARK    6  A    between atoms: C_17  and  N_18
REMARK                            x       y       z     vdW  Elec       q    Type
REMARK                         _______ _______ _______ _____ _____    ______ ____
ROOT
ATOM      1  C   UNL     1      50.663   6.904  16.918  0.00  0.00    +0.000 C 
ATOM      2  C   UNL     1      49.675   6.700  15.804  0.00  0.00    +0.000 A 
ATOM      3  C   UNL     1      49.820   7.513  14.677  0.00  0.00    +0.000 A 
ATOM      4  N   UNL     1      49.017   7.502  13.593  0.00  0.00    +0.000 NA
ATOM      5  C   UNL     1      47.977   6.660  13.608  0.00  0.00    +0.000 A 
ATOM      6  C   UNL     1      47.728   5.841  14.715  0.00  0.00    +0.000 A 
ATOM      7  C   UNL     1      48.585   5.812  15.839  0.00  0.00    +0.000 A 
ENDROOT
BRANCH   7   8
ATOM      8  N   UNL     1      48.291   4.996  16.921  0.00  0.00    +0.000 N 
ATOM      9  C   UNL     1      47.733   5.538  18.174  0.00  0.00    +0.000 C 
ATOM     10  C   UNL     1      48.432   4.861  19.379  0.00  0.00    +0.000 C 
ATOM     11  N   UNL     1      48.376   3.381  19.361  0.00  0.00    +0.000 NA
ATOM     12  C   UNL     1      48.895   2.898  18.061  0.00  0.00    +0.000 C 
ATOM     13  C   UNL     1      48.175   3.530  16.844  0.00  0.00    +0.000 C 
ATOM     14  H   UNL     1      47.399   3.102  19.434  0.00  0.00    +0.000 HD
ENDBRANCH   7   8
BRANCH   5  15
ATOM     15  N   UNL     1      47.061   6.669  12.536  0.00  0.00    +0.000 N 
ATOM     16  H   UNL     1      47.130   7.536  12.017  0.00  0.00    +0.000 HD
BRANCH  15  17
ATOM     17  C   UNL     1      45.686   6.435  12.977  0.00  0.00    +0.000 C 
BRANCH  17  18
ATOM     18  C   UNL     1      45.055   5.346  12.133  0.00  0.00    +0.000 A 
ATOM     19  C   UNL     1      44.151   4.427  12.685  0.00  0.00    +0.000 A 
ATOM     20  C   UNL     1      43.607   3.404  11.904  0.00  0.00    +0.000 A 
ATOM     21  C   UNL     1      43.965   3.285  10.559  0.00  0.00    +0.000 A 
ATOM     22  C   UNL     1      44.868   4.192   9.994  0.00  0.00    +0.000 A 
ATOM     23  C   UNL     1      45.410   5.214  10.778  0.00  0.00    +0.000 A 
BRANCH  22  24
ATOM     24  C   UNL     1      45.240   4.066   8.613  0.00  0.00    +0.000 C 
ATOM     25  N   UNL     1      45.538   3.967   7.501  0.00  0.00    +0.000 NA
ENDBRANCH  22  24
ENDBRANCH  17  18
ENDBRANCH  15  17
ENDBRANCH   5  15
TORSDOF 5
ENDMDL
MODEL 9
REMARK VINA RESULT:    -5.751      3.991      9.214
REMARK INTER + INTRA:          -8.178
REMARK INTER:                  -7.577
REMARK INTRA:                  -0.601
REMARK UNBOUND:                -0.746
REMARK  Name = 
REMARK  6 active torsions:
REMARK  status: ('A' for Active; 'I' for Inactive)
REMARK    1  A    between atoms: C_1  and  C_2
REMARK    2  A    between atoms: C_5  and  N_6
REMARK    3  A    between atoms: N_6  and  C_7
REMARK    4  A    between atoms: C_7  and  C_8
REMARK    5  A    between atoms: C_12  and  C_13
REMARK    6  A    between atoms: C_17  and  N_18
REMARK                            x       y       z     vdW  Elec       q    Type
REMARK                         _______ _______ _______ _____ _____    ______ ____
ROOT
ATOM      1  C   UNL     1      46.791   6.847  11.772  0.00  0.00    +0.000 C 
ATOM      2  C   UNL     1      47.003   6.123  13.072  0.00  0.00    +0.000 A 
ATOM      3  C   UNL     1      48.088   6.533  13.851  0.00  0.00    +0.000 A 
ATOM      4  N   UNL     1      48.459   5.987  15.028  0.00  0.00    +0.000 NA
ATOM      5  C   UNL     1      47.744   4.948  15.475  0.00  0.00    +0.000 A 
ATOM      6  C   UNL     1      46.669   4.442  14.738  0.00  0.00    +0.000 A 
ATOM      7  C   UNL     1      46.243   5.030  13.525  0.00  0.00    +0.000 A 
ENDROOT
BRANCH   7   8
ATOM      8  N   UNL     1      45.181   4.484  12.818  0.00  0.00    +0.000 N 
ATOM      9  C   UNL     1      45.275   3.161  12.173  0.00  0.00    +0.000 C 
ATOM     10  C   UNL     1      44.618   3.228  10.772  0.00  0.00    +0.000 C 
ATOM     11  N   UNL     1      43.223   3.726  10.779  0.00  0.00    +0.000 NA
ATOM     12  C   UNL     1      43.182   5.027  11.487  0.00  0.00    +0.000 C 
ATOM     13  C   UNL     1      43.793   4.967  12.908  0.00  0.00    +0.000 C 
ATOM     14  H   UNL     1      42.655   3.063  11.304  0.00  0.00    +0.000 HD
ENDBRANCH   7   8
BRANCH   5  15
ATOM     15  N   UNL     1      48.140   4.291  16.659  0.00  0.00    +0.000 N 
ATOM     16  H   UNL     1      48.253   3.298  16.491  0.00  0.00    +0.000 HD
BRANCH  15  17
ATOM     17  C   UNL     1      47.213   4.530  17.764  0.00  0.00    +0.000 C 
BRANCH  17  18
ATOM     18  C   UNL     1      47.955   5.160  18.927  0.00  0.00    +0.000 A 
ATOM     19  C   UNL     1      47.379   6.185  19.690  0.00  0.00    +0.000 A 
ATOM     20  C   UNL     1      48.089   6.782  20.735  0.00  0.00    +0.000 A 
ATOM     21  C   UNL     1      49.389   6.363  21.026  0.00  0.00    +0.000 A 
ATOM     22  C   UNL     1      49.980   5.343  20.272  0.00  0.00    +0.000 A 
ATOM     23  C   UNL     1      49.266   4.748  19.228  0.00  0.00    +0.000 A 
BRANCH  22  24
ATOM     24  C   UNL     1      51.318   4.916  20.568  0.00  0.00    +0.000 C 
ATOM     25  N   UNL     1      52.396   4.572  20.804  0.00  0.00    +0.000 NA
ENDBRANCH  22  24
ENDBRANCH  17  18
ENDBRANCH  15  17
ENDBRANCH   5  15
TORSDOF 5
ENDMDL
