MODEL 1
REMARK VINA RESULT:    -7.725      0.000      0.000
REMARK INTER + INTRA:         -10.756
REMARK INTER:                  -9.983
REMARK INTRA:                  -0.773
REMARK UNBOUND:                -0.773
REMARK  Name = 
REMARK  8 active torsions:
REMARK  status: ('A' for Active; 'I' for Inactive)
REMARK    1  A    between atoms: C_1  and  C_2
REMARK    2  A    between atoms: C_2  and  C_3
REMARK    3  A    between atoms: C_2  and  C_4
REMARK    4  A    between atoms: C_8  and  C_9
REMARK    5  A    between atoms: C_9  and  C_10
REMARK    6  A    between atoms: C_9  and  C_11
REMARK    7  A    between atoms: C_11  and  N_12
REMARK    8  A    between atoms: C_16  and  C_17
REMARK                            x       y       z     vdW  Elec       q    Type
REMARK                         _______ _______ _______ _____ _____    ______ ____
ROOT
ATOM      1  N   UNL     1      44.071   4.463   9.841  0.00  0.00    +0.000 N 
ATOM      2  C   UNL     1      44.912   3.694   9.018  0.00  0.00    +0.000 A 
ATOM      3  C   UNL     1      45.515   4.301   7.919  0.00  0.00    +0.000 A 
ATOM      4  C   UNL     1      46.346   3.547   7.085  0.00  0.00    +0.000 A 
ATOM      5  C   UNL     1      46.561   2.195   7.364  0.00  0.00    +0.000 A 
ATOM      6  C   UNL     1      45.910   1.672   8.465  0.00  0.00    +0.000 A 
ATOM      7  N   UNL     1      45.098   2.384   9.282  0.00  0.00    +0.000 NA
ATOM      8  H   UNL     1      44.590   5.283  10.153  0.00  0.00    +0.000 HD
ENDROOT
BRANCH   5   9
ATOM      9  C   UNL     1      47.453   1.397   6.489  0.00  0.00    +0.000 C 
ATOM     10  N   UNL     1      48.610   1.963   6.028  0.00  0.00    +0.000 N 
ATOM     11  O   UNL     1      47.164   0.250   6.171  0.00  0.00    +0.000 OA
ATOM     12  H   UNL     1      48.934   2.899   6.210  0.00  0.00    +0.000 HD
ATOM     13  H   UNL     1      49.181   1.384   5.424  0.00  0.00    +0.000 HD
ENDBRANCH   5   9
BRANCH   1  14
ATOM     14  C   UNL     1      43.538   3.707  10.984  0.00  0.00    +0.000 C 
BRANCH  14  15
ATOM     15  C   UNL     1      43.416   4.569  12.259  0.00  0.00    +0.000 C 
ATOM     16  C   UNL     1      42.292   5.604  12.126  0.00  0.00    +0.000 C 
BRANCH  15  21
ATOM     17  C   UNL     1      46.198   7.096  13.031  0.00  0.00    +0.000 A 
ATOM     18  C   UNL     1      47.183   6.260  13.572  0.00  0.00    +0.000 A 
ATOM     19  C   UNL     1      46.975   4.885  13.666  0.00  0.00    +0.000 A 
ATOM     20  C   UNL     1      45.777   4.325  13.228  0.00  0.00    +0.000 A 
ATOM     21  C   UNL     1      44.768   5.129  12.686  0.00  0.00    +0.000 A 
ATOM     22  C   UNL     1      44.997   6.516  12.588  0.00  0.00    +0.000 A 
BRANCH  17  24
ATOM     23  C   UNL     1      47.692   8.922  12.129  0.00  0.00    +0.000 C 
ATOM     24  C   UNL     1      46.445   8.592  12.953  0.00  0.00    +0.000 C 
ATOM     25  C   UNL     1      45.222   9.339  12.416  0.00  0.00    +0.000 C 
ENDBRANCH  17  24
ENDBRANCH  15  21
ENDBRANCH  14  15
ENDBRANCH   1  14
TORSDOF 5
ENDMDL
MODEL 2
REMARK VINA RESULT:    -7.300      1.360      2.330
REMARK INTER + INTRA:         -10.207
REMARK INTER:                  -9.492
REMARK INTRA:                  -0.715
REMARK UNBOUND:                -0.773
REMARK  Name = 
REMARK  8 active torsions:
REMARK  status: ('A' for Active; 'I' for Inactive)
REMARK    1  A    between atoms: C_1  and  C_2
REMARK    2  A    between atoms: C_2  and  C_3
REMARK    3  A    between atoms: C_2  and  C_4
REMARK    4  A    between atoms: C_8  and  C_9
REMARK    5  A    between atoms: C_9  and  C_10
REMARK    6  A    between atoms: C_9  and  C_11
REMARK    7  A    between atoms: C_11  and  N_12
REMARK    8  A    between atoms: C_16  and  C_17
REMARK                            x       y       z     vdW  Elec       q    Type
REMARK                         _______ _______ _______ _____ _____    ______ ____
ROOT
ATOM      1  N   UNL     1      44.017   3.325  10.447  0.00  0.00    +0.000 N 
ATOM      2  C   UNL     1      44.879   3.116   9.357  0.00  0.00    +0.000 A 
ATOM      3  C   UNL     1      45.158   1.809   8.962  0.00  0.00    +0.000 A 
ATOM      4  C   UNL     1      46.021   1.584   7.886  0.00  0.00    +0.000 A 
ATOM      5  C   UNL     1      46.593   2.671   7.221  0.00  0.00    +0.000 A 
ATOM      6  C   UNL     1      46.274   3.930   7.690  0.00  0.00    +0.000 A 
ATOM      7  N   UNL     1      45.444   4.170   8.733  0.00  0.00    +0.000 NA
ATOM      8  H   UNL     1      43.142   2.836  10.263  0.00  0.00    +0.000 HD
ENDROOT
BRANCH   5   9
ATOM      9  C   UNL     1      47.498   2.434   6.070  0.00  0.00    +0.000 C 
ATOM     10  N   UNL     1      48.850   2.520   6.259  0.00  0.00    +0.000 N 
ATOM     11  O   UNL     1      47.051   2.174   4.958  0.00  0.00    +0.000 OA
ATOM     12  H   UNL     1      49.321   2.745   7.121  0.00  0.00    +0.000 HD
ATOM     13  H   UNL     1      49.427   2.362   5.442  0.00  0.00    +0.000 HD
ENDBRANCH   5   9
BRANCH   1  14
ATOM     14  C   UNL     1      43.780   4.749  10.726  0.00  0.00    +0.000 C 
BRANCH  14  15
ATOM     15  C   UNL     1      44.164   5.142  12.170  0.00  0.00    +0.000 C 
ATOM     16  C   UNL     1      42.921   5.274  13.060  0.00  0.00    +0.000 C 
BRANCH  15  21
ATOM     17  C   UNL     1      47.410   7.179  12.341  0.00  0.00    +0.000 A 
ATOM     18  C   UNL     1      46.931   8.475  12.113  0.00  0.00    +0.000 A 
ATOM     19  C   UNL     1      45.569   8.707  11.933  0.00  0.00    +0.000 A 
ATOM     20  C   UNL     1      44.665   7.648  11.969  0.00  0.00    +0.000 A 
ATOM     21  C   UNL     1      45.108   6.338  12.191  0.00  0.00    +0.000 A 
ATOM     22  C   UNL     1      46.486   6.121  12.381  0.00  0.00    +0.000 A 
BRANCH  17  24
ATOM     23  C   UNL     1      49.724   7.728  11.488  0.00  0.00    +0.000 C 
ATOM     24  C   UNL     1      48.901   6.952  12.520  0.00  0.00    +0.000 C 
ATOM     25  C   UNL     1      49.357   7.286  13.942  0.00  0.00    +0.000 C 
ENDBRANCH  17  24
ENDBRANCH  15  21
ENDBRANCH  14  15
ENDBRANCH   1  14
TORSDOF 5
ENDMDL
MODEL 3
REMARK VINA RESULT:    -7.044      4.114      7.281
REMARK INTER + INTRA:          -9.876
REMARK INTER:                  -9.189
REMARK INTRA:                  -0.686
REMARK UNBOUND:                -0.773
REMARK  Name = 
REMARK  8 active torsions:
REMARK  status: ('A' for Active; 'I' for Inactive)
REMARK    1  A    between atoms: C_1  and  C_2
REMARK    2  A    between atoms: C_2  and  C_3
REMARK    3  A    between atoms: C_2  and  C_4
REMARK    4  A    between atoms: C_8  and  C_9
REMARK    5  A    between atoms: C_9  and  C_10
REMARK    6  A    between atoms: C_9  and  C_11
REMARK    7  A    between atoms: C_11  and  N_12
REMARK    8  A    between atoms: C_16  and  C_17
REMARK                            x       y       z     vdW  Elec       q    Type
REMARK                         _______ _______ _______ _____ _____    ______ ____
ROOT
ATOM      1  N   UNL     1      48.315   7.110  13.441  0.00  0.00    +0.000 N 
ATOM      2  C   UNL     1      48.097   6.193  14.484  0.00  0.00    +0.000 A 
ATOM      3  C   UNL     1      48.561   6.505  15.760  0.00  0.00    +0.000 A 
ATOM      4  C   UNL     1      48.361   5.598  16.806  0.00  0.00    +0.000 A 
ATOM      5  C   UNL     1      47.702   4.393  16.559  0.00  0.00    +0.000 A 
ATOM      6  C   UNL     1      47.291   4.159  15.261  0.00  0.00    +0.000 A 
ATOM      7  N   UNL     1      47.478   5.021  14.233  0.00  0.00    +0.000 NA
ATOM      8  H   UNL     1      47.937   8.012  13.724  0.00  0.00    +0.000 HD
ENDROOT
BRANCH   5   9
ATOM      9  C   UNL     1      47.477   3.437  17.670  0.00  0.00    +0.000 C 
ATOM     10  N   UNL     1      48.303   3.479  18.759  0.00  0.00    +0.000 N 
ATOM     11  O   UNL     1      46.573   2.610  17.619  0.00  0.00    +0.000 OA
ATOM     12  H   UNL     1      49.083   4.101  18.896  0.00  0.00    +0.000 HD
ATOM     13  H   UNL     1      48.117   2.800  19.488  0.00  0.00    +0.000 HD
ENDBRANCH   5   9
BRANCH   1  14
ATOM     14  C   UNL     1      47.738   6.671  12.162  0.00  0.00    +0.000 C 
BRANCH  14  15
ATOM     15  C   UNL     1      46.360   7.310  11.883  0.00  0.00    +0.000 C 
ATOM     16  C   UNL     1      45.977   8.309  12.983  0.00  0.00    +0.000 C 
BRANCH  15  21
ATOM     17  C   UNL     1      44.520   4.468  10.078  0.00  0.00    +0.000 A 
ATOM     18  C   UNL     1      43.483   4.199  10.980  0.00  0.00    +0.000 A 
ATOM     19  C   UNL     1      43.350   4.942  12.151  0.00  0.00    +0.000 A 
ATOM     20  C   UNL     1      44.255   5.960  12.445  0.00  0.00    +0.000 A 
ATOM     21  C   UNL     1      45.307   6.254  11.569  0.00  0.00    +0.000 A 
ATOM     22  C   UNL     1      45.422   5.501  10.384  0.00  0.00    +0.000 A 
BRANCH  17  24
ATOM     23  C   UNL     1      45.878   4.032   7.993  0.00  0.00    +0.000 C 
ATOM     24  C   UNL     1      44.651   3.634   8.816  0.00  0.00    +0.000 C 
ATOM     25  C   UNL     1      44.667   2.136   9.129  0.00  0.00    +0.000 C 
ENDBRANCH  17  24
ENDBRANCH  15  21
ENDBRANCH  14  15
ENDBRANCH   1  14
TORSDOF 5
ENDMDL
MODEL 4
REMARK VINA RESULT:    -6.455      4.775      6.773
REMARK INTER + INTRA:          -9.115
REMARK INTER:                  -8.527
REMARK INTRA:                  -0.588
REMARK UNBOUND:                -0.773
REMARK  Name = 
REMARK  8 active torsions:
REMARK  status: ('A' for Active; 'I' for Inactive)
REMARK    1  A    between atoms: C_1  and  C_2
REMARK    2  A    between atoms: C_2  and  C_3
REMARK    3  A    between atoms: C_2  and  C_4
REMARK    4  A    between atoms: C_8  and  C_9
REMARK    5  A    between atoms: C_9  and  C_10
REMARK    6  A    between atoms: C_9  and  C_11
REMARK    7  A    between atoms: C_11  and  N_12
REMARK    8  A    between atoms: C_16  and  C_17
REMARK                            x       y       z     vdW  Elec       q    Type
REMARK                         _______ _______ _______ _____ _____    ______ ____
ROOT
ATOM      1  N   UNL     1      47.033   5.394  14.830  0.00  0.00    +0.000 N 
ATOM      2  C   UNL     1      46.344   4.954  13.686  0.00  0.00    +0.000 A 
ATOM      3  C   UNL     1      46.023   5.881  12.698  0.00  0.00    +0.000 A 
ATOM      4  C   UNL     1      45.329   5.461  11.559  0.00  0.00    +0.000 A 
ATOM      5  C   UNL     1      44.967   4.119  11.427  0.00  0.00    +0.000 A 
ATOM      6  C   UNL     1      45.311   3.273  12.463  0.00  0.00    +0.000 A 
ATOM      7  N   UNL     1      45.978   3.660  13.576  0.00  0.00    +0.000 NA
ATOM      8  H   UNL     1      47.881   5.872  14.530  0.00  0.00    +0.000 HD
ENDROOT
BRANCH   5   9
ATOM      9  C   UNL     1      44.244   3.669  10.213  0.00  0.00    +0.000 C 
ATOM     10  N   UNL     1      43.917   4.589   9.255  0.00  0.00    +0.000 N 
ATOM     11  O   UNL     1      43.929   2.494  10.064  0.00  0.00    +0.000 OA
ATOM     12  H   UNL     1      44.109   5.578   9.284  0.00  0.00    +0.000 HD
ATOM     13  H   UNL     1      43.414   4.237   8.450  0.00  0.00    +0.000 HD
ENDBRANCH   5   9
BRANCH   1  14
ATOM     14  C   UNL     1      47.341   4.305  15.769  0.00  0.00    +0.000 C 
BRANCH  14  15
ATOM     15  C   UNL     1      48.209   4.775  16.957  0.00  0.00    +0.000 C 
ATOM     16  C   UNL     1      48.489   6.281  16.879  0.00  0.00    +0.000 C 
BRANCH  15  21
ATOM     17  C   UNL     1      51.820   3.724  17.717  0.00  0.00    +0.000 A 
ATOM     18  C   UNL     1      51.728   2.331  17.601  0.00  0.00    +0.000 A 
ATOM     19  C   UNL     1      50.523   1.725  17.252  0.00  0.00    +0.000 A 
ATOM     20  C   UNL     1      49.388   2.500  17.021  0.00  0.00    +0.000 A 
ATOM     21  C   UNL     1      49.441   3.894  17.132  0.00  0.00    +0.000 A 
ATOM     22  C   UNL     1      50.669   4.492  17.475  0.00  0.00    +0.000 A 
BRANCH  17  24
ATOM     23  C   UNL     1      54.276   3.330  18.156  0.00  0.00    +0.000 C 
ATOM     24  C   UNL     1      53.142   4.357  18.112  0.00  0.00    +0.000 C 
ATOM     25  C   UNL     1      53.503   5.530  17.197  0.00  0.00    +0.000 C 
ENDBRANCH  17  24
ENDBRANCH  15  21
ENDBRANCH  14  15
ENDBRANCH   1  14
TORSDOF 5
ENDMDL
MODEL 5
REMARK VINA RESULT:    -6.277      4.730      6.525
REMARK INTER + INTRA:          -8.885
REMARK INTER:                  -8.378
REMARK INTRA:                  -0.508
REMARK UNBOUND:                -0.773
REMARK  Name = 
REMARK  8 active torsions:
REMARK  status: ('A' for Active; 'I' for Inactive)
REMARK    1  A    between atoms: C_1  and  C_2
REMARK    2  A    between atoms: C_2  and  C_3
REMARK    3  A    between atoms: C_2  and  C_4
REMARK    4  A    between atoms: C_8  and  C_9
REMARK    5  A    between atoms: C_9  and  C_10
REMARK    6  A    between atoms: C_9  and  C_11
REMARK    7  A    between atoms: C_11  and  N_12
REMARK    8  A    between atoms: C_16  and  C_17
REMARK                            x       y       z     vdW  Elec       q    Type
REMARK                         _______ _______ _______ _____ _____    ______ ____
ROOT
ATOM      1  N   UNL     1      46.981   5.332  14.799  0.00  0.00    +0.000 N 
ATOM      2  C   UNL     1      46.314   4.904  13.638  0.00  0.00    +0.000 A 
ATOM      3  C   UNL     1      46.119   5.814  12.602  0.00  0.00    +0.000 A 
ATOM      4  C   UNL     1      45.448   5.406  11.444  0.00  0.00    +0.000 A 
ATOM      5  C   UNL     1      44.982   4.094  11.343  0.00  0.00    +0.000 A 
ATOM      6  C   UNL     1      45.204   3.265  12.425  0.00  0.00    +0.000 A 
ATOM      7  N   UNL     1      45.847   3.641  13.556  0.00  0.00    +0.000 NA
ATOM      8  H   UNL     1      47.879   5.727  14.525  0.00  0.00    +0.000 HD
ENDROOT
BRANCH   5   9
ATOM      9  C   UNL     1      44.283   3.656  10.110  0.00  0.00    +0.000 C 
ATOM     10  N   UNL     1      44.053   4.568   9.117  0.00  0.00    +0.000 N 
ATOM     11  O   UNL     1      43.904   2.498   9.977  0.00  0.00    +0.000 OA
ATOM     12  H   UNL     1      44.303   5.543   9.130  0.00  0.00    +0.000 HD
ATOM     13  H   UNL     1      43.563   4.225   8.300  0.00  0.00    +0.000 HD
ENDBRANCH   5   9
BRANCH   1  14
ATOM     14  C   UNL     1      47.152   4.260  15.791  0.00  0.00    +0.000 C 
BRANCH  14  15
ATOM     15  C   UNL     1      48.445   4.422  16.621  0.00  0.00    +0.000 C 
ATOM     16  C   UNL     1      48.842   3.102  17.294  0.00  0.00    +0.000 C 
BRANCH  15  21
ATOM     17  C   UNL     1      47.824   6.514  19.776  0.00  0.00    +0.000 A 
ATOM     18  C   UNL     1      48.302   7.767  19.371  0.00  0.00    +0.000 A 
ATOM     19  C   UNL     1      48.797   7.955  18.083  0.00  0.00    +0.000 A 
ATOM     20  C   UNL     1      48.830   6.894  17.180  0.00  0.00    +0.000 A 
ATOM     21  C   UNL     1      48.364   5.627  17.551  0.00  0.00    +0.000 A 
ATOM     22  C   UNL     1      47.857   5.455  18.854  0.00  0.00    +0.000 A 
BRANCH  17  24
ATOM     23  C   UNL     1      48.073   5.247  21.947  0.00  0.00    +0.000 C 
ATOM     24  C   UNL     1      47.303   6.333  21.191  0.00  0.00    +0.000 C 
ATOM     25  C   UNL     1      47.312   7.651  21.970  0.00  0.00    +0.000 C 
ENDBRANCH  17  24
ENDBRANCH  15  21
ENDBRANCH  14  15
ENDBRANCH   1  14
TORSDOF 5
ENDMDL
MODEL 6
REMARK VINA RESULT:    -6.058      4.392      6.023
REMARK INTER + INTRA:          -8.602
REMARK INTER:                  -8.056
REMARK INTRA:                  -0.546
REMARK UNBOUND:                -0.773
REMARK  Name = 
REMARK  8 active torsions:
REMARK  status: ('A' for Active; 'I' for Inactive)
REMARK    1  A    between atoms: C_1  and  C_2
REMARK    2  A    between atoms: C_2  and  C_3
REMARK    3  A    between atoms: C_2  and  C_4
REMARK    4  A    between atoms: C_8  and  C_9
REMARK    5  A    between atoms: C_9  and  C_10
REMARK    6  A    between atoms: C_9  and  C_11
REMARK    7  A    between atoms: C_11  and  N_12
REMARK    8  A    between atoms: C_16  and  C_17
REMARK                            x       y       z     vdW  Elec       q    Type
REMARK                         _______ _______ _______ _____ _____    ______ ____
ROOT
ATOM      1  N   UNL     1      47.286   5.528  14.846  0.00  0.00    +0.000 N 
ATOM      2  C   UNL     1      46.569   5.131  13.703  0.00  0.00    +0.000 A 
ATOM      3  C   UNL     1      46.432   6.033  12.650  0.00  0.00    +0.000 A 
ATOM      4  C   UNL     1      45.714   5.657  11.511  0.00  0.00    +0.000 A 
ATOM      5  C   UNL     1      45.143   4.384  11.444  0.00  0.00    +0.000 A 
ATOM      6  C   UNL     1      45.314   3.562  12.540  0.00  0.00    +0.000 A 
ATOM      7  N   UNL     1      46.002   3.908  13.655  0.00  0.00    +0.000 NA
ATOM      8  H   UNL     1      48.209   5.844  14.552  0.00  0.00    +0.000 HD
ENDROOT
BRANCH   5   9
ATOM      9  C   UNL     1      44.392   3.979  10.231  0.00  0.00    +0.000 C 
ATOM     10  N   UNL     1      44.554   4.699   9.079  0.00  0.00    +0.000 N 
ATOM     11  O   UNL     1      43.629   3.020  10.251  0.00  0.00    +0.000 OA
ATOM     12  H   UNL     1      45.137   5.511   8.956  0.00  0.00    +0.000 HD
ATOM     13  H   UNL     1      44.013   4.392   8.280  0.00  0.00    +0.000 HD
ENDBRANCH   5   9
BRANCH   1  14
ATOM     14  C   UNL     1      47.386   4.466  15.858  0.00  0.00    +0.000 C 
BRANCH  14  15
ATOM     15  C   UNL     1      48.591   4.661  16.804  0.00  0.00    +0.000 C 
ATOM     16  C   UNL     1      49.170   3.313  17.252  0.00  0.00    +0.000 C 
BRANCH  15  21
ATOM     17  C   UNL     1      48.108   7.963  18.697  0.00  0.00    +0.000 A 
ATOM     18  C   UNL     1      47.568   7.507  19.906  0.00  0.00    +0.000 A 
ATOM     19  C   UNL     1      47.385   6.145  20.133  0.00  0.00    +0.000 A 
ATOM     20  C   UNL     1      47.728   5.216  19.153  0.00  0.00    +0.000 A 
ATOM     21  C   UNL     1      48.266   5.635  17.930  0.00  0.00    +0.000 A 
ATOM     22  C   UNL     1      48.455   7.015  17.720  0.00  0.00    +0.000 A 
BRANCH  17  24
ATOM     23  C   UNL     1      48.155   9.825  16.991  0.00  0.00    +0.000 C 
ATOM     24  C   UNL     1      48.284   9.454  18.470  0.00  0.00    +0.000 C 
ATOM     25  C   UNL     1      47.315  10.274  19.324  0.00  0.00    +0.000 C 
ENDBRANCH  17  24
ENDBRANCH  15  21
ENDBRANCH  14  15
ENDBRANCH   1  14
TORSDOF 5
ENDMDL
MODEL 7
REMARK VINA RESULT:    -6.031      3.551      6.000
REMARK INTER + INTRA:          -8.567
REMARK INTER:                  -7.655
REMARK INTRA:                  -0.912
REMARK UNBOUND:                -0.773
REMARK  Name = 
REMARK  8 active torsions:
REMARK  status: ('A' for Active; 'I' for Inactive)
REMARK    1  A    between atoms: C_1  and  C_2
REMARK    2  A    between atoms: C_2  and  C_3
REMARK    3  A    between atoms: C_2  and  C_4
REMARK    4  A    between atoms: C_8  and  C_9
REMARK    5  A    between atoms: C_9  and  C_10
REMARK    6  A    between atoms: C_9  and  C_11
REMARK    7  A    between atoms: C_11  and  N_12
REMARK    8  A    between atoms: C_16  and  C_17
REMARK                            x       y       z     vdW  Elec       q    Type
REMARK                         _______ _______ _______ _____ _____    ______ ____
ROOT
ATOM      1  N   UNL     1      47.089   7.821  12.233  0.00  0.00    +0.000 N 
ATOM      2  C   UNL     1      46.352   6.627  12.138  0.00  0.00    +0.000 A 
ATOM      3  C   UNL     1      45.888   6.222  10.889  0.00  0.00    +0.000 A 
ATOM      4  C   UNL     1      45.145   5.043  10.779  0.00  0.00    +0.000 A 
ATOM      5  C   UNL     1      44.877   4.287  11.923  0.00  0.00    +0.000 A 
ATOM      6  C   UNL     1      45.360   4.772  13.122  0.00  0.00    +0.000 A 
ATOM      7  N   UNL     1      46.078   5.914  13.250  0.00  0.00    +0.000 NA
ATOM      8  H   UNL     1      47.873   7.765  11.586  0.00  0.00    +0.000 HD
ENDROOT
BRANCH   5   9
ATOM      9  C   UNL     1      44.101   3.029  11.806  0.00  0.00    +0.000 C 
ATOM     10  N   UNL     1      44.028   2.403  10.592  0.00  0.00    +0.000 N 
ATOM     11  O   UNL     1      43.521   2.552  12.775  0.00  0.00    +0.000 OA
ATOM     12  H   UNL     1      44.447   2.716   9.731  0.00  0.00    +0.000 HD
ATOM     13  H   UNL     1      43.478   1.554  10.559  0.00  0.00    +0.000 HD
ENDBRANCH   5   9
BRANCH   1  14
ATOM     14  C   UNL     1      47.549   8.104  13.601  0.00  0.00    +0.000 C 
BRANCH  14  15
ATOM     15  C   UNL     1      49.089   8.150  13.711  0.00  0.00    +0.000 C 
ATOM     16  C   UNL     1      49.752   7.795  12.374  0.00  0.00    +0.000 C 
BRANCH  15  21
ATOM     17  C   UNL     1      49.121   5.684  16.649  0.00  0.00    +0.000 A 
ATOM     18  C   UNL     1      50.459   5.763  17.057  0.00  0.00    +0.000 A 
ATOM     19  C   UNL     1      51.346   6.625  16.416  0.00  0.00    +0.000 A 
ATOM     20  C   UNL     1      50.915   7.414  15.352  0.00  0.00    +0.000 A 
ATOM     21  C   UNL     1      49.587   7.357  14.913  0.00  0.00    +0.000 A 
ATOM     22  C   UNL     1      48.699   6.490  15.579  0.00  0.00    +0.000 A 
BRANCH  17  24
ATOM     23  C   UNL     1      47.173   4.097  16.389  0.00  0.00    +0.000 C 
ATOM     24  C   UNL     1      48.178   4.726  17.356  0.00  0.00    +0.000 C 
ATOM     25  C   UNL     1      48.942   3.647  18.127  0.00  0.00    +0.000 C 
ENDBRANCH  17  24
ENDBRANCH  15  21
ENDBRANCH  14  15
ENDBRANCH   1  14
TORSDOF 5
ENDMDL
MODEL 8
REMARK VINA RESULT:    -5.679      4.504      7.252
REMARK INTER + INTRA:          -8.113
REMARK INTER:                  -7.337
REMARK INTRA:                  -0.775
REMARK UNBOUND:                -0.773
REMARK  Name = 
REMARK  8 active torsions:
REMARK  status: ('A' for Active; 'I' for Inactive)
REMARK    1  A    between atoms: C_1  and  C_2
REMARK    2  A    between atoms: C_2  and  C_3
REMARK    3  A    between atoms: C_2  and  C_4
REMARK    4  A    between atoms: C_8  and  C_9
REMARK    5  A    between atoms: C_9  and  C_10
REMARK    6  A    between atoms: C_9  and  C_11
REMARK    7  A    between atoms: C_11  and  N_12
REMARK    8  A    between atoms: C_16  and  C_17
REMARK                            x       y       z     vdW  Elec       q    Type
REMARK                         _______ _______ _______ _____ _____    ______ ____
ROOT
ATOM      1  N   UNL     1      48.767   7.806  13.915  0.00  0.00    +0.000 N 
ATOM      2  C   UNL     1      47.748   6.873  13.656  0.00  0.00    +0.000 A 
ATOM      3  C   UNL     1      46.699   7.240  12.816  0.00  0.00    +0.000 A 
ATOM      4  C   UNL     1      45.672   6.327  12.558  0.00  0.00    +0.000 A 
ATOM      5  C   UNL     1      45.710   5.060  13.145  0.00  0.00    +0.000 A 
ATOM      6  C   UNL     1      46.778   4.788  13.977  0.00  0.00    +0.000 A 
ATOM      7  N   UNL     1      47.781   5.659  14.245  0.00  0.00    +0.000 NA
ATOM      8  H   UNL     1      49.146   8.122  13.024  0.00  0.00    +0.000 HD
ENDROOT
BRANCH   5   9
ATOM      9  C   UNL     1      44.629   4.086  12.860  0.00  0.00    +0.000 C 
ATOM     10  N   UNL     1      44.963   2.806  12.512  0.00  0.00    +0.000 N 
ATOM     11  O   UNL     1      43.450   4.415  12.923  0.00  0.00    +0.000 OA
ATOM     12  H   UNL     1      45.895   2.436  12.412  0.00  0.00    +0.000 HD
ATOM     13  H   UNL     1      44.192   2.180  12.317  0.00  0.00    +0.000 HD
ENDBRANCH   5   9
BRANCH   1  14
ATOM     14  C   UNL     1      49.828   7.271  14.782  0.00  0.00    +0.000 C 
BRANCH  14  15
ATOM     15  C   UNL     1      49.868   7.963  16.163  0.00  0.00    +0.000 C 
ATOM     16  C   UNL     1      51.306   8.304  16.572  0.00  0.00    +0.000 C 
BRANCH  15  21
ATOM     17  C   UNL     1      48.430   5.012  18.149  0.00  0.00    +0.000 A 
ATOM     18  C   UNL     1      47.718   5.680  19.153  0.00  0.00    +0.000 A 
ATOM     19  C   UNL     1      47.670   7.072  19.183  0.00  0.00    +0.000 A 
ATOM     20  C   UNL     1      48.339   7.819  18.216  0.00  0.00    +0.000 A 
ATOM     21  C   UNL     1      49.065   7.186  17.200  0.00  0.00    +0.000 A 
ATOM     22  C   UNL     1      49.095   5.778  17.177  0.00  0.00    +0.000 A 
BRANCH  17  24
ATOM     23  C   UNL     1      47.241   2.885  17.483  0.00  0.00    +0.000 C 
ATOM     24  C   UNL     1      48.478   3.494  18.148  0.00  0.00    +0.000 C 
ATOM     25  C   UNL     1      49.761   2.970  17.498  0.00  0.00    +0.000 C 
ENDBRANCH  17  24
ENDBRANCH  15  21
ENDBRANCH  14  15
ENDBRANCH   1  14
TORSDOF 5
ENDMDL
MODEL 9
REMARK VINA RESULT:    -5.626      3.683      6.064
REMARK INTER + INTRA:          -8.044
REMARK INTER:                  -7.013
REMARK INTRA:                  -1.031
REMARK UNBOUND:                -0.773
REMARK  Name = 
REMARK  8 active torsions:
REMARK  status: ('A' for Active; 'I' for Inactive)
REMARK    1  A    between atoms: C_1  and  C_2
REMARK    2  A    between atoms: C_2  and  C_3
REMARK    3  A    between atoms: C_2  and  C_4
REMARK    4  A    between atoms: C_8  and  C_9
REMARK    5  A    between atoms: C_9  and  C_10
REMARK    6  A    between atoms: C_9  and  C_11
REMARK    7  A    between atoms: C_11  and  N_12
REMARK    8  A    between atoms: C_16  and  C_17
REMARK                            x       y       z     vdW  Elec       q    Type
REMARK                         _______ _______ _______ _____ _____    ______ ____
ROOT
ATOM      1  N   UNL     1      48.263   6.413  13.705  0.00  0.00    +0.000 N 
ATOM      2  C   UNL     1      47.070   6.086  13.038  0.00  0.00    +0.000 A 
ATOM      3  C   UNL     1      46.113   5.327  13.708  0.00  0.00    +0.000 A 
ATOM      4  C   UNL     1      44.925   4.984  13.055  0.00  0.00    +0.000 A 
ATOM      5  C   UNL     1      44.713   5.405  11.741  0.00  0.00    +0.000 A 
ATOM      6  C   UNL     1      45.722   6.139  11.148  0.00  0.00    +0.000 A 
ATOM      7  N   UNL     1      46.882   6.478  11.761  0.00  0.00    +0.000 NA
ATOM      8  H   UNL     1      48.024   6.873  14.582  0.00  0.00    +0.000 HD
ENDROOT
BRANCH   5   9
ATOM      9  C   UNL     1      43.448   5.055  11.052  0.00  0.00    +0.000 C 
ATOM     10  N   UNL     1      42.272   5.123  11.747  0.00  0.00    +0.000 N 
ATOM     11  O   UNL     1      43.446   4.698   9.879  0.00  0.00    +0.000 OA
ATOM     12  H   UNL     1      42.162   5.384  12.713  0.00  0.00    +0.000 HD
ATOM     13  H   UNL     1      41.436   4.864  11.238  0.00  0.00    +0.000 HD
ENDBRANCH   5   9
BRANCH   1  14
ATOM     14  C   UNL     1      49.162   7.250  12.896  0.00  0.00    +0.000 C 
BRANCH  14  15
ATOM     15  C   UNL     1      49.227   8.708  13.400  0.00  0.00    +0.000 C 
ATOM     16  C   UNL     1      48.657   8.832  14.819  0.00  0.00    +0.000 C 
BRANCH  15  21
ATOM     17  C   UNL     1      46.667  10.829  11.484  0.00  0.00    +0.000 A 
ATOM     18  C   UNL     1      47.501  11.547  10.617  0.00  0.00    +0.000 A 
ATOM     19  C   UNL     1      48.879  11.335  10.621  0.00  0.00    +0.000 A 
ATOM     20  C   UNL     1      49.446  10.410  11.496  0.00  0.00    +0.000 A 
ATOM     21  C   UNL     1      48.644   9.679  12.379  0.00  0.00    +0.000 A 
ATOM     22  C   UNL     1      47.252   9.896  12.356  0.00  0.00    +0.000 A 
BRANCH  17  24
ATOM     23  C   UNL     1      44.753  11.952  10.277  0.00  0.00    +0.000 C 
ATOM     24  C   UNL     1      45.171  11.089  11.469  0.00  0.00    +0.000 C 
ATOM     25  C   UNL     1      44.371   9.785  11.505  0.00  0.00    +0.000 C 
ENDBRANCH  17  24
ENDBRANCH  15  21
ENDBRANCH  14  15
ENDBRANCH   1  14
TORSDOF 5
ENDMDL
