MODEL 1
REMARK VINA RESULT:    -6.863      0.000      0.000
REMARK INTER + INTRA:          -9.230
REMARK INTER:                  -8.869
REMARK INTRA:                  -0.361
REMARK UNBOUND:                -0.361
REMARK  Name = 
REMARK  6 active torsions:
REMARK  status: ('A' for Active; 'I' for Inactive)
REMARK    1  A    between atoms: C_1  and  O_2
REMARK    2  A    between atoms: O_2  and  C_3
REMARK    3  A    between atoms: C_7  and  C_8
REMARK    4  A    between atoms: C_9  and  O_10
REMARK    5  A    between atoms: O_10  and  C_11
REMARK    6  A    between atoms: C_14  and  C_15
REMARK                            x       y       z     vdW  Elec       q    Type
REMARK                         _______ _______ _______ _____ _____    ______ ____
ROOT
ATOM      1  O   UNL     1      43.965   4.259  10.150  0.00  0.00    +0.000 OA
ENDROOT
BRANCH   1   2
ATOM      2  C   UNL     1      44.821   3.594   9.316  0.00  0.00    +0.000 A 
ATOM      3  C   UNL     1      45.008   2.224   9.285  0.00  0.00    +0.000 A 
ATOM      4  N   UNL     1      45.851   1.594   8.438  0.00  0.00    +0.000 NA
ATOM      5  C   UNL     1      46.508   2.399   7.568  0.00  0.00    +0.000 A 
ATOM      6  N   UNL     1      46.379   3.739   7.484  0.00  0.00    +0.000 NA
ATOM      7  C   UNL     1      45.524   4.304   8.366  0.00  0.00    +0.000 A 
BRANCH   5   8
ATOM      8  C   UNL     1      47.473   1.717   6.621  0.00  0.00    +0.000 C 
ATOM      9  N   UNL     1      48.600   2.437   6.298  0.00  0.00    +0.000 N 
ATOM     10  O   UNL     1      47.295   0.601   6.150  0.00  0.00    +0.000 OA
ATOM     11  H   UNL     1      48.748   3.361   6.688  0.00  0.00    +0.000 HD
ATOM     12  H   UNL     1      49.273   2.030   5.667  0.00  0.00    +0.000 HD
ENDBRANCH   5   8
ENDBRANCH   1   2
BRANCH   1  14
ATOM     13  C   UNL     1      45.439   5.105  11.823  0.00  0.00    +0.000 C 
ATOM     14  C   UNL     1      44.481   5.289  10.905  0.00  0.00    +0.000 C 
BRANCH  13  19
ATOM     15  C   UNL     1      47.978   7.035  13.847  0.00  0.00    +0.000 A 
ATOM     16  C   UNL     1      47.439   8.322  13.823  0.00  0.00    +0.000 A 
ATOM     17  C   UNL     1      46.216   8.556  13.190  0.00  0.00    +0.000 A 
ATOM     18  C   UNL     1      45.538   7.510  12.562  0.00  0.00    +0.000 A 
ATOM     19  C   UNL     1      46.079   6.218  12.544  0.00  0.00    +0.000 A 
ATOM     20  C   UNL     1      47.286   5.989  13.223  0.00  0.00    +0.000 A 
BRANCH  15  22
ATOM     21  C   UNL     1      49.188   6.594  15.846  0.00  0.00    +0.000 C 
ATOM     22  O   UNL     1      49.165   6.681  14.424  0.00  0.00    +0.000 OA
ENDBRANCH  15  22
ENDBRANCH  13  19
ENDBRANCH   1  14
TORSDOF 5
ENDMDL
MODEL 2
REMARK VINA RESULT:    -6.715      1.523      2.425
REMARK INTER + INTRA:          -9.039
REMARK INTER:                  -8.826
REMARK INTRA:                  -0.213
REMARK UNBOUND:                -0.361
REMARK  Name = 
REMARK  6 active torsions:
REMARK  status: ('A' for Active; 'I' for Inactive)
REMARK    1  A    between atoms: C_1  and  O_2
REMARK    2  A    between atoms: O_2  and  C_3
REMARK    3  A    between atoms: C_7  and  C_8
REMARK    4  A    between atoms: C_9  and  O_10
REMARK    5  A    between atoms: O_10  and  C_11
REMARK    6  A    between atoms: C_14  and  C_15
REMARK                            x       y       z     vdW  Elec       q    Type
REMARK                         _______ _______ _______ _____ _____    ______ ____
ROOT
ATOM      1  O   UNL     1      43.781   4.173  10.076  0.00  0.00    +0.000 OA
ENDROOT
BRANCH   1   2
ATOM      2  C   UNL     1      44.687   3.545   9.266  0.00  0.00    +0.000 A 
ATOM      3  C   UNL     1      44.946   2.186   9.255  0.00  0.00    +0.000 A 
ATOM      4  N   UNL     1      45.837   1.592   8.432  0.00  0.00    +0.000 NA
ATOM      5  C   UNL     1      46.468   2.421   7.566  0.00  0.00    +0.000 A 
ATOM      6  N   UNL     1      46.271   3.751   7.464  0.00  0.00    +0.000 NA
ATOM      7  C   UNL     1      45.371   4.280   8.322  0.00  0.00    +0.000 A 
BRANCH   5   8
ATOM      8  C   UNL     1      47.486   1.780   6.645  0.00  0.00    +0.000 C 
ATOM      9  N   UNL     1      48.590   2.547   6.351  0.00  0.00    +0.000 N 
ATOM     10  O   UNL     1      47.368   0.657   6.171  0.00  0.00    +0.000 OA
ATOM     11  H   UNL     1      48.689   3.477   6.744  0.00  0.00    +0.000 HD
ATOM     12  H   UNL     1      49.296   2.169   5.739  0.00  0.00    +0.000 HD
ENDBRANCH   5   8
ENDBRANCH   1   2
BRANCH   1  14
ATOM     13  C   UNL     1      45.385   5.279  11.451  0.00  0.00    +0.000 C 
ATOM     14  C   UNL     1      44.217   5.263  10.795  0.00  0.00    +0.000 C 
BRANCH  13  19
ATOM     15  C   UNL     1      45.601   8.830  12.721  0.00  0.00    +0.000 A 
ATOM     16  C   UNL     1      46.769   8.787  13.484  0.00  0.00    +0.000 A 
ATOM     17  C   UNL     1      47.520   7.611  13.544  0.00  0.00    +0.000 A 
ATOM     18  C   UNL     1      47.098   6.470  12.861  0.00  0.00    +0.000 A 
ATOM     19  C   UNL     1      45.910   6.482  12.119  0.00  0.00    +0.000 A 
ATOM     20  C   UNL     1      45.189   7.683  12.030  0.00  0.00    +0.000 A 
BRANCH  15  22
ATOM     21  C   UNL     1      44.231  10.149  11.294  0.00  0.00    +0.000 C 
ATOM     22  O   UNL     1      44.777   9.913  12.588  0.00  0.00    +0.000 OA
ENDBRANCH  15  22
ENDBRANCH  13  19
ENDBRANCH   1  14
TORSDOF 5
ENDMDL
MODEL 3
REMARK VINA RESULT:    -6.418      1.606      2.252
REMARK INTER + INTRA:          -8.655
REMARK INTER:                  -8.280
REMARK INTRA:                  -0.374
REMARK UNBOUND:                -0.361
REMARK  Name = 
REMARK  6 active torsions:
REMARK  status: ('A' for Active; 'I' for Inactive)
REMARK    1  A    between atoms: C_1  and  O_2
REMARK    2  A    between atoms: O_2  and  C_3
REMARK    3  A    between atoms: C_7  and  C_8
REMARK    4  A    between atoms: C_9  and  O_10
REMARK    5  A    between atoms: O_10  and  C_11
REMARK    6  A    between atoms: C_14  and  C_15
REMARK                            x       y       z     vdW  Elec       q    Type
REMARK                         _______ _______ _______ _____ _____    ______ ____
ROOT
ATOM      1  O   UNL     1      44.247   4.111  10.757  0.00  0.00    +0.000 OA
ENDROOT
BRANCH   1   2
ATOM      2  C   UNL     1      44.956   3.795   9.630  0.00  0.00    +0.000 A 
ATOM      3  C   UNL     1      45.595   4.702   8.804  0.00  0.00    +0.000 A 
ATOM      4  N   UNL     1      46.301   4.359   7.705  0.00  0.00    +0.000 NA
ATOM      5  C   UNL     1      46.377   3.029   7.458  0.00  0.00    +0.000 A 
ATOM      6  N   UNL     1      45.825   2.055   8.210  0.00  0.00    +0.000 NA
ATOM      7  C   UNL     1      45.128   2.471   9.291  0.00  0.00    +0.000 A 
BRANCH   5   8
ATOM      8  C   UNL     1      47.147   2.620   6.220  0.00  0.00    +0.000 C 
ATOM      9  N   UNL     1      48.516   2.586   6.353  0.00  0.00    +0.000 N 
ATOM     10  O   UNL     1      46.622   2.333   5.151  0.00  0.00    +0.000 OA
ATOM     11  H   UNL     1      48.952   2.822   7.237  0.00  0.00    +0.000 HD
ATOM     12  H   UNL     1      49.076   2.324   5.555  0.00  0.00    +0.000 HD
ENDBRANCH   5   8
ENDBRANCH   1   2
BRANCH   1  14
ATOM     13  C   UNL     1      45.840   4.100  12.531  0.00  0.00    +0.000 C 
ATOM     14  C   UNL     1      44.923   4.729  11.784  0.00  0.00    +0.000 C 
BRANCH  13  19
ATOM     15  C   UNL     1      47.597   4.795  15.802  0.00  0.00    +0.000 A 
ATOM     16  C   UNL     1      48.299   5.963  15.503  0.00  0.00    +0.000 A 
ATOM     17  C   UNL     1      48.161   6.559  14.248  0.00  0.00    +0.000 A 
ATOM     18  C   UNL     1      47.337   5.980  13.281  0.00  0.00    +0.000 A 
ATOM     19  C   UNL     1      46.652   4.788  13.549  0.00  0.00    +0.000 A 
ATOM     20  C   UNL     1      46.765   4.225  14.829  0.00  0.00    +0.000 A 
BRANCH  15  22
ATOM     21  C   UNL     1      47.600   4.891  18.178  0.00  0.00    +0.000 C 
ATOM     22  O   UNL     1      47.654   4.113  16.986  0.00  0.00    +0.000 OA
ENDBRANCH  15  22
ENDBRANCH  13  19
ENDBRANCH   1  14
TORSDOF 5
ENDMDL
MODEL 4
REMARK VINA RESULT:    -6.173      5.074      8.053
REMARK INTER + INTRA:          -8.339
REMARK INTER:                  -8.084
REMARK INTRA:                  -0.255
REMARK UNBOUND:                -0.361
REMARK  Name = 
REMARK  6 active torsions:
REMARK  status: ('A' for Active; 'I' for Inactive)
REMARK    1  A    between atoms: C_1  and  O_2
REMARK    2  A    between atoms: O_2  and  C_3
REMARK    3  A    between atoms: C_7  and  C_8
REMARK    4  A    between atoms: C_9  and  O_10
REMARK    5  A    between atoms: O_10  and  C_11
REMARK    6  A    between atoms: C_14  and  C_15
REMARK                            x       y       z     vdW  Elec       q    Type
REMARK                         _______ _______ _______ _____ _____    ______ ____
ROOT
ATOM      1  O   UNL     1      47.543   4.439  16.607  0.00  0.00    +0.000 OA
ENDROOT
BRANCH   1   2
ATOM      2  C   UNL     1      48.618   3.624  16.834  0.00  0.00    +0.000 A 
ATOM      3  C   UNL     1      48.806   2.371  16.281  0.00  0.00    +0.000 A 
ATOM      4  N   UNL     1      49.887   1.594  16.513  0.00  0.00    +0.000 NA
ATOM      5  C   UNL     1      50.826   2.137  17.324  0.00  0.00    +0.000 A 
ATOM      6  N   UNL     1      50.766   3.359  17.891  0.00  0.00    +0.000 NA
ATOM      7  C   UNL     1      49.654   4.078  17.622  0.00  0.00    +0.000 A 
BRANCH   5   8
ATOM      8  C   UNL     1      52.038   1.278  17.615  0.00  0.00    +0.000 C 
ATOM      9  N   UNL     1      51.778   0.051  18.182  0.00  0.00    +0.000 N 
ATOM     10  O   UNL     1      53.191   1.618  17.378  0.00  0.00    +0.000 OA
ATOM     11  H   UNL     1      50.825  -0.232  18.377  0.00  0.00    +0.000 HD
ATOM     12  H   UNL     1      52.552  -0.559  18.399  0.00  0.00    +0.000 HD
ENDBRANCH   5   8
ENDBRANCH   1   2
BRANCH   1  14
ATOM     13  C   UNL     1      46.558   4.313  14.439  0.00  0.00    +0.000 C 
ATOM     14  C   UNL     1      47.360   4.914  15.328  0.00  0.00    +0.000 C 
BRANCH  13  19
ATOM     15  C   UNL     1      44.940   4.807  11.062  0.00  0.00    +0.000 A 
ATOM     16  C   UNL     1      45.542   5.990  10.631  0.00  0.00    +0.000 A 
ATOM     17  C   UNL     1      46.518   6.604  11.418  0.00  0.00    +0.000 A 
ATOM     18  C   UNL     1      46.882   6.051  12.646  0.00  0.00    +0.000 A 
ATOM     19  C   UNL     1      46.265   4.884  13.114  0.00  0.00    +0.000 A 
ATOM     20  C   UNL     1      45.318   4.253  12.292  0.00  0.00    +0.000 A 
BRANCH  15  22
ATOM     21  C   UNL     1      44.306   2.805   9.947  0.00  0.00    +0.000 C 
ATOM     22  O   UNL     1      43.970   4.116  10.390  0.00  0.00    +0.000 OA
ENDBRANCH  15  22
ENDBRANCH  13  19
ENDBRANCH   1  14
TORSDOF 5
ENDMDL
MODEL 5
REMARK VINA RESULT:    -5.849      5.261      8.818
REMARK INTER + INTRA:          -7.919
REMARK INTER:                  -7.576
REMARK INTRA:                  -0.343
REMARK UNBOUND:                -0.361
REMARK  Name = 
REMARK  6 active torsions:
REMARK  status: ('A' for Active; 'I' for Inactive)
REMARK    1  A    between atoms: C_1  and  O_2
REMARK    2  A    between atoms: O_2  and  C_3
REMARK    3  A    between atoms: C_7  and  C_8
REMARK    4  A    between atoms: C_9  and  O_10
REMARK    5  A    between atoms: O_10  and  C_11
REMARK    6  A    between atoms: C_14  and  C_15
REMARK                            x       y       z     vdW  Elec       q    Type
REMARK                         _______ _______ _______ _____ _____    ______ ____
ROOT
ATOM      1  O   UNL     1      47.736   3.064  14.995  0.00  0.00    +0.000 OA
ENDROOT
BRANCH   1   2
ATOM      2  C   UNL     1      47.953   3.452  16.289  0.00  0.00    +0.000 A 
ATOM      3  C   UNL     1      48.984   3.010  17.097  0.00  0.00    +0.000 A 
ATOM      4  N   UNL     1      49.181   3.423  18.368  0.00  0.00    +0.000 NA
ATOM      5  C   UNL     1      48.300   4.347  18.820  0.00  0.00    +0.000 A 
ATOM      6  N   UNL     1      47.280   4.874  18.113  0.00  0.00    +0.000 NA
ATOM      7  C   UNL     1      47.138   4.411  16.851  0.00  0.00    +0.000 A 
BRANCH   5   8
ATOM      8  C   UNL     1      48.488   4.811  20.249  0.00  0.00    +0.000 C 
ATOM      9  N   UNL     1      47.415   5.465  20.810  0.00  0.00    +0.000 N 
ATOM     10  O   UNL     1      49.515   4.638  20.895  0.00  0.00    +0.000 OA
ATOM     11  H   UNL     1      46.566   5.608  20.277  0.00  0.00    +0.000 HD
ATOM     12  H   UNL     1      47.491   5.798  21.759  0.00  0.00    +0.000 HD
ENDBRANCH   5   8
ENDBRANCH   1   2
BRANCH   1  14
ATOM     13  C   UNL     1      46.258   3.300  13.140  0.00  0.00    +0.000 C 
ATOM     14  C   UNL     1      46.814   3.775  14.261  0.00  0.00    +0.000 C 
BRANCH  13  19
ATOM     15  C   UNL     1      44.076   4.497  10.298  0.00  0.00    +0.000 A 
ATOM     16  C   UNL     1      43.081   5.196  10.981  0.00  0.00    +0.000 A 
ATOM     17  C   UNL     1      43.146   5.325  12.370  0.00  0.00    +0.000 A 
ATOM     18  C   UNL     1      44.193   4.739  13.082  0.00  0.00    +0.000 A 
ATOM     19  C   UNL     1      45.182   4.003  12.420  0.00  0.00    +0.000 A 
ATOM     20  C   UNL     1      45.129   3.920  11.020  0.00  0.00    +0.000 A 
BRANCH  15  22
ATOM     21  C   UNL     1      45.136   3.418   8.463  0.00  0.00    +0.000 C 
ATOM     22  O   UNL     1      44.122   4.294   8.947  0.00  0.00    +0.000 OA
ENDBRANCH  15  22
ENDBRANCH  13  19
ENDBRANCH   1  14
TORSDOF 5
ENDMDL
MODEL 6
REMARK VINA RESULT:    -5.608      5.592      8.633
REMARK INTER + INTRA:          -7.608
REMARK INTER:                  -7.232
REMARK INTRA:                  -0.376
REMARK UNBOUND:                -0.361
REMARK  Name = 
REMARK  6 active torsions:
REMARK  status: ('A' for Active; 'I' for Inactive)
REMARK    1  A    between atoms: C_1  and  O_2
REMARK    2  A    between atoms: O_2  and  C_3
REMARK    3  A    between atoms: C_7  and  C_8
REMARK    4  A    between atoms: C_9  and  O_10
REMARK    5  A    between atoms: O_10  and  C_11
REMARK    6  A    between atoms: C_14  and  C_15
REMARK                            x       y       z     vdW  Elec       q    Type
REMARK                         _______ _______ _______ _____ _____    ______ ____
ROOT
ATOM      1  O   UNL     1      47.821   3.146  15.095  0.00  0.00    +0.000 OA
ENDROOT
BRANCH   1   2
ATOM      2  C   UNL     1      48.036   3.516  16.394  0.00  0.00    +0.000 A 
ATOM      3  C   UNL     1      49.066   3.063  17.198  0.00  0.00    +0.000 A 
ATOM      4  N   UNL     1      49.261   3.458  18.474  0.00  0.00    +0.000 NA
ATOM      5  C   UNL     1      48.380   4.377  18.937  0.00  0.00    +0.000 A 
ATOM      6  N   UNL     1      47.361   4.914  18.235  0.00  0.00    +0.000 NA
ATOM      7  C   UNL     1      47.221   4.468  16.967  0.00  0.00    +0.000 A 
BRANCH   5   8
ATOM      8  C   UNL     1      48.566   4.822  20.373  0.00  0.00    +0.000 C 
ATOM      9  N   UNL     1      47.471   5.411  20.962  0.00  0.00    +0.000 N 
ATOM     10  O   UNL     1      49.609   4.686  21.001  0.00  0.00    +0.000 OA
ATOM     11  H   UNL     1      46.608   5.523  20.443  0.00  0.00    +0.000 HD
ATOM     12  H   UNL     1      47.544   5.730  21.916  0.00  0.00    +0.000 HD
ENDBRANCH   5   8
ENDBRANCH   1   2
BRANCH   1  14
ATOM     13  C   UNL     1      46.284   3.375  13.286  0.00  0.00    +0.000 C 
ATOM     14  C   UNL     1      46.901   3.868  14.369  0.00  0.00    +0.000 C 
BRANCH  13  19
ATOM     15  C   UNL     1      44.364   6.203  11.679  0.00  0.00    +0.000 A 
ATOM     16  C   UNL     1      43.280   5.526  11.120  0.00  0.00    +0.000 A 
ATOM     17  C   UNL     1      43.143   4.150  11.310  0.00  0.00    +0.000 A 
ATOM     18  C   UNL     1      44.097   3.442  12.041  0.00  0.00    +0.000 A 
ATOM     19  C   UNL     1      45.211   4.096  12.580  0.00  0.00    +0.000 A 
ATOM     20  C   UNL     1      45.313   5.486  12.420  0.00  0.00    +0.000 A 
BRANCH  15  22
ATOM     21  C   UNL     1      45.414   8.139  12.576  0.00  0.00    +0.000 C 
ATOM     22  O   UNL     1      44.615   7.541  11.559  0.00  0.00    +0.000 OA
ENDBRANCH  15  22
ENDBRANCH  13  19
ENDBRANCH   1  14
TORSDOF 5
ENDMDL
MODEL 7
REMARK VINA RESULT:    -5.607      3.939      5.641
REMARK INTER + INTRA:          -7.607
REMARK INTER:                  -7.210
REMARK INTRA:                  -0.397
REMARK UNBOUND:                -0.361
REMARK  Name = 
REMARK  6 active torsions:
REMARK  status: ('A' for Active; 'I' for Inactive)
REMARK    1  A    between atoms: C_1  and  O_2
REMARK    2  A    between atoms: O_2  and  C_3
REMARK    3  A    between atoms: C_7  and  C_8
REMARK    4  A    between atoms: C_9  and  O_10
REMARK    5  A    between atoms: O_10  and  C_11
REMARK    6  A    between atoms: C_14  and  C_15
REMARK                            x       y       z     vdW  Elec       q    Type
REMARK                         _______ _______ _______ _____ _____    ______ ____
ROOT
ATOM      1  O   UNL     1      48.099   5.719  14.011  0.00  0.00    +0.000 OA
ENDROOT
BRANCH   1   2
ATOM      2  C   UNL     1      46.941   5.216  13.485  0.00  0.00    +0.000 A 
ATOM      3  C   UNL     1      46.623   3.874  13.382  0.00  0.00    +0.000 A 
ATOM      4  N   UNL     1      45.464   3.407  12.871  0.00  0.00    +0.000 NA
ATOM      5  C   UNL     1      44.583   4.356  12.472  0.00  0.00    +0.000 A 
ATOM      6  N   UNL     1      44.770   5.689  12.555  0.00  0.00    +0.000 NA
ATOM      7  C   UNL     1      45.955   6.085  13.071  0.00  0.00    +0.000 A 
BRANCH   5   8
ATOM      8  C   UNL     1      43.283   3.856  11.877  0.00  0.00    +0.000 C 
ATOM      9  N   UNL     1      42.312   4.811  11.678  0.00  0.00    +0.000 N 
ATOM     10  O   UNL     1      43.071   2.687  11.581  0.00  0.00    +0.000 OA
ATOM     11  H   UNL     1      42.487   5.779  11.921  0.00  0.00    +0.000 HD
ATOM     12  H   UNL     1      41.426   4.530  11.287  0.00  0.00    +0.000 HD
ENDBRANCH   5   8
ENDBRANCH   1   2
BRANCH   1  14
ATOM     13  C   UNL     1      49.320   7.002  12.414  0.00  0.00    +0.000 C 
ATOM     14  C   UNL     1      48.559   6.918  13.513  0.00  0.00    +0.000 C 
BRANCH  13  19
ATOM     15  C   UNL     1      49.107  10.581  11.224  0.00  0.00    +0.000 A 
ATOM     16  C   UNL     1      50.416  10.815  10.800  0.00  0.00    +0.000 A 
ATOM     17  C   UNL     1      51.361   9.789  10.851  0.00  0.00    +0.000 A 
ATOM     18  C   UNL     1      51.009   8.532  11.345  0.00  0.00    +0.000 A 
ATOM     19  C   UNL     1      49.711   8.286  11.809  0.00  0.00    +0.000 A 
ATOM     20  C   UNL     1      48.760   9.313  11.710  0.00  0.00    +0.000 A 
BRANCH  15  22
ATOM     21  C   UNL     1      46.792  11.018  11.545  0.00  0.00    +0.000 C 
ATOM     22  O   UNL     1      48.096  11.500  11.233  0.00  0.00    +0.000 OA
ENDBRANCH  15  22
ENDBRANCH  13  19
ENDBRANCH   1  14
TORSDOF 5
ENDMDL
MODEL 8
REMARK VINA RESULT:    -5.543      3.954      6.350
REMARK INTER + INTRA:          -7.525
REMARK INTER:                  -7.144
REMARK INTRA:                  -0.381
REMARK UNBOUND:                -0.361
REMARK  Name = 
REMARK  6 active torsions:
REMARK  status: ('A' for Active; 'I' for Inactive)
REMARK    1  A    between atoms: C_1  and  O_2
REMARK    2  A    between atoms: O_2  and  C_3
REMARK    3  A    between atoms: C_7  and  C_8
REMARK    4  A    between atoms: C_9  and  O_10
REMARK    5  A    between atoms: O_10  and  C_11
REMARK    6  A    between atoms: C_14  and  C_15
REMARK                            x       y       z     vdW  Elec       q    Type
REMARK                         _______ _______ _______ _____ _____    ______ ____
ROOT
ATOM      1  O   UNL     1      48.082   5.476  14.281  0.00  0.00    +0.000 OA
ENDROOT
BRANCH   1   2
ATOM      2  C   UNL     1      46.893   5.154  13.687  0.00  0.00    +0.000 A 
ATOM      3  C   UNL     1      45.962   6.060  13.211  0.00  0.00    +0.000 A 
ATOM      4  N   UNL     1      44.802   5.711  12.615  0.00  0.00    +0.000 NA
ATOM      5  C   UNL     1      44.600   4.378  12.475  0.00  0.00    +0.000 A 
ATOM      6  N   UNL     1      45.450   3.408  12.868  0.00  0.00    +0.000 NA
ATOM      7  C   UNL     1      46.588   3.829  13.463  0.00  0.00    +0.000 A 
BRANCH   5   8
ATOM      8  C   UNL     1      43.296   3.961  11.826  0.00  0.00    +0.000 C 
ATOM      9  N   UNL     1      42.323   4.932  11.766  0.00  0.00    +0.000 N 
ATOM     10  O   UNL     1      43.084   2.843  11.375  0.00  0.00    +0.000 OA
ATOM     11  H   UNL     1      42.498   5.858  12.138  0.00  0.00    +0.000 HD
ATOM     12  H   UNL     1      41.434   4.704  11.347  0.00  0.00    +0.000 HD
ENDBRANCH   5   8
ENDBRANCH   1   2
BRANCH   1  14
ATOM     13  C   UNL     1      48.265   4.774  16.552  0.00  0.00    +0.000 C 
ATOM     14  C   UNL     1      48.071   5.730  15.634  0.00  0.00    +0.000 C 
BRANCH  13  19
ATOM     15  C   UNL     1      48.068   6.640  19.830  0.00  0.00    +0.000 A 
ATOM     16  C   UNL     1      48.424   5.647  20.743  0.00  0.00    +0.000 A 
ATOM     17  C   UNL     1      48.782   4.376  20.288  0.00  0.00    +0.000 A 
ATOM     18  C   UNL     1      48.766   4.088  18.923  0.00  0.00    +0.000 A 
ATOM     19  C   UNL     1      48.377   5.060  17.993  0.00  0.00    +0.000 A 
ATOM     20  C   UNL     1      48.063   6.345  18.461  0.00  0.00    +0.000 A 
BRANCH  15  22
ATOM     21  C   UNL     1      47.302   8.759  19.068  0.00  0.00    +0.000 C 
ATOM     22  O   UNL     1      47.691   7.915  20.148  0.00  0.00    +0.000 OA
ENDBRANCH  15  22
ENDBRANCH  13  19
ENDBRANCH   1  14
TORSDOF 5
ENDMDL
MODEL 9
REMARK VINA RESULT:    -5.363      3.692      5.367
REMARK INTER + INTRA:          -7.291
REMARK INTER:                  -6.981
REMARK INTRA:                  -0.311
REMARK UNBOUND:                -0.361
REMARK  Name = 
REMARK  6 active torsions:
REMARK  status: ('A' for Active; 'I' for Inactive)
REMARK    1  A    between atoms: C_1  and  O_2
REMARK    2  A    between atoms: O_2  and  C_3
REMARK    3  A    between atoms: C_7  and  C_8
REMARK    4  A    between atoms: C_9  and  O_10
REMARK    5  A    between atoms: O_10  and  C_11
REMARK    6  A    between atoms: C_14  and  C_15
REMARK                            x       y       z     vdW  Elec       q    Type
REMARK                         _______ _______ _______ _____ _____    ______ ____
ROOT
ATOM      1  O   UNL     1      47.942   5.889  13.994  0.00  0.00    +0.000 OA
ENDROOT
BRANCH   1   2
ATOM      2  C   UNL     1      47.020   5.141  13.314  0.00  0.00    +0.000 A 
ATOM      3  C   UNL     1      46.697   3.824  13.586  0.00  0.00    +0.000 A 
ATOM      4  N   UNL     1      45.771   3.115  12.906  0.00  0.00    +0.000 NA
ATOM      5  C   UNL     1      45.129   3.793  11.923  0.00  0.00    +0.000 A 
ATOM      6  N   UNL     1      45.336   5.084  11.593  0.00  0.00    +0.000 NA
ATOM      7  C   UNL     1      46.282   5.731  12.311  0.00  0.00    +0.000 A 
BRANCH   5   8
ATOM      8  C   UNL     1      44.099   3.014  11.133  0.00  0.00    +0.000 C 
ATOM      9  N   UNL     1      44.580   2.321  10.046  0.00  0.00    +0.000 N 
ATOM     10  O   UNL     1      42.906   2.980  11.411  0.00  0.00    +0.000 OA
ATOM     11  H   UNL     1      45.567   2.348   9.816  0.00  0.00    +0.000 HD
ATOM     12  H   UNL     1      43.934   1.789   9.483  0.00  0.00    +0.000 HD
ENDBRANCH   5   8
ENDBRANCH   1   2
BRANCH   1  14
ATOM     13  C   UNL     1      49.509   7.207  12.773  0.00  0.00    +0.000 C 
ATOM     14  C   UNL     1      48.346   7.075  13.425  0.00  0.00    +0.000 C 
BRANCH  13  19
ATOM     15  C   UNL     1      51.538   9.635  10.709  0.00  0.00    +0.000 A 
ATOM     16  C   UNL     1      50.641  10.693  10.556  0.00  0.00    +0.000 A 
ATOM     17  C   UNL     1      49.388  10.641  11.170  0.00  0.00    +0.000 A 
ATOM     18  C   UNL     1      49.019   9.526  11.922  0.00  0.00    +0.000 A 
ATOM     19  C   UNL     1      49.890   8.438  12.059  0.00  0.00    +0.000 A 
ATOM     20  C   UNL     1      51.163   8.523  11.474  0.00  0.00    +0.000 A 
BRANCH  15  22
ATOM     21  C   UNL     1      52.931  10.075   8.834  0.00  0.00    +0.000 C 
ATOM     22  O   UNL     1      52.785   9.562  10.155  0.00  0.00    +0.000 OA
ENDBRANCH  15  22
ENDBRANCH  13  19
ENDBRANCH   1  14
TORSDOF 5
ENDMDL
