MODEL 1
REMARK VINA RESULT:    -7.426      0.000      0.000
REMARK INTER + INTRA:         -12.513
REMARK INTER:                 -10.899
REMARK INTRA:                  -1.614
REMARK UNBOUND:                -1.614
REMARK  Name = 
REMARK  9 active torsions:
REMARK  status: ('A' for Active; 'I' for Inactive)
REMARK    1  A    between atoms: C_1  and  C_2
REMARK    2  A    between atoms: C_2  and  N_3
REMARK    3  A    between atoms: N_3  and  C_4
REMARK    4  A    between atoms: C_4  and  C_5
REMARK    5  A    between atoms: C_8  and  C_9
REMARK    6  A    between atoms: C_9  and  N_10
REMARK    7  A    between atoms: N_10  and  C_11
REMARK    8  A    between atoms: C_11  and  C_12
REMARK    9  A    between atoms: C_20  and  C_22
REMARK                            x       y       z     vdW  Elec       q    Type
REMARK                         _______ _______ _______ _____ _____    ______ ____
ROOT
ATOM      1  C   UNL     1      47.441   7.112  13.737  0.00  0.00    +0.000 C 
ENDROOT
BRANCH   1   2
ATOM      2  C   UNL     1      46.707   6.170  12.839  0.00  0.00    +0.000 A 
ATOM      3  C   UNL     1      46.294   4.930  13.342  0.00  0.00    +0.000 A 
ATOM      4  C   UNL     1      45.361   4.170  12.646  0.00  0.00    +0.000 A 
ATOM      5  C   UNL     1      44.803   4.655  11.452  0.00  0.00    +0.000 A 
ATOM      6  C   UNL     1      45.295   5.851  10.911  0.00  0.00    +0.000 A 
ATOM      7  C   UNL     1      46.267   6.588  11.585  0.00  0.00    +0.000 A 
BRANCH   5   8
ATOM      8  C   UNL     1      43.639   3.953  10.784  0.00  0.00    +0.000 C 
BRANCH   8   9
ATOM      9  N   UNL     1      44.029   3.506   9.451  0.00  0.00    +0.000 NA
ATOM     10  H   UNL     1      44.559   4.246   8.993  0.00  0.00    +0.000 HD
BRANCH   9  11
ATOM     11  C   UNL     1      44.840   2.296   9.453  0.00  0.00    +0.000 C 
BRANCH  11  12
ATOM     12  C   UNL     1      45.824   2.331   8.301  0.00  0.00    +0.000 A 
ATOM     13  C   UNL     1      46.535   1.189   7.901  0.00  0.00    +0.000 A 
ATOM     14  C   UNL     1      47.389   1.230   6.793  0.00  0.00    +0.000 A 
ATOM     15  C   UNL     1      47.556   2.420   6.091  0.00  0.00    +0.000 A 
ATOM     16  C   UNL     1      46.891   3.573   6.505  0.00  0.00    +0.000 A 
ATOM     17  C   UNL     1      46.032   3.530   7.602  0.00  0.00    +0.000 A 
ENDBRANCH  11  12
ENDBRANCH   9  11
ENDBRANCH   8   9
ENDBRANCH   5   8
ENDBRANCH   1   2
BRANCH   1  18
ATOM     18  N   UNL     1      48.907   7.082  13.793  0.00  0.00    +0.000 N 
ATOM     19  C   UNL     1      49.585   6.879  15.016  0.00  0.00    +0.000 C 
ATOM     20  O   UNL     1      50.772   7.088  15.108  0.00  0.00    +0.000 OA
BRANCH  19  21
ATOM     21  C   UNL     1      48.821   6.385  16.174  0.00  0.00    +0.000 A 
ATOM     22  C   UNL     1      48.423   5.076  16.371  0.00  0.00    +0.000 A 
ATOM     23  S   UNL     1      47.618   4.800  17.842  0.00  0.00    +0.000 S 
ATOM     24  C   UNL     1      47.824   6.424  18.303  0.00  0.00    +0.000 A 
ATOM     25  N   UNL     1      47.443   6.849  19.533  0.00  0.00    +0.000 NA
ATOM     26  C   UNL     1      47.709   8.096  19.765  0.00  0.00    +0.000 A 
ATOM     27  N   UNL     1      48.267   8.957  18.856  0.00  0.00    +0.000 N 
ATOM     28  C   UNL     1      48.555   8.606  17.552  0.00  0.00    +0.000 A 
ATOM     29  O   UNL     1      48.827   9.445  16.721  0.00  0.00    +0.000 OA
ATOM     30  C   UNL     1      48.414   7.176  17.306  0.00  0.00    +0.000 A 
ATOM     31  H   UNL     1      48.410   9.931  19.084  0.00  0.00    +0.000 HD
ENDBRANCH  19  21
BRANCH  18  33
ATOM     32  C   UNL     1      49.236   8.816  11.939  0.00  0.00    +0.000 C 
ATOM     33  C   UNL     1      49.741   7.577  12.687  0.00  0.00    +0.000 C 
ENDBRANCH  18  33
ENDBRANCH   1  18
TORSDOF 8
ENDMDL
MODEL 2
REMARK VINA RESULT:    -7.412      1.968      2.673
REMARK INTER + INTRA:         -12.492
REMARK INTER:                 -11.272
REMARK INTRA:                  -1.220
REMARK UNBOUND:                -1.614
REMARK  Name = 
REMARK  9 active torsions:
REMARK  status: ('A' for Active; 'I' for Inactive)
REMARK    1  A    between atoms: C_1  and  C_2
REMARK    2  A    between atoms: C_2  and  N_3
REMARK    3  A    between atoms: N_3  and  C_4
REMARK    4  A    between atoms: C_4  and  C_5
REMARK    5  A    between atoms: C_8  and  C_9
REMARK    6  A    between atoms: C_9  and  N_10
REMARK    7  A    between atoms: N_10  and  C_11
REMARK    8  A    between atoms: C_11  and  C_12
REMARK    9  A    between atoms: C_20  and  C_22
REMARK                            x       y       z     vdW  Elec       q    Type
REMARK                         _______ _______ _______ _____ _____    ______ ____
ROOT
ATOM      1  C   UNL     1      48.087   5.923  13.743  0.00  0.00    +0.000 C 
ENDROOT
BRANCH   1   2
ATOM      2  C   UNL     1      46.759   5.946  13.059  0.00  0.00    +0.000 A 
ATOM      3  C   UNL     1      46.663   6.487  11.771  0.00  0.00    +0.000 A 
ATOM      4  C   UNL     1      45.532   6.252  10.998  0.00  0.00    +0.000 A 
ATOM      5  C   UNL     1      44.494   5.445  11.490  0.00  0.00    +0.000 A 
ATOM      6  C   UNL     1      44.559   4.991  12.814  0.00  0.00    +0.000 A 
ATOM      7  C   UNL     1      45.671   5.268  13.606  0.00  0.00    +0.000 A 
BRANCH   5   8
ATOM      8  C   UNL     1      43.351   5.002  10.600  0.00  0.00    +0.000 C 
BRANCH   8   9
ATOM      9  N   UNL     1      43.877   4.366   9.397  0.00  0.00    +0.000 NA
ATOM     10  H   UNL     1      44.583   4.972   8.981  0.00  0.00    +0.000 HD
BRANCH   9  11
ATOM     11  C   UNL     1      44.478   3.061   9.640  0.00  0.00    +0.000 C 
BRANCH  11  12
ATOM     12  C   UNL     1      45.521   2.767   8.579  0.00  0.00    +0.000 A 
ATOM     13  C   UNL     1      46.014   1.470   8.367  0.00  0.00    +0.000 A 
ATOM     14  C   UNL     1      46.927   1.212   7.338  0.00  0.00    +0.000 A 
ATOM     15  C   UNL     1      47.372   2.254   6.529  0.00  0.00    +0.000 A 
ATOM     16  C   UNL     1      46.924   3.554   6.758  0.00  0.00    +0.000 A 
ATOM     17  C   UNL     1      46.007   3.810   7.776  0.00  0.00    +0.000 A 
ENDBRANCH  11  12
ENDBRANCH   9  11
ENDBRANCH   8   9
ENDBRANCH   5   8
ENDBRANCH   1   2
BRANCH   1  18
ATOM     18  N   UNL     1      48.478   7.027  14.627  0.00  0.00    +0.000 N 
ATOM     19  C   UNL     1      48.553   6.848  16.026  0.00  0.00    +0.000 C 
ATOM     20  O   UNL     1      48.641   7.798  16.768  0.00  0.00    +0.000 OA
BRANCH  19  21
ATOM     21  C   UNL     1      48.544   5.478  16.565  0.00  0.00    +0.000 A 
ATOM     22  C   UNL     1      47.435   4.655  16.643  0.00  0.00    +0.000 A 
ATOM     23  S   UNL     1      47.756   3.099  17.246  0.00  0.00    +0.000 S 
ATOM     24  C   UNL     1      49.415   3.450  17.375  0.00  0.00    +0.000 A 
ATOM     25  N   UNL     1      50.299   2.489  17.743  0.00  0.00    +0.000 NA
ATOM     26  C   UNL     1      51.533   2.884  17.747  0.00  0.00    +0.000 A 
ATOM     27  N   UNL     1      51.945   4.162  17.470  0.00  0.00    +0.000 N 
ATOM     28  C   UNL     1      51.075   5.203  17.215  0.00  0.00    +0.000 A 
ATOM     29  O   UNL     1      51.457   6.353  17.205  0.00  0.00    +0.000 OA
ATOM     30  C   UNL     1      49.696   4.762  17.050  0.00  0.00    +0.000 A 
ATOM     31  H   UNL     1      52.920   4.418  17.532  0.00  0.00    +0.000 HD
ENDBRANCH  19  21
BRANCH  18  33
ATOM     32  C   UNL     1      49.387   8.753  12.969  0.00  0.00    +0.000 C 
ATOM     33  C   UNL     1      48.493   8.425  14.170  0.00  0.00    +0.000 C 
ENDBRANCH  18  33
ENDBRANCH   1  18
TORSDOF 8
ENDMDL
MODEL 3
REMARK VINA RESULT:    -7.396      1.600      2.228
REMARK INTER + INTRA:         -12.470
REMARK INTER:                 -10.555
REMARK INTRA:                  -1.914
REMARK UNBOUND:                -1.614
REMARK  Name = 
REMARK  9 active torsions:
REMARK  status: ('A' for Active; 'I' for Inactive)
REMARK    1  A    between atoms: C_1  and  C_2
REMARK    2  A    between atoms: C_2  and  N_3
REMARK    3  A    between atoms: N_3  and  C_4
REMARK    4  A    between atoms: C_4  and  C_5
REMARK    5  A    between atoms: C_8  and  C_9
REMARK    6  A    between atoms: C_9  and  N_10
REMARK    7  A    between atoms: N_10  and  C_11
REMARK    8  A    between atoms: C_11  and  C_12
REMARK    9  A    between atoms: C_20  and  C_22
REMARK                            x       y       z     vdW  Elec       q    Type
REMARK                         _______ _______ _______ _____ _____    ______ ____
ROOT
ATOM      1  C   UNL     1      47.676   7.898  13.779  0.00  0.00    +0.000 C 
ENDROOT
BRANCH   1   2
ATOM      2  C   UNL     1      46.673   6.924  13.253  0.00  0.00    +0.000 A 
ATOM      3  C   UNL     1      46.748   5.583  13.652  0.00  0.00    +0.000 A 
ATOM      4  C   UNL     1      45.674   4.729  13.431  0.00  0.00    +0.000 A 
ATOM      5  C   UNL     1      44.496   5.211  12.840  0.00  0.00    +0.000 A 
ATOM      6  C   UNL     1      44.469   6.527  12.359  0.00  0.00    +0.000 A 
ATOM      7  C   UNL     1      45.565   7.370  12.535  0.00  0.00    +0.000 A 
BRANCH   5   8
ATOM      8  C   UNL     1      43.242   4.364  12.777  0.00  0.00    +0.000 C 
BRANCH   8   9
ATOM      9  N   UNL     1      42.977   3.970  11.398  0.00  0.00    +0.000 NA
ATOM     10  H   UNL     1      43.285   4.715  10.774  0.00  0.00    +0.000 HD
BRANCH   9  11
ATOM     11  C   UNL     1      43.643   2.737  11.003  0.00  0.00    +0.000 C 
BRANCH  11  12
ATOM     12  C   UNL     1      44.577   3.003   9.839  0.00  0.00    +0.000 A 
ATOM     13  C   UNL     1      45.165   1.958   9.109  0.00  0.00    +0.000 A 
ATOM     14  C   UNL     1      45.972   2.228   7.997  0.00  0.00    +0.000 A 
ATOM     15  C   UNL     1      46.215   3.546   7.622  0.00  0.00    +0.000 A 
ATOM     16  C   UNL     1      45.674   4.594   8.365  0.00  0.00    +0.000 A 
ATOM     17  C   UNL     1      44.863   4.325   9.466  0.00  0.00    +0.000 A 
ENDBRANCH  11  12
ENDBRANCH   9  11
ENDBRANCH   8   9
ENDBRANCH   5   8
ENDBRANCH   1   2
BRANCH   1  18
ATOM     18  N   UNL     1      49.104   7.564  13.764  0.00  0.00    +0.000 N 
ATOM     19  C   UNL     1      49.923   7.813  14.888  0.00  0.00    +0.000 C 
ATOM     20  O   UNL     1      51.127   7.763  14.801  0.00  0.00    +0.000 OA
BRANCH  19  21
ATOM     21  C   UNL     1      49.280   8.117  16.177  0.00  0.00    +0.000 A 
ATOM     22  C   UNL     1      49.073   9.383  16.691  0.00  0.00    +0.000 A 
ATOM     23  S   UNL     1      48.237   9.414  18.171  0.00  0.00    +0.000 S 
ATOM     24  C   UNL     1      48.066   7.722  18.152  0.00  0.00    +0.000 A 
ATOM     25  N   UNL     1      47.340   7.089  19.107  0.00  0.00    +0.000 NA
ATOM     26  C   UNL     1      47.252   5.807  18.937  0.00  0.00    +0.000 A 
ATOM     27  N   UNL     1      47.872   5.108  17.934  0.00  0.00    +0.000 N 
ATOM     28  C   UNL     1      48.722   5.689  17.015  0.00  0.00    +0.000 A 
ATOM     29  O   UNL     1      49.426   5.014  16.296  0.00  0.00    +0.000 OA
ATOM     30  C   UNL     1      48.720   7.145  17.082  0.00  0.00    +0.000 A 
ATOM     31  H   UNL     1      47.799   4.102  17.881  0.00  0.00    +0.000 HD
ENDBRANCH  19  21
BRANCH  18  33
ATOM     32  C   UNL     1      49.924   8.404  11.490  0.00  0.00    +0.000 C 
ATOM     33  C   UNL     1      49.824   7.270  12.515  0.00  0.00    +0.000 C 
ENDBRANCH  18  33
ENDBRANCH   1  18
TORSDOF 8
ENDMDL
MODEL 4
REMARK VINA RESULT:    -7.241      2.970      8.914
REMARK INTER + INTRA:         -12.241
REMARK INTER:                 -10.174
REMARK INTRA:                  -2.068
REMARK UNBOUND:                -1.614
REMARK  Name = 
REMARK  9 active torsions:
REMARK  status: ('A' for Active; 'I' for Inactive)
REMARK    1  A    between atoms: C_1  and  C_2
REMARK    2  A    between atoms: C_2  and  N_3
REMARK    3  A    between atoms: N_3  and  C_4
REMARK    4  A    between atoms: C_4  and  C_5
REMARK    5  A    between atoms: C_8  and  C_9
REMARK    6  A    between atoms: C_9  and  N_10
REMARK    7  A    between atoms: N_10  and  C_11
REMARK    8  A    between atoms: C_11  and  C_12
REMARK    9  A    between atoms: C_20  and  C_22
REMARK                            x       y       z     vdW  Elec       q    Type
REMARK                         _______ _______ _______ _____ _____    ______ ____
ROOT
ATOM      1  C   UNL     1      47.186   6.174  12.398  0.00  0.00    +0.000 C 
ENDROOT
BRANCH   1   2
ATOM      2  C   UNL     1      47.569   5.622  13.732  0.00  0.00    +0.000 A 
ATOM      3  C   UNL     1      48.323   6.413  14.608  0.00  0.00    +0.000 A 
ATOM      4  C   UNL     1      48.435   6.059  15.947  0.00  0.00    +0.000 A 
ATOM      5  C   UNL     1      47.767   4.927  16.438  0.00  0.00    +0.000 A 
ATOM      6  C   UNL     1      47.096   4.092  15.535  0.00  0.00    +0.000 A 
ATOM      7  C   UNL     1      47.025   4.420  14.182  0.00  0.00    +0.000 A 
BRANCH   5   8
ATOM      8  C   UNL     1      47.698   4.634  17.923  0.00  0.00    +0.000 C 
BRANCH   8   9
ATOM      9  N   UNL     1      46.636   5.423  18.535  0.00  0.00    +0.000 NA
ATOM     10  H   UNL     1      45.875   4.803  18.810  0.00  0.00    +0.000 HD
BRANCH   9  11
ATOM     11  C   UNL     1      47.064   6.171  19.710  0.00  0.00    +0.000 C 
BRANCH  11  12
ATOM     12  C   UNL     1      47.948   7.330  19.292  0.00  0.00    +0.000 A 
ATOM     13  C   UNL     1      49.339   7.302  19.475  0.00  0.00    +0.000 A 
ATOM     14  C   UNL     1      50.141   8.355  19.021  0.00  0.00    +0.000 A 
ATOM     15  C   UNL     1      49.554   9.455  18.401  0.00  0.00    +0.000 A 
ATOM     16  C   UNL     1      48.170   9.516  18.254  0.00  0.00    +0.000 A 
ATOM     17  C   UNL     1      47.372   8.462  18.697  0.00  0.00    +0.000 A 
ENDBRANCH  11  12
ENDBRANCH   9  11
ENDBRANCH   8   9
ENDBRANCH   5   8
ENDBRANCH   1   2
BRANCH   1  18
ATOM     18  N   UNL     1      46.105   7.161  12.293  0.00  0.00    +0.000 N 
ATOM     19  C   UNL     1      44.834   6.799  11.795  0.00  0.00    +0.000 C 
ATOM     20  O   UNL     1      44.026   7.643  11.486  0.00  0.00    +0.000 OA
BRANCH  19  21
ATOM     21  C   UNL     1      44.501   5.369  11.678  0.00  0.00    +0.000 A 
ATOM     22  C   UNL     1      43.857   4.615  12.641  0.00  0.00    +0.000 A 
ATOM     23  S   UNL     1      43.546   3.008  12.184  0.00  0.00    +0.000 S 
ATOM     24  C   UNL     1      44.215   3.277  10.643  0.00  0.00    +0.000 A 
ATOM     25  N   UNL     1      44.174   2.311   9.692  0.00  0.00    +0.000 NA
ATOM     26  C   UNL     1      44.672   2.674   8.553  0.00  0.00    +0.000 A 
ATOM     27  N   UNL     1      45.254   3.890   8.306  0.00  0.00    +0.000 N 
ATOM     28  C   UNL     1      45.434   4.857   9.275  0.00  0.00    +0.000 A 
ATOM     29  O   UNL     1      46.151   5.815   9.081  0.00  0.00    +0.000 OA
ATOM     30  C   UNL     1      44.748   4.545  10.523  0.00  0.00    +0.000 A 
ATOM     31  H   UNL     1      45.664   4.097   7.407  0.00  0.00    +0.000 HD
ENDBRANCH  19  21
BRANCH  18  33
ATOM     32  C   UNL     1      47.793   9.077  12.108  0.00  0.00    +0.000 C 
ATOM     33  C   UNL     1      46.359   8.607  12.378  0.00  0.00    +0.000 C 
ENDBRANCH  18  33
ENDBRANCH   1  18
TORSDOF 8
ENDMDL
MODEL 5
REMARK VINA RESULT:    -7.130      2.407      4.409
REMARK INTER + INTRA:         -12.078
REMARK INTER:                 -10.550
REMARK INTRA:                  -1.528
REMARK UNBOUND:                -1.614
REMARK  Name = 
REMARK  9 active torsions:
REMARK  status: ('A' for Active; 'I' for Inactive)
REMARK    1  A    between atoms: C_1  and  C_2
REMARK    2  A    between atoms: C_2  and  N_3
REMARK    3  A    between atoms: N_3  and  C_4
REMARK    4  A    between atoms: C_4  and  C_5
REMARK    5  A    between atoms: C_8  and  C_9
REMARK    6  A    between atoms: C_9  and  N_10
REMARK    7  A    between atoms: N_10  and  C_11
REMARK    8  A    between atoms: C_11  and  C_12
REMARK    9  A    between atoms: C_20  and  C_22
REMARK                            x       y       z     vdW  Elec       q    Type
REMARK                         _______ _______ _______ _____ _____    ______ ____
ROOT
ATOM      1  C   UNL     1      48.107   6.183  13.173  0.00  0.00    +0.000 C 
ENDROOT
BRANCH   1   2
ATOM      2  C   UNL     1      46.754   5.793  12.675  0.00  0.00    +0.000 A 
ATOM      3  C   UNL     1      46.373   6.156  11.377  0.00  0.00    +0.000 A 
ATOM      4  C   UNL     1      45.267   5.560  10.783  0.00  0.00    +0.000 A 
ATOM      5  C   UNL     1      44.545   4.568  11.465  0.00  0.00    +0.000 A 
ATOM      6  C   UNL     1      44.878   4.284  12.797  0.00  0.00    +0.000 A 
ATOM      7  C   UNL     1      45.957   4.918  13.411  0.00  0.00    +0.000 A 
BRANCH   5   8
ATOM      8  C   UNL     1      43.471   3.757  10.772  0.00  0.00    +0.000 C 
BRANCH   8   9
ATOM      9  N   UNL     1      43.952   3.306   9.471  0.00  0.00    +0.000 NA
ATOM     10  H   UNL     1      44.346   4.100   8.967  0.00  0.00    +0.000 HD
BRANCH   9  11
ATOM     11  C   UNL     1      44.968   2.265   9.550  0.00  0.00    +0.000 C 
BRANCH  11  12
ATOM     12  C   UNL     1      45.847   2.304   8.316  0.00  0.00    +0.000 A 
ATOM     13  C   UNL     1      46.564   1.178   7.883  0.00  0.00    +0.000 A 
ATOM     14  C   UNL     1      47.316   1.220   6.703  0.00  0.00    +0.000 A 
ATOM     15  C   UNL     1      47.376   2.395   5.960  0.00  0.00    +0.000 A 
ATOM     16  C   UNL     1      46.705   3.534   6.403  0.00  0.00    +0.000 A 
ATOM     17  C   UNL     1      45.947   3.490   7.572  0.00  0.00    +0.000 A 
ENDBRANCH  11  12
ENDBRANCH   9  11
ENDBRANCH   8   9
ENDBRANCH   5   8
ENDBRANCH   1   2
BRANCH   1  18
ATOM     18  N   UNL     1      48.249   6.856  14.469  0.00  0.00    +0.000 N 
ATOM     19  C   UNL     1      48.098   8.256  14.584  0.00  0.00    +0.000 C 
ATOM     20  O   UNL     1      48.443   8.836  15.586  0.00  0.00    +0.000 OA
BRANCH  19  21
ATOM     21  C   UNL     1      47.490   8.995  13.465  0.00  0.00    +0.000 A 
ATOM     22  C   UNL     1      46.133   9.157  13.255  0.00  0.00    +0.000 A 
ATOM     23  S   UNL     1      45.740  10.127  11.915  0.00  0.00    +0.000 S 
ATOM     24  C   UNL     1      47.385  10.417  11.595  0.00  0.00    +0.000 A 
ATOM     25  N   UNL     1      47.759  11.275  10.613  0.00  0.00    +0.000 NA
ATOM     26  C   UNL     1      49.040  11.439  10.518  0.00  0.00    +0.000 A 
ATOM     27  N   UNL     1      49.971  10.779  11.278  0.00  0.00    +0.000 N 
ATOM     28  C   UNL     1      49.646   9.804  12.200  0.00  0.00    +0.000 A 
ATOM     29  O   UNL     1      50.497   9.086  12.680  0.00  0.00    +0.000 OA
ATOM     30  C   UNL     1      48.213   9.707  12.443  0.00  0.00    +0.000 A 
ATOM     31  H   UNL     1      50.959  10.919  11.125  0.00  0.00    +0.000 HD
ENDBRANCH  19  21
BRANCH  18  33
ATOM     32  C   UNL     1      48.062   5.069  16.292  0.00  0.00    +0.000 C 
ATOM     33  C   UNL     1      48.865   6.193  15.629  0.00  0.00    +0.000 C 
ENDBRANCH  18  33
ENDBRANCH   1  18
TORSDOF 8
ENDMDL
MODEL 6
REMARK VINA RESULT:    -6.838      2.425      4.593
REMARK INTER + INTRA:         -11.650
REMARK INTER:                  -9.887
REMARK INTRA:                  -1.763
REMARK UNBOUND:                -1.614
REMARK  Name = 
REMARK  9 active torsions:
REMARK  status: ('A' for Active; 'I' for Inactive)
REMARK    1  A    between atoms: C_1  and  C_2
REMARK    2  A    between atoms: C_2  and  N_3
REMARK    3  A    between atoms: N_3  and  C_4
REMARK    4  A    between atoms: C_4  and  C_5
REMARK    5  A    between atoms: C_8  and  C_9
REMARK    6  A    between atoms: C_9  and  N_10
REMARK    7  A    between atoms: N_10  and  C_11
REMARK    8  A    between atoms: C_11  and  C_12
REMARK    9  A    between atoms: C_20  and  C_22
REMARK                            x       y       z     vdW  Elec       q    Type
REMARK                         _______ _______ _______ _____ _____    ______ ____
ROOT
ATOM      1  C   UNL     1      48.750   6.590  13.883  0.00  0.00    +0.000 C 
ENDROOT
BRANCH   1   2
ATOM      2  C   UNL     1      47.561   6.129  13.106  0.00  0.00    +0.000 A 
ATOM      3  C   UNL     1      46.617   5.302  13.727  0.00  0.00    +0.000 A 
ATOM      4  C   UNL     1      45.370   5.108  13.146  0.00  0.00    +0.000 A 
ATOM      5  C   UNL     1      45.035   5.765  11.951  0.00  0.00    +0.000 A 
ATOM      6  C   UNL     1      46.020   6.512  11.291  0.00  0.00    +0.000 A 
ATOM      7  C   UNL     1      47.288   6.667  11.849  0.00  0.00    +0.000 A 
BRANCH   5   8
ATOM      8  C   UNL     1      43.622   5.740  11.407  0.00  0.00    +0.000 C 
BRANCH   8   9
ATOM      9  N   UNL     1      43.592   5.021  10.138  0.00  0.00    +0.000 NA
ATOM     10  H   UNL     1      44.241   5.464   9.488  0.00  0.00    +0.000 HD
BRANCH   9  11
ATOM     11  C   UNL     1      43.950   3.614  10.254  0.00  0.00    +0.000 C 
BRANCH  11  12
ATOM     12  C   UNL     1      44.955   3.246   9.181  0.00  0.00    +0.000 A 
ATOM     13  C   UNL     1      45.560   4.219   8.369  0.00  0.00    +0.000 A 
ATOM     14  C   UNL     1      46.534   3.861   7.431  0.00  0.00    +0.000 A 
ATOM     15  C   UNL     1      46.896   2.525   7.281  0.00  0.00    +0.000 A 
ATOM     16  C   UNL     1      46.271   1.544   8.050  0.00  0.00    +0.000 A 
ATOM     17  C   UNL     1      45.308   1.901   8.992  0.00  0.00    +0.000 A 
ENDBRANCH  11  12
ENDBRANCH   9  11
ENDBRANCH   8   9
ENDBRANCH   5   8
ENDBRANCH   1   2
BRANCH   1  18
ATOM     18  N   UNL     1      48.577   7.486  15.032  0.00  0.00    +0.000 N 
ATOM     19  C   UNL     1      48.749   8.882  14.900  0.00  0.00    +0.000 C 
ATOM     20  O   UNL     1      48.841   9.590  15.875  0.00  0.00    +0.000 OA
BRANCH  19  21
ATOM     21  C   UNL     1      48.794   9.464  13.548  0.00  0.00    +0.000 A 
ATOM     22  C   UNL     1      47.711   9.986  12.865  0.00  0.00    +0.000 A 
ATOM     23  S   UNL     1      48.093  10.655  11.350  0.00  0.00    +0.000 S 
ATOM     24  C   UNL     1      49.745  10.319  11.575  0.00  0.00    +0.000 A 
ATOM     25  N   UNL     1      50.666  10.735  10.670  0.00  0.00    +0.000 NA
ATOM     26  C   UNL     1      51.888  10.456  10.998  0.00  0.00    +0.000 A 
ATOM     27  N   UNL     1      52.256   9.753  12.116  0.00  0.00    +0.000 N 
ATOM     28  C   UNL     1      51.350   9.200  12.999  0.00  0.00    +0.000 A 
ATOM     29  O   UNL     1      51.699   8.398  13.838  0.00  0.00    +0.000 OA
ATOM     30  C   UNL     1      49.979   9.626  12.746  0.00  0.00    +0.000 A 
ATOM     31  H   UNL     1      53.225   9.530  12.293  0.00  0.00    +0.000 HD
ENDBRANCH  19  21
BRANCH  18  33
ATOM     32  C   UNL     1      48.878   5.503  16.623  0.00  0.00    +0.000 C 
ATOM     33  C   UNL     1      48.544   6.985  16.415  0.00  0.00    +0.000 C 
ENDBRANCH  18  33
ENDBRANCH   1  18
TORSDOF 8
ENDMDL
MODEL 7
REMARK VINA RESULT:    -6.722      2.151      3.525
REMARK INTER + INTRA:         -11.480
REMARK INTER:                  -9.991
REMARK INTRA:                  -1.490
REMARK UNBOUND:                -1.614
REMARK  Name = 
REMARK  9 active torsions:
REMARK  status: ('A' for Active; 'I' for Inactive)
REMARK    1  A    between atoms: C_1  and  C_2
REMARK    2  A    between atoms: C_2  and  N_3
REMARK    3  A    between atoms: N_3  and  C_4
REMARK    4  A    between atoms: C_4  and  C_5
REMARK    5  A    between atoms: C_8  and  C_9
REMARK    6  A    between atoms: C_9  and  N_10
REMARK    7  A    between atoms: N_10  and  C_11
REMARK    8  A    between atoms: C_11  and  C_12
REMARK    9  A    between atoms: C_20  and  C_22
REMARK                            x       y       z     vdW  Elec       q    Type
REMARK                         _______ _______ _______ _____ _____    ______ ____
ROOT
ATOM      1  C   UNL     1      48.398   5.011  15.367  0.00  0.00    +0.000 C 
ENDROOT
BRANCH   1   2
ATOM      2  C   UNL     1      47.430   5.347  14.280  0.00  0.00    +0.000 A 
ATOM      3  C   UNL     1      47.704   6.428  13.432  0.00  0.00    +0.000 A 
ATOM      4  C   UNL     1      46.998   6.579  12.245  0.00  0.00    +0.000 A 
ATOM      5  C   UNL     1      46.031   5.632  11.871  0.00  0.00    +0.000 A 
ATOM      6  C   UNL     1      45.700   4.610  12.772  0.00  0.00    +0.000 A 
ATOM      7  C   UNL     1      46.373   4.488  13.986  0.00  0.00    +0.000 A 
BRANCH   5   8
ATOM      8  C   UNL     1      45.397   5.653  10.495  0.00  0.00    +0.000 C 
BRANCH   8   9
ATOM      9  N   UNL     1      44.935   4.316  10.141  0.00  0.00    +0.000 NA
ATOM     10  H   UNL     1      44.090   4.104  10.669  0.00  0.00    +0.000 HD
BRANCH   9  11
ATOM     11  C   UNL     1      44.642   4.154   8.724  0.00  0.00    +0.000 C 
BRANCH  11  12
ATOM     12  C   UNL     1      45.625   3.183   8.100  0.00  0.00    +0.000 A 
ATOM     13  C   UNL     1      45.734   1.854   8.542  0.00  0.00    +0.000 A 
ATOM     14  C   UNL     1      46.601   0.959   7.907  0.00  0.00    +0.000 A 
ATOM     15  C   UNL     1      47.384   1.391   6.840  0.00  0.00    +0.000 A 
ATOM     16  C   UNL     1      47.319   2.718   6.421  0.00  0.00    +0.000 A 
ATOM     17  C   UNL     1      46.447   3.608   7.046  0.00  0.00    +0.000 A 
ENDBRANCH  11  12
ENDBRANCH   9  11
ENDBRANCH   8   9
ENDBRANCH   5   8
ENDBRANCH   1   2
BRANCH   1  18
ATOM     18  N   UNL     1      48.138   5.445  16.744  0.00  0.00    +0.000 N 
ATOM     19  C   UNL     1      48.979   6.385  17.382  0.00  0.00    +0.000 C 
ATOM     20  O   UNL     1      48.913   6.565  18.575  0.00  0.00    +0.000 OA
BRANCH  19  21
ATOM     21  C   UNL     1      49.925   7.159  16.561  0.00  0.00    +0.000 A 
ATOM     22  C   UNL     1      51.201   6.755  16.215  0.00  0.00    +0.000 A 
ATOM     23  S   UNL     1      52.027   7.835  15.195  0.00  0.00    +0.000 S 
ATOM     24  C   UNL     1      50.676   8.866  15.130  0.00  0.00    +0.000 A 
ATOM     25  N   UNL     1      50.677   9.959  14.326  0.00  0.00    +0.000 NA
ATOM     26  C   UNL     1      49.563  10.621  14.337  0.00  0.00    +0.000 A 
ATOM     27  N   UNL     1      48.481  10.315  15.121  0.00  0.00    +0.000 N 
ATOM     28  C   UNL     1      48.478   9.291  16.047  0.00  0.00    +0.000 A 
ATOM     29  O   UNL     1      47.599   9.197  16.877  0.00  0.00    +0.000 OA
ATOM     30  C   UNL     1      49.652   8.434  15.949  0.00  0.00    +0.000 A 
ATOM     31  H   UNL     1      47.656  10.898  15.117  0.00  0.00    +0.000 HD
ENDBRANCH  19  21
BRANCH  18  33
ATOM     32  C   UNL     1      47.201   3.187  17.502  0.00  0.00    +0.000 C 
ATOM     33  C   UNL     1      47.224   4.714  17.634  0.00  0.00    +0.000 C 
ENDBRANCH  18  33
ENDBRANCH   1  18
TORSDOF 8
ENDMDL
MODEL 8
REMARK VINA RESULT:    -6.592      1.699      2.471
REMARK INTER + INTRA:         -11.289
REMARK INTER:                 -10.115
REMARK INTRA:                  -1.174
REMARK UNBOUND:                -1.614
REMARK  Name = 
REMARK  9 active torsions:
REMARK  status: ('A' for Active; 'I' for Inactive)
REMARK    1  A    between atoms: C_1  and  C_2
REMARK    2  A    between atoms: C_2  and  N_3
REMARK    3  A    between atoms: N_3  and  C_4
REMARK    4  A    between atoms: C_4  and  C_5
REMARK    5  A    between atoms: C_8  and  C_9
REMARK    6  A    between atoms: C_9  and  N_10
REMARK    7  A    between atoms: N_10  and  C_11
REMARK    8  A    between atoms: C_11  and  C_12
REMARK    9  A    between atoms: C_20  and  C_22
REMARK                            x       y       z     vdW  Elec       q    Type
REMARK                         _______ _______ _______ _____ _____    ______ ____
ROOT
ATOM      1  C   UNL     1      47.325   7.967  14.009  0.00  0.00    +0.000 C 
ENDROOT
BRANCH   1   2
ATOM      2  C   UNL     1      46.517   7.360  12.910  0.00  0.00    +0.000 A 
ATOM      3  C   UNL     1      46.764   6.034  12.533  0.00  0.00    +0.000 A 
ATOM      4  C   UNL     1      45.847   5.351  11.742  0.00  0.00    +0.000 A 
ATOM      5  C   UNL     1      44.653   5.973  11.346  0.00  0.00    +0.000 A 
ATOM      6  C   UNL     1      44.462   7.328  11.648  0.00  0.00    +0.000 A 
ATOM      7  C   UNL     1      45.405   8.028  12.399  0.00  0.00    +0.000 A 
BRANCH   5   8
ATOM      8  C   UNL     1      43.547   5.194  10.666  0.00  0.00    +0.000 C 
BRANCH   8   9
ATOM      9  N   UNL     1      44.042   4.608   9.425  0.00  0.00    +0.000 NA
ATOM     10  H   UNL     1      44.906   5.077   9.157  0.00  0.00    +0.000 HD
BRANCH   9  11
ATOM     11  C   UNL     1      44.307   3.179   9.517  0.00  0.00    +0.000 C 
BRANCH  11  12
ATOM     12  C   UNL     1      45.396   2.790   8.537  0.00  0.00    +0.000 A 
ATOM     13  C   UNL     1      46.003   3.734   7.694  0.00  0.00    +0.000 A 
ATOM     14  C   UNL     1      47.052   3.364   6.845  0.00  0.00    +0.000 A 
ATOM     15  C   UNL     1      47.486   2.041   6.815  0.00  0.00    +0.000 A 
ATOM     16  C   UNL     1      46.861   1.085   7.614  0.00  0.00    +0.000 A 
ATOM     17  C   UNL     1      45.823   1.455   8.467  0.00  0.00    +0.000 A 
ENDBRANCH  11  12
ENDBRANCH   9  11
ENDBRANCH   8   9
ENDBRANCH   5   8
ENDBRANCH   1   2
BRANCH   1  18
ATOM     18  N   UNL     1      48.338   8.983  13.703  0.00  0.00    +0.000 N 
ATOM     19  C   UNL     1      48.962   9.724  14.731  0.00  0.00    +0.000 C 
ATOM     20  O   UNL     1      49.611  10.712  14.477  0.00  0.00    +0.000 OA
BRANCH  19  21
ATOM     21  C   UNL     1      48.824   9.258  16.121  0.00  0.00    +0.000 A 
ATOM     22  C   UNL     1      48.033   9.849  17.089  0.00  0.00    +0.000 A 
ATOM     23  S   UNL     1      48.024   9.036  18.581  0.00  0.00    +0.000 S 
ATOM     24  C   UNL     1      49.042   7.820  17.968  0.00  0.00    +0.000 A 
ATOM     25  N   UNL     1      49.354   6.734  18.719  0.00  0.00    +0.000 NA
ATOM     26  C   UNL     1      50.094   5.865  18.105  0.00  0.00    +0.000 A 
ATOM     27  N   UNL     1      50.589   6.019  16.836  0.00  0.00    +0.000 N 
ATOM     28  C   UNL     1      50.404   7.160  16.080  0.00  0.00    +0.000 A 
ATOM     29  O   UNL     1      51.043   7.353  15.068  0.00  0.00    +0.000 OA
ATOM     30  C   UNL     1      49.452   8.087  16.677  0.00  0.00    +0.000 A 
ATOM     31  H   UNL     1      51.197   5.323  16.428  0.00  0.00    +0.000 HD
ENDBRANCH  19  21
BRANCH  18  33
ATOM     32  C   UNL     1      49.555   8.809  11.457  0.00  0.00    +0.000 C 
ATOM     33  C   UNL     1      48.523   9.516  12.344  0.00  0.00    +0.000 C 
ENDBRANCH  18  33
ENDBRANCH   1  18
TORSDOF 8
ENDMDL
MODEL 9
REMARK VINA RESULT:    -6.526      2.452      3.869
REMARK INTER + INTRA:         -11.193
REMARK INTER:                  -9.833
REMARK INTRA:                  -1.360
REMARK UNBOUND:                -1.614
REMARK  Name = 
REMARK  9 active torsions:
REMARK  status: ('A' for Active; 'I' for Inactive)
REMARK    1  A    between atoms: C_1  and  C_2
REMARK    2  A    between atoms: C_2  and  N_3
REMARK    3  A    between atoms: N_3  and  C_4
REMARK    4  A    between atoms: C_4  and  C_5
REMARK    5  A    between atoms: C_8  and  C_9
REMARK    6  A    between atoms: C_9  and  N_10
REMARK    7  A    between atoms: N_10  and  C_11
REMARK    8  A    between atoms: C_11  and  C_12
REMARK    9  A    between atoms: C_20  and  C_22
REMARK                            x       y       z     vdW  Elec       q    Type
REMARK                         _______ _______ _______ _____ _____    ______ ____
ROOT
ATOM      1  C   UNL     1      49.223   8.196  15.738  0.00  0.00    +0.000 C 
ENDROOT
BRANCH   1   2
ATOM      2  C   UNL     1      48.332   7.908  14.575  0.00  0.00    +0.000 A 
ATOM      3  C   UNL     1      48.110   6.578  14.198  0.00  0.00    +0.000 A 
ATOM      4  C   UNL     1      47.068   6.263  13.333  0.00  0.00    +0.000 A 
ATOM      5  C   UNL     1      46.211   7.269  12.860  0.00  0.00    +0.000 A 
ATOM      6  C   UNL     1      46.503   8.606  13.167  0.00  0.00    +0.000 A 
ATOM      7  C   UNL     1      47.578   8.926  13.994  0.00  0.00    +0.000 A 
BRANCH   5   8
ATOM      8  C   UNL     1      44.951   6.935  12.090  0.00  0.00    +0.000 C 
BRANCH   8   9
ATOM      9  N   UNL     1      45.289   6.187  10.885  0.00  0.00    +0.000 NA
ATOM     10  H   UNL     1      46.253   5.863  10.952  0.00  0.00    +0.000 HD
BRANCH   9  11
ATOM     11  C   UNL     1      44.433   5.032  10.652  0.00  0.00    +0.000 C 
BRANCH  11  12
ATOM     12  C   UNL     1      45.075   4.108   9.636  0.00  0.00    +0.000 A 
ATOM     13  C   UNL     1      44.952   2.712   9.724  0.00  0.00    +0.000 A 
ATOM     14  C   UNL     1      45.498   1.883   8.737  0.00  0.00    +0.000 A 
ATOM     15  C   UNL     1      46.191   2.443   7.667  0.00  0.00    +0.000 A 
ATOM     16  C   UNL     1      46.359   3.824   7.592  0.00  0.00    +0.000 A 
ATOM     17  C   UNL     1      45.807   4.651   8.569  0.00  0.00    +0.000 A 
ENDBRANCH  11  12
ENDBRANCH   9  11
ENDBRANCH   8   9
ENDBRANCH   5   8
ENDBRANCH   1   2
BRANCH   1  18
ATOM     18  N   UNL     1      48.659   8.302  17.088  0.00  0.00    +0.000 N 
ATOM     19  C   UNL     1      48.817   7.259  18.028  0.00  0.00    +0.000 C 
ATOM     20  O   UNL     1      48.163   7.236  19.044  0.00  0.00    +0.000 OA
BRANCH  19  21
ATOM     21  C   UNL     1      49.810   6.207  17.755  0.00  0.00    +0.000 A 
ATOM     22  C   UNL     1      51.182   6.357  17.846  0.00  0.00    +0.000 A 
ATOM     23  S   UNL     1      52.066   4.938  17.542  0.00  0.00    +0.000 S 
ATOM     24  C   UNL     1      50.634   4.046  17.332  0.00  0.00    +0.000 A 
ATOM     25  N   UNL     1      50.676   2.703  17.140  0.00  0.00    +0.000 NA
ATOM     26  C   UNL     1      49.509   2.148  17.049  0.00  0.00    +0.000 A 
ATOM     27  N   UNL     1      48.318   2.826  17.076  0.00  0.00    +0.000 N 
ATOM     28  C   UNL     1      48.227   4.202  17.141  0.00  0.00    +0.000 A 
ATOM     29  O   UNL     1      47.178   4.773  16.931  0.00  0.00    +0.000 OA
ATOM     30  C   UNL     1      49.509   4.844  17.401  0.00  0.00    +0.000 A 
ATOM     31  H   UNL     1      47.441   2.339  16.956  0.00  0.00    +0.000 HD
ENDBRANCH  19  21
BRANCH  18  33
ATOM     32  C   UNL     1      48.149  10.736  17.696  0.00  0.00    +0.000 C 
ATOM     33  C   UNL     1      47.646   9.312  17.435  0.00  0.00    +0.000 C 
ENDBRANCH  18  33
ENDBRANCH   1  18
TORSDOF 8
ENDMDL
