MODEL 1
REMARK VINA RESULT:    -7.907      0.000      0.000
REMARK INTER + INTRA:         -12.035
REMARK INTER:                 -11.143
REMARK INTRA:                  -0.892
REMARK UNBOUND:                -0.892
REMARK  Name = 
REMARK  7 active torsions:
REMARK  status: ('A' for Active; 'I' for Inactive)
REMARK    1  A    between atoms: C_2  and  C_4
REMARK    2  A    between atoms: C_7  and  N_8
REMARK    3  A    between atoms: N_8  and  C_9
REMARK    4  A    between atoms: C_9  and  C_10
REMARK    5  A    between atoms: C_10  and  C_11
REMARK    6  A    between atoms: C_15  and  O_16
REMARK    7  A    between atoms: O_16  and  C_17
REMARK                            x       y       z     vdW  Elec       q    Type
REMARK                         _______ _______ _______ _____ _____    ______ ____
ROOT
ATOM      1  N   UNL     1      43.635   3.957  10.184  0.00  0.00    +0.000 N 
ATOM      2  H   UNL     1      42.689   3.913   9.811  0.00  0.00    +0.000 HD
ENDROOT
BRANCH   1   6
ATOM      3  C   UNL     1      46.604   2.445   7.574  0.00  0.00    +0.000 A 
ATOM      4  C   UNL     1      45.918   1.571   8.416  0.00  0.00    +0.000 A 
ATOM      5  C   UNL     1      44.926   2.060   9.271  0.00  0.00    +0.000 A 
ATOM      6  C   UNL     1      44.573   3.417   9.290  0.00  0.00    +0.000 A 
ATOM      7  C   UNL     1      45.291   4.286   8.456  0.00  0.00    +0.000 A 
ATOM      8  C   UNL     1      46.302   3.808   7.607  0.00  0.00    +0.000 A 
BRANCH   3  10
ATOM      9  N   UNL     1      48.712   2.828   6.416  0.00  0.00    +0.000 N 
ATOM     10  C   UNL     1      47.680   1.962   6.674  0.00  0.00    +0.000 C 
ATOM     11  O   UNL     1      47.675   0.833   6.203  0.00  0.00    +0.000 OA
ATOM     12  H   UNL     1      49.484   2.459   5.878  0.00  0.00    +0.000 HD
ATOM     13  H   UNL     1      48.873   3.660   6.965  0.00  0.00    +0.000 HD
ENDBRANCH   3  10
ENDBRANCH   1   6
BRANCH   1  14
ATOM     14  C   UNL     1      43.758   3.616  11.599  0.00  0.00    +0.000 C 
BRANCH  14  15
ATOM     15  C   UNL     1      43.838   4.853  12.497  0.00  0.00    +0.000 C 
BRANCH  15  16
ATOM     16  C   UNL     1      45.280   5.302  12.595  0.00  0.00    +0.000 A 
ATOM     17  C   UNL     1      45.820   6.183  11.650  0.00  0.00    +0.000 A 
ATOM     18  C   UNL     1      47.108   6.695  11.823  0.00  0.00    +0.000 A 
ATOM     19  C   UNL     1      47.874   6.330  12.934  0.00  0.00    +0.000 A 
ATOM     20  C   UNL     1      47.353   5.439  13.868  0.00  0.00    +0.000 A 
ATOM     21  C   UNL     1      46.060   4.934  13.701  0.00  0.00    +0.000 A 
BRANCH  20  22
ATOM     22  O   UNL     1      47.992   5.027  15.011  0.00  0.00    +0.000 OA
BRANCH  22  23
ATOM     23  C   UNL     1      47.275   4.206  15.958  0.00  0.00    +0.000 C 
ATOM     24  C   UNL     1      47.333   4.594  17.442  0.00  0.00    +0.000 C 
ATOM     25  O   UNL     1      47.738   3.255  17.819  0.00  0.00    +0.000 OA
ATOM     26  C   UNL     1      48.024   2.950  16.431  0.00  0.00    +0.000 C 
ENDBRANCH  22  23
ENDBRANCH  20  22
ENDBRANCH  15  16
ENDBRANCH  14  15
ENDBRANCH   1  14
TORSDOF 7
ENDMDL
MODEL 2
REMARK VINA RESULT:    -7.380      1.003      1.658
REMARK INTER + INTRA:         -11.292
REMARK INTER:                 -10.529
REMARK INTRA:                  -0.764
REMARK UNBOUND:                -0.892
REMARK  Name = 
REMARK  7 active torsions:
REMARK  status: ('A' for Active; 'I' for Inactive)
REMARK    1  A    between atoms: C_2  and  C_4
REMARK    2  A    between atoms: C_7  and  N_8
REMARK    3  A    between atoms: N_8  and  C_9
REMARK    4  A    between atoms: C_9  and  C_10
REMARK    5  A    between atoms: C_10  and  C_11
REMARK    6  A    between atoms: C_15  and  O_16
REMARK    7  A    between atoms: O_16  and  C_17
REMARK                            x       y       z     vdW  Elec       q    Type
REMARK                         _______ _______ _______ _____ _____    ______ ____
ROOT
ATOM      1  N   UNL     1      43.580   4.618   9.942  0.00  0.00    +0.000 N 
ATOM      2  H   UNL     1      42.673   4.162   9.863  0.00  0.00    +0.000 HD
ENDROOT
BRANCH   1   6
ATOM      3  C   UNL     1      46.457   2.353   7.821  0.00  0.00    +0.000 A 
ATOM      4  C   UNL     1      46.393   3.733   7.634  0.00  0.00    +0.000 A 
ATOM      5  C   UNL     1      45.456   4.490   8.341  0.00  0.00    +0.000 A 
ATOM      6  C   UNL     1      44.583   3.904   9.267  0.00  0.00    +0.000 A 
ATOM      7  C   UNL     1      44.642   2.511   9.424  0.00  0.00    +0.000 A 
ATOM      8  C   UNL     1      45.568   1.739   8.706  0.00  0.00    +0.000 A 
BRANCH   3  10
ATOM      9  N   UNL     1      47.070   0.213   6.835  0.00  0.00    +0.000 N 
ATOM     10  C   UNL     1      47.424   1.517   7.067  0.00  0.00    +0.000 C 
ATOM     11  O   UNL     1      48.477   1.968   6.638  0.00  0.00    +0.000 OA
ATOM     12  H   UNL     1      47.691  -0.323   6.242  0.00  0.00    +0.000 HD
ATOM     13  H   UNL     1      46.126  -0.125   6.957  0.00  0.00    +0.000 HD
ENDBRANCH   3  10
ENDBRANCH   1   6
BRANCH   1  14
ATOM     14  C   UNL     1      43.888   5.154  11.266  0.00  0.00    +0.000 C 
BRANCH  14  15
ATOM     15  C   UNL     1      44.751   6.416  11.203  0.00  0.00    +0.000 C 
BRANCH  15  16
ATOM     16  C   UNL     1      45.930   6.259  12.137  0.00  0.00    +0.000 A 
ATOM     17  C   UNL     1      46.995   7.167  12.104  0.00  0.00    +0.000 A 
ATOM     18  C   UNL     1      48.014   7.092  13.057  0.00  0.00    +0.000 A 
ATOM     19  C   UNL     1      47.985   6.107  14.049  0.00  0.00    +0.000 A 
ATOM     20  C   UNL     1      46.941   5.187  14.078  0.00  0.00    +0.000 A 
ATOM     21  C   UNL     1      45.917   5.269  13.130  0.00  0.00    +0.000 A 
BRANCH  20  22
ATOM     22  O   UNL     1      46.786   4.196  15.014  0.00  0.00    +0.000 OA
BRANCH  22  23
ATOM     23  C   UNL     1      47.730   4.106  16.104  0.00  0.00    +0.000 C 
ATOM     24  C   UNL     1      48.134   2.711  16.600  0.00  0.00    +0.000 C 
ATOM     25  O   UNL     1      47.822   3.064  17.971  0.00  0.00    +0.000 OA
ATOM     26  C   UNL     1      47.121   4.245  17.508  0.00  0.00    +0.000 C 
ENDBRANCH  22  23
ENDBRANCH  20  22
ENDBRANCH  15  16
ENDBRANCH  14  15
ENDBRANCH   1  14
TORSDOF 7
ENDMDL
MODEL 3
REMARK VINA RESULT:    -7.217      2.685      4.285
REMARK INTER + INTRA:         -11.062
REMARK INTER:                 -10.354
REMARK INTRA:                  -0.708
REMARK UNBOUND:                -0.892
REMARK  Name = 
REMARK  7 active torsions:
REMARK  status: ('A' for Active; 'I' for Inactive)
REMARK    1  A    between atoms: C_2  and  C_4
REMARK    2  A    between atoms: C_7  and  N_8
REMARK    3  A    between atoms: N_8  and  C_9
REMARK    4  A    between atoms: C_9  and  C_10
REMARK    5  A    between atoms: C_10  and  C_11
REMARK    6  A    between atoms: C_15  and  O_16
REMARK    7  A    between atoms: O_16  and  C_17
REMARK                            x       y       z     vdW  Elec       q    Type
REMARK                         _______ _______ _______ _____ _____    ______ ____
ROOT
ATOM      1  N   UNL     1      43.594   3.936  10.474  0.00  0.00    +0.000 N 
ATOM      2  H   UNL     1      42.698   4.067  10.009  0.00  0.00    +0.000 HD
ENDROOT
BRANCH   1   6
ATOM      3  C   UNL     1      46.516   2.807   7.628  0.00  0.00    +0.000 A 
ATOM      4  C   UNL     1      46.236   4.158   7.828  0.00  0.00    +0.000 A 
ATOM      5  C   UNL     1      45.283   4.540   8.776  0.00  0.00    +0.000 A 
ATOM      6  C   UNL     1      44.609   3.597   9.565  0.00  0.00    +0.000 A 
ATOM      7  C   UNL     1      44.883   2.242   9.333  0.00  0.00    +0.000 A 
ATOM      8  C   UNL     1      45.825   1.846   8.370  0.00  0.00    +0.000 A 
BRANCH   3  10
ATOM      9  N   UNL     1      47.386   2.905   5.357  0.00  0.00    +0.000 N 
ATOM     10  C   UNL     1      47.503   2.367   6.612  0.00  0.00    +0.000 C 
ATOM     11  O   UNL     1      48.406   1.586   6.878  0.00  0.00    +0.000 OA
ATOM     12  H   UNL     1      48.116   2.672   4.697  0.00  0.00    +0.000 HD
ATOM     13  H   UNL     1      46.818   3.718   5.165  0.00  0.00    +0.000 HD
ENDBRANCH   3  10
ENDBRANCH   1   6
BRANCH   1  14
ATOM     14  C   UNL     1      43.532   3.207  11.739  0.00  0.00    +0.000 C 
BRANCH  14  15
ATOM     15  C   UNL     1      43.477   4.139  12.952  0.00  0.00    +0.000 C 
BRANCH  15  16
ATOM     16  C   UNL     1      44.609   5.140  12.861  0.00  0.00    +0.000 A 
ATOM     17  C   UNL     1      45.903   4.795  13.268  0.00  0.00    +0.000 A 
ATOM     18  C   UNL     1      46.965   5.678  13.058  0.00  0.00    +0.000 A 
ATOM     19  C   UNL     1      46.748   6.916  12.446  0.00  0.00    +0.000 A 
ATOM     20  C   UNL     1      45.461   7.276  12.056  0.00  0.00    +0.000 A 
ATOM     21  C   UNL     1      44.400   6.388  12.257  0.00  0.00    +0.000 A 
BRANCH  20  22
ATOM     22  O   UNL     1      45.125   8.446  11.422  0.00  0.00    +0.000 OA
BRANCH  22  23
ATOM     23  C   UNL     1      44.989   9.653  12.204  0.00  0.00    +0.000 C 
ATOM     24  C   UNL     1      43.902  10.658  11.800  0.00  0.00    +0.000 C 
ATOM     25  O   UNL     1      44.859  11.746  11.779  0.00  0.00    +0.000 OA
ATOM     26  C   UNL     1      45.948  10.790  11.819  0.00  0.00    +0.000 C 
ENDBRANCH  22  23
ENDBRANCH  20  22
ENDBRANCH  15  16
ENDBRANCH  14  15
ENDBRANCH   1  14
TORSDOF 7
ENDMDL
MODEL 4
REMARK VINA RESULT:    -7.159      2.233      3.637
REMARK INTER + INTRA:         -10.980
REMARK INTER:                  -9.986
REMARK INTRA:                  -0.994
REMARK UNBOUND:                -0.892
REMARK  Name = 
REMARK  7 active torsions:
REMARK  status: ('A' for Active; 'I' for Inactive)
REMARK    1  A    between atoms: C_2  and  C_4
REMARK    2  A    between atoms: C_7  and  N_8
REMARK    3  A    between atoms: N_8  and  C_9
REMARK    4  A    between atoms: C_9  and  C_10
REMARK    5  A    between atoms: C_10  and  C_11
REMARK    6  A    between atoms: C_15  and  O_16
REMARK    7  A    between atoms: O_16  and  C_17
REMARK                            x       y       z     vdW  Elec       q    Type
REMARK                         _______ _______ _______ _____ _____    ______ ____
ROOT
ATOM      1  N   UNL     1      43.896   4.964   9.698  0.00  0.00    +0.000 N 
ATOM      2  H   UNL     1      43.344   5.459   9.001  0.00  0.00    +0.000 HD
ENDROOT
BRANCH   1   6
ATOM      3  C   UNL     1      46.375   2.078   7.843  0.00  0.00    +0.000 A 
ATOM      4  C   UNL     1      46.498   3.421   7.490  0.00  0.00    +0.000 A 
ATOM      5  C   UNL     1      45.694   4.382   8.108  0.00  0.00    +0.000 A 
ATOM      6  C   UNL     1      44.772   4.039   9.107  0.00  0.00    +0.000 A 
ATOM      7  C   UNL     1      44.641   2.681   9.431  0.00  0.00    +0.000 A 
ATOM      8  C   UNL     1      45.432   1.705   8.803  0.00  0.00    +0.000 A 
BRANCH   3  10
ATOM      9  N   UNL     1      46.918  -0.272   7.514  0.00  0.00    +0.000 N 
ATOM     10  C   UNL     1      47.195   1.030   7.188  0.00  0.00    +0.000 C 
ATOM     11  O   UNL     1      48.060   1.301   6.367  0.00  0.00    +0.000 OA
ATOM     12  H   UNL     1      47.419  -0.982   6.995  0.00  0.00    +0.000 HD
ATOM     13  H   UNL     1      46.071  -0.545   7.991  0.00  0.00    +0.000 HD
ENDBRANCH   3  10
ENDBRANCH   1   6
BRANCH   1  14
ATOM     14  C   UNL     1      43.158   4.547  10.889  0.00  0.00    +0.000 C 
BRANCH  14  15
ATOM     15  C   UNL     1      43.248   5.572  12.022  0.00  0.00    +0.000 C 
BRANCH  15  16
ATOM     16  C   UNL     1      44.616   5.486  12.662  0.00  0.00    +0.000 A 
ATOM     17  C   UNL     1      45.170   4.247  13.006  0.00  0.00    +0.000 A 
ATOM     18  C   UNL     1      46.484   4.169  13.472  0.00  0.00    +0.000 A 
ATOM     19  C   UNL     1      47.259   5.324  13.607  0.00  0.00    +0.000 A 
ATOM     20  C   UNL     1      46.711   6.564  13.287  0.00  0.00    +0.000 A 
ATOM     21  C   UNL     1      45.399   6.641  12.811  0.00  0.00    +0.000 A 
BRANCH  20  22
ATOM     22  O   UNL     1      47.376   7.762  13.349  0.00  0.00    +0.000 OA
BRANCH  22  23
ATOM     23  C   UNL     1      47.790   8.399  12.121  0.00  0.00    +0.000 C 
ATOM     24  C   UNL     1      49.080   7.908  11.450  0.00  0.00    +0.000 C 
ATOM     25  O   UNL     1      49.604   9.258  11.376  0.00  0.00    +0.000 OA
ATOM     26  C   UNL     1      48.579   9.706  12.298  0.00  0.00    +0.000 C 
ENDBRANCH  22  23
ENDBRANCH  20  22
ENDBRANCH  15  16
ENDBRANCH  14  15
ENDBRANCH   1  14
TORSDOF 7
ENDMDL
MODEL 5
REMARK VINA RESULT:    -7.013      1.693      1.978
REMARK INTER + INTRA:         -10.775
REMARK INTER:                  -9.879
REMARK INTRA:                  -0.895
REMARK UNBOUND:                -0.892
REMARK  Name = 
REMARK  7 active torsions:
REMARK  status: ('A' for Active; 'I' for Inactive)
REMARK    1  A    between atoms: C_2  and  C_4
REMARK    2  A    between atoms: C_7  and  N_8
REMARK    3  A    between atoms: N_8  and  C_9
REMARK    4  A    between atoms: C_9  and  C_10
REMARK    5  A    between atoms: C_10  and  C_11
REMARK    6  A    between atoms: C_15  and  O_16
REMARK    7  A    between atoms: O_16  and  C_17
REMARK                            x       y       z     vdW  Elec       q    Type
REMARK                         _______ _______ _______ _____ _____    ______ ____
ROOT
ATOM      1  N   UNL     1      43.743   3.392  10.649  0.00  0.00    +0.000 N 
ATOM      2  H   UNL     1      43.780   2.618  11.310  0.00  0.00    +0.000 HD
ENDROOT
BRANCH   1   6
ATOM      3  C   UNL     1      46.350   2.839   7.362  0.00  0.00    +0.000 A 
ATOM      4  C   UNL     1      46.018   1.751   8.167  0.00  0.00    +0.000 A 
ATOM      5  C   UNL     1      45.146   1.922   9.246  0.00  0.00    +0.000 A 
ATOM      6  C   UNL     1      44.564   3.164   9.534  0.00  0.00    +0.000 A 
ATOM      7  C   UNL     1      44.929   4.254   8.730  0.00  0.00    +0.000 A 
ATOM      8  C   UNL     1      45.818   4.097   7.654  0.00  0.00    +0.000 A 
BRANCH   3  10
ATOM      9  N   UNL     1      48.611   2.482   6.532  0.00  0.00    +0.000 N 
ATOM     10  C   UNL     1      47.292   2.697   6.225  0.00  0.00    +0.000 C 
ATOM     11  O   UNL     1      46.917   2.733   5.061  0.00  0.00    +0.000 OA
ATOM     12  H   UNL     1      49.229   2.294   5.754  0.00  0.00    +0.000 HD
ATOM     13  H   UNL     1      48.916   2.209   7.455  0.00  0.00    +0.000 HD
ENDBRANCH   3  10
ENDBRANCH   1   6
BRANCH   1  14
ATOM     14  C   UNL     1      43.759   4.722  11.256  0.00  0.00    +0.000 C 
BRANCH  14  15
ATOM     15  C   UNL     1      44.349   4.716  12.668  0.00  0.00    +0.000 C 
BRANCH  15  16
ATOM     16  C   UNL     1      45.703   5.391  12.643  0.00  0.00    +0.000 A 
ATOM     17  C   UNL     1      46.071   6.218  11.576  0.00  0.00    +0.000 A 
ATOM     18  C   UNL     1      47.266   6.940  11.625  0.00  0.00    +0.000 A 
ATOM     19  C   UNL     1      48.110   6.840  12.735  0.00  0.00    +0.000 A 
ATOM     20  C   UNL     1      47.762   6.004  13.793  0.00  0.00    +0.000 A 
ATOM     21  C   UNL     1      46.562   5.289  13.748  0.00  0.00    +0.000 A 
BRANCH  20  22
ATOM     22  O   UNL     1      48.490   5.843  14.945  0.00  0.00    +0.000 OA
BRANCH  22  23
ATOM     23  C   UNL     1      49.416   6.878  15.339  0.00  0.00    +0.000 C 
ATOM     24  C   UNL     1      50.405   6.571  16.473  0.00  0.00    +0.000 C 
ATOM     25  O   UNL     1      50.020   7.770  17.189  0.00  0.00    +0.000 OA
ATOM     26  C   UNL     1      48.858   7.909  16.332  0.00  0.00    +0.000 C 
ENDBRANCH  22  23
ENDBRANCH  20  22
ENDBRANCH  15  16
ENDBRANCH  14  15
ENDBRANCH   1  14
TORSDOF 7
ENDMDL
MODEL 6
REMARK VINA RESULT:    -6.449      2.652      8.244
REMARK INTER + INTRA:          -9.979
REMARK INTER:                  -9.392
REMARK INTRA:                  -0.587
REMARK UNBOUND:                -0.892
REMARK  Name = 
REMARK  7 active torsions:
REMARK  status: ('A' for Active; 'I' for Inactive)
REMARK    1  A    between atoms: C_2  and  C_4
REMARK    2  A    between atoms: C_7  and  N_8
REMARK    3  A    between atoms: N_8  and  C_9
REMARK    4  A    between atoms: C_9  and  C_10
REMARK    5  A    between atoms: C_10  and  C_11
REMARK    6  A    between atoms: C_15  and  O_16
REMARK    7  A    between atoms: O_16  and  C_17
REMARK                            x       y       z     vdW  Elec       q    Type
REMARK                         _______ _______ _______ _____ _____    ______ ____
ROOT
ATOM      1  N   UNL     1      46.973   6.137  12.770  0.00  0.00    +0.000 N 
ATOM      2  H   UNL     1      47.462   5.593  12.061  0.00  0.00    +0.000 HD
ENDROOT
BRANCH   1   6
ATOM      3  C   UNL     1      48.218   4.856  16.607  0.00  0.00    +0.000 A 
ATOM      4  C   UNL     1      48.711   6.052  16.086  0.00  0.00    +0.000 A 
ATOM      5  C   UNL     1      48.295   6.489  14.826  0.00  0.00    +0.000 A 
ATOM      6  C   UNL     1      47.361   5.769  14.068  0.00  0.00    +0.000 A 
ATOM      7  C   UNL     1      46.894   4.555  14.595  0.00  0.00    +0.000 A 
ATOM      8  C   UNL     1      47.321   4.098  15.852  0.00  0.00    +0.000 A 
BRANCH   3  10
ATOM      9  N   UNL     1      47.778   4.481  18.972  0.00  0.00    +0.000 N 
ATOM     10  C   UNL     1      48.660   4.352  17.929  0.00  0.00    +0.000 C 
ATOM     11  O   UNL     1      49.746   3.812  18.090  0.00  0.00    +0.000 OA
ATOM     12  H   UNL     1      48.050   4.053  19.847  0.00  0.00    +0.000 HD
ATOM     13  H   UNL     1      46.801   4.694  18.833  0.00  0.00    +0.000 HD
ENDBRANCH   3  10
ENDBRANCH   1   6
BRANCH   1  14
ATOM     14  C   UNL     1      45.550   6.349  12.511  0.00  0.00    +0.000 C 
BRANCH  14  15
ATOM     15  C   UNL     1      45.248   6.553  11.024  0.00  0.00    +0.000 C 
BRANCH  15  16
ATOM     16  C   UNL     1      45.197   5.204  10.339  0.00  0.00    +0.000 A 
ATOM     17  C   UNL     1      44.452   4.152  10.885  0.00  0.00    +0.000 A 
ATOM     18  C   UNL     1      44.303   2.956  10.179  0.00  0.00    +0.000 A 
ATOM     19  C   UNL     1      44.899   2.793   8.925  0.00  0.00    +0.000 A 
ATOM     20  C   UNL     1      45.658   3.827   8.383  0.00  0.00    +0.000 A 
ATOM     21  C   UNL     1      45.799   5.027   9.085  0.00  0.00    +0.000 A 
BRANCH  20  22
ATOM     22  O   UNL     1      46.267   3.799   7.153  0.00  0.00    +0.000 OA
BRANCH  22  23
ATOM     23  C   UNL     1      46.534   2.524   6.532  0.00  0.00    +0.000 C 
ATOM     24  C   UNL     1      47.812   1.775   6.934  0.00  0.00    +0.000 C 
ATOM     25  O   UNL     1      48.207   1.619   5.548  0.00  0.00    +0.000 OA
ATOM     26  C   UNL     1      47.213   2.599   5.155  0.00  0.00    +0.000 C 
ENDBRANCH  22  23
ENDBRANCH  20  22
ENDBRANCH  15  16
ENDBRANCH  14  15
ENDBRANCH   1  14
TORSDOF 7
ENDMDL
MODEL 7
REMARK VINA RESULT:    -6.090      2.990      4.521
REMARK INTER + INTRA:          -9.474
REMARK INTER:                  -8.472
REMARK INTRA:                  -1.001
REMARK UNBOUND:                -0.892
REMARK  Name = 
REMARK  7 active torsions:
REMARK  status: ('A' for Active; 'I' for Inactive)
REMARK    1  A    between atoms: C_2  and  C_4
REMARK    2  A    between atoms: C_7  and  N_8
REMARK    3  A    between atoms: N_8  and  C_9
REMARK    4  A    between atoms: C_9  and  C_10
REMARK    5  A    between atoms: C_10  and  C_11
REMARK    6  A    between atoms: C_15  and  O_16
REMARK    7  A    between atoms: O_16  and  C_17
REMARK                            x       y       z     vdW  Elec       q    Type
REMARK                         _______ _______ _______ _____ _____    ______ ____
ROOT
ATOM      1  N   UNL     1      45.798   7.818  13.248  0.00  0.00    +0.000 N 
ATOM      2  H   UNL     1      45.872   7.724  14.259  0.00  0.00    +0.000 HD
ENDROOT
BRANCH   1   6
ATOM      3  C   UNL     1      44.425   4.177  11.582  0.00  0.00    +0.000 A 
ATOM      4  C   UNL     1      44.269   5.364  10.867  0.00  0.00    +0.000 A 
ATOM      5  C   UNL     1      44.732   6.568  11.403  0.00  0.00    +0.000 A 
ATOM      6  C   UNL     1      45.384   6.620  12.643  0.00  0.00    +0.000 A 
ATOM      7  C   UNL     1      45.509   5.422  13.361  0.00  0.00    +0.000 A 
ATOM      8  C   UNL     1      45.031   4.210  12.839  0.00  0.00    +0.000 A 
BRANCH   3  10
ATOM      9  N   UNL     1      44.595   2.346   9.987  0.00  0.00    +0.000 N 
ATOM     10  C   UNL     1      43.922   2.887  11.052  0.00  0.00    +0.000 C 
ATOM     11  O   UNL     1      42.971   2.304  11.554  0.00  0.00    +0.000 OA
ATOM     12  H   UNL     1      44.303   1.423   9.691  0.00  0.00    +0.000 HD
ATOM     13  H   UNL     1      45.511   2.664   9.704  0.00  0.00    +0.000 HD
ENDBRANCH   3  10
ENDBRANCH   1   6
BRANCH   1  14
ATOM     14  C   UNL     1      46.880   8.569  12.616  0.00  0.00    +0.000 C 
BRANCH  14  15
ATOM     15  C   UNL     1      48.086   7.690  12.279  0.00  0.00    +0.000 C 
BRANCH  15  16
ATOM     16  C   UNL     1      48.969   7.568  13.502  0.00  0.00    +0.000 A 
ATOM     17  C   UNL     1      49.925   8.548  13.795  0.00  0.00    +0.000 A 
ATOM     18  C   UNL     1      50.642   8.495  14.992  0.00  0.00    +0.000 A 
ATOM     19  C   UNL     1      50.419   7.462  15.907  0.00  0.00    +0.000 A 
ATOM     20  C   UNL     1      49.486   6.471  15.615  0.00  0.00    +0.000 A 
ATOM     21  C   UNL     1      48.761   6.530  14.422  0.00  0.00    +0.000 A 
BRANCH  20  22
ATOM     22  O   UNL     1      49.158   5.426  16.442  0.00  0.00    +0.000 OA
BRANCH  22  23
ATOM     23  C   UNL     1      47.824   4.876  16.382  0.00  0.00    +0.000 C 
ATOM     24  C   UNL     1      47.094   4.600  17.703  0.00  0.00    +0.000 C 
ATOM     25  O   UNL     1      46.799   3.238  17.303  0.00  0.00    +0.000 OA
ATOM     26  C   UNL     1      47.754   3.350  16.218  0.00  0.00    +0.000 C 
ENDBRANCH  22  23
ENDBRANCH  20  22
ENDBRANCH  15  16
ENDBRANCH  14  15
ENDBRANCH   1  14
TORSDOF 7
ENDMDL
MODEL 8
REMARK VINA RESULT:    -6.070      3.695      5.498
REMARK INTER + INTRA:          -9.446
REMARK INTER:                  -8.897
REMARK INTRA:                  -0.549
REMARK UNBOUND:                -0.892
REMARK  Name = 
REMARK  7 active torsions:
REMARK  status: ('A' for Active; 'I' for Inactive)
REMARK    1  A    between atoms: C_2  and  C_4
REMARK    2  A    between atoms: C_7  and  N_8
REMARK    3  A    between atoms: N_8  and  C_9
REMARK    4  A    between atoms: C_9  and  C_10
REMARK    5  A    between atoms: C_10  and  C_11
REMARK    6  A    between atoms: C_15  and  O_16
REMARK    7  A    between atoms: O_16  and  C_17
REMARK                            x       y       z     vdW  Elec       q    Type
REMARK                         _______ _______ _______ _____ _____    ______ ____
ROOT
ATOM      1  N   UNL     1      48.499   6.460  12.904  0.00  0.00    +0.000 N 
ATOM      2  H   UNL     1      49.095   6.187  12.125  0.00  0.00    +0.000 HD
ENDROOT
BRANCH   1   6
ATOM      3  C   UNL     1      44.503   5.376  12.026  0.00  0.00    +0.000 A 
ATOM      4  C   UNL     1      45.106   4.898  13.189  0.00  0.00    +0.000 A 
ATOM      5  C   UNL     1      46.420   5.263  13.493  0.00  0.00    +0.000 A 
ATOM      6  C   UNL     1      47.154   6.129  12.671  0.00  0.00    +0.000 A 
ATOM      7  C   UNL     1      46.542   6.579  11.492  0.00  0.00    +0.000 A 
ATOM      8  C   UNL     1      45.228   6.204  11.167  0.00  0.00    +0.000 A 
BRANCH   3  10
ATOM      9  N   UNL     1      42.156   5.960  11.745  0.00  0.00    +0.000 N 
ATOM     10  C   UNL     1      43.119   4.987  11.661  0.00  0.00    +0.000 C 
ATOM     11  O   UNL     1      42.841   3.862  11.270  0.00  0.00    +0.000 OA
ATOM     12  H   UNL     1      41.235   5.712  11.407  0.00  0.00    +0.000 HD
ATOM     13  H   UNL     1      42.380   6.941  11.828  0.00  0.00    +0.000 HD
ENDBRANCH   3  10
ENDBRANCH   1   6
BRANCH   1  14
ATOM     14  C   UNL     1      48.795   7.771  13.478  0.00  0.00    +0.000 C 
BRANCH  14  15
ATOM     15  C   UNL     1      48.453   7.849  14.967  0.00  0.00    +0.000 C 
BRANCH  15  16
ATOM     16  C   UNL     1      49.383   6.938  15.739  0.00  0.00    +0.000 A 
ATOM     17  C   UNL     1      50.769   7.131  15.699  0.00  0.00    +0.000 A 
ATOM     18  C   UNL     1      51.608   6.370  16.517  0.00  0.00    +0.000 A 
ATOM     19  C   UNL     1      51.077   5.405  17.377  0.00  0.00    +0.000 A 
ATOM     20  C   UNL     1      49.701   5.192  17.408  0.00  0.00    +0.000 A 
ATOM     21  C   UNL     1      48.861   5.960  16.597  0.00  0.00    +0.000 A 
BRANCH  20  22
ATOM     22  O   UNL     1      49.058   4.297  18.226  0.00  0.00    +0.000 OA
BRANCH  22  23
ATOM     23  C   UNL     1      49.019   2.904  17.849  0.00  0.00    +0.000 C 
ATOM     24  C   UNL     1      50.256   2.303  17.168  0.00  0.00    +0.000 C 
ATOM     25  O   UNL     1      49.455   1.784  16.078  0.00  0.00    +0.000 OA
ATOM     26  C   UNL     1      48.343   2.612  16.500  0.00  0.00    +0.000 C 
ENDBRANCH  22  23
ENDBRANCH  20  22
ENDBRANCH  15  16
ENDBRANCH  14  15
ENDBRANCH   1  14
TORSDOF 7
ENDMDL
MODEL 9
REMARK VINA RESULT:    -6.030      3.684      8.270
REMARK INTER + INTRA:          -9.390
REMARK INTER:                  -8.948
REMARK INTRA:                  -0.442
REMARK UNBOUND:                -0.892
REMARK  Name = 
REMARK  7 active torsions:
REMARK  status: ('A' for Active; 'I' for Inactive)
REMARK    1  A    between atoms: C_2  and  C_4
REMARK    2  A    between atoms: C_7  and  N_8
REMARK    3  A    between atoms: N_8  and  C_9
REMARK    4  A    between atoms: C_9  and  C_10
REMARK    5  A    between atoms: C_10  and  C_11
REMARK    6  A    between atoms: C_15  and  O_16
REMARK    7  A    between atoms: O_16  and  C_17
REMARK                            x       y       z     vdW  Elec       q    Type
REMARK                         _______ _______ _______ _____ _____    ______ ____
ROOT
ATOM      1  N   UNL     1      47.361   4.886  16.273  0.00  0.00    +0.000 N 
ATOM      2  H   UNL     1      47.552   5.877  16.146  0.00  0.00    +0.000 HD
ENDROOT
BRANCH   1   6
ATOM      3  C   UNL     1      50.800   2.717  17.448  0.00  0.00    +0.000 A 
ATOM      4  C   UNL     1      50.779   4.104  17.589  0.00  0.00    +0.000 A 
ATOM      5  C   UNL     1      49.642   4.827  17.217  0.00  0.00    +0.000 A 
ATOM      6  C   UNL     1      48.494   4.191  16.725  0.00  0.00    +0.000 A 
ATOM      7  C   UNL     1      48.542   2.798  16.564  0.00  0.00    +0.000 A 
ATOM      8  C   UNL     1      49.685   2.065  16.918  0.00  0.00    +0.000 A 
BRANCH   3  10
ATOM      9  N   UNL     1      51.989   0.593  17.483  0.00  0.00    +0.000 N 
ATOM     10  C   UNL     1      52.001   1.925  17.810  0.00  0.00    +0.000 C 
ATOM     11  O   UNL     1      52.977   2.431  18.345  0.00  0.00    +0.000 OA
ATOM     12  H   UNL     1      52.846   0.081  17.649  0.00  0.00    +0.000 HD
ATOM     13  H   UNL     1      51.321   0.198  16.838  0.00  0.00    +0.000 HD
ENDBRANCH   3  10
ENDBRANCH   1   6
BRANCH   1  14
ATOM     14  C   UNL     1      46.553   4.273  15.221  0.00  0.00    +0.000 C 
BRANCH  14  15
ATOM     15  C   UNL     1      46.604   5.059  13.909  0.00  0.00    +0.000 C 
BRANCH  15  16
ATOM     16  C   UNL     1      45.430   4.658  13.043  0.00  0.00    +0.000 A 
ATOM     17  C   UNL     1      44.166   5.223  13.245  0.00  0.00    +0.000 A 
ATOM     18  C   UNL     1      43.122   4.946  12.359  0.00  0.00    +0.000 A 
ATOM     19  C   UNL     1      43.325   4.098  11.266  0.00  0.00    +0.000 A 
ATOM     20  C   UNL     1      44.574   3.515  11.068  0.00  0.00    +0.000 A 
ATOM     21  C   UNL     1      45.621   3.800  11.949  0.00  0.00    +0.000 A 
BRANCH  20  22
ATOM     22  O   UNL     1      44.905   2.692  10.021  0.00  0.00    +0.000 OA
BRANCH  22  23
ATOM     23  C   UNL     1      44.941   3.237   8.684  0.00  0.00    +0.000 C 
ATOM     24  C   UNL     1      46.039   2.748   7.732  0.00  0.00    +0.000 C 
ATOM     25  O   UNL     1      46.436   4.107   7.424  0.00  0.00    +0.000 OA
ATOM     26  C   UNL     1      45.660   4.588   8.550  0.00  0.00    +0.000 C 
ENDBRANCH  22  23
ENDBRANCH  20  22
ENDBRANCH  15  16
ENDBRANCH  14  15
ENDBRANCH   1  14
TORSDOF 7
ENDMDL
