MODEL 1
REMARK VINA RESULT:    -8.390      0.000      0.000
REMARK INTER + INTRA:         -11.345
REMARK INTER:                 -11.333
REMARK INTRA:                  -0.012
REMARK UNBOUND:                -0.012
REMARK  Name = 
REMARK  6 active torsions:
REMARK  status: ('A' for Active; 'I' for Inactive)
REMARK    1  A    between atoms: C_2  and  O_3
REMARK    2  A    between atoms: C_2  and  C_18
REMARK    3  A    between atoms: O_3  and  C_4
REMARK    4  A    between atoms: C_4  and  C_5
REMARK    5  A    between atoms: C_8  and  C_9
REMARK    6  A    between atoms: C_9  and  C_10
REMARK                            x       y       z     vdW  Elec       q    Type
REMARK                         _______ _______ _______ _____ _____    ______ ____
ROOT
ATOM      1  O   UNL     1      46.347   4.552  15.142  0.00  0.00    +0.000 OA
ENDROOT
BRANCH   1   3
ATOM      2  O   UNL     1      47.784   2.792  14.826  0.00  0.00    +0.000 OA
ATOM      3  C   UNL     1      47.384   3.747  15.483  0.00  0.00    +0.000 C 
BRANCH   3   4
ATOM      4  C   UNL     1      47.817   3.997  16.846  0.00  0.00    +0.000 A 
ATOM      5  C   UNL     1      47.112   4.793  17.736  0.00  0.00    +0.000 A 
ATOM      6  S   UNL     1      48.074   5.280  19.071  0.00  0.00    +0.000 S 
ATOM      7  C   UNL     1      49.412   4.402  18.488  0.00  0.00    +0.000 A 
ATOM      8  N   UNL     1      50.663   4.540  19.007  0.00  0.00    +0.000 NA
ATOM      9  C   UNL     1      51.559   3.813  18.418  0.00  0.00    +0.000 A 
ATOM     10  N   UNL     1      51.308   2.894  17.432  0.00  0.00    +0.000 N 
ATOM     11  C   UNL     1      50.046   2.650  16.951  0.00  0.00    +0.000 A 
ATOM     12  O   UNL     1      49.796   1.694  16.229  0.00  0.00    +0.000 OA
ATOM     13  C   UNL     1      49.061   3.600  17.426  0.00  0.00    +0.000 A 
ATOM     14  H   UNL     1      52.033   2.278  17.096  0.00  0.00    +0.000 HD
ENDBRANCH   3   4
ENDBRANCH   1   3
BRANCH   1  15
ATOM     15  C   UNL     1      46.587   5.524  14.120  0.00  0.00    +0.000 C 
BRANCH  15  16
ATOM     16  C   UNL     1      46.065   5.104  12.767  0.00  0.00    +0.000 A 
ATOM     17  C   UNL     1      45.368   3.898  12.634  0.00  0.00    +0.000 A 
ATOM     18  C   UNL     1      44.880   3.491  11.388  0.00  0.00    +0.000 A 
ATOM     19  C   UNL     1      45.083   4.290  10.254  0.00  0.00    +0.000 A 
ATOM     20  C   UNL     1      45.726   5.522  10.401  0.00  0.00    +0.000 A 
ATOM     21  C   UNL     1      46.212   5.927  11.647  0.00  0.00    +0.000 A 
BRANCH  19  22
ATOM     22  C   UNL     1      44.604   3.845   8.891  0.00  0.00    +0.000 C 
BRANCH  22  23
ATOM     23  C   UNL     1      45.579   2.959   8.182  0.00  0.00    +0.000 A 
ATOM     24  C   UNL     1      45.691   1.609   8.450  0.00  0.00    +0.000 A 
ATOM     25  N   UNL     1      46.609   0.804   7.879  0.00  0.00    +0.000 NA
ATOM     26  C   UNL     1      47.439   1.398   7.009  0.00  0.00    +0.000 A 
ATOM     27  N   UNL     1      47.414   2.690   6.647  0.00  0.00    +0.000 NA
ATOM     28  C   UNL     1      46.476   3.445   7.251  0.00  0.00    +0.000 A 
ENDBRANCH  22  23
ENDBRANCH  19  22
ENDBRANCH  15  16
ENDBRANCH   1  15
TORSDOF 6
ENDMDL
MODEL 2
REMARK VINA RESULT:    -8.129      1.770      2.623
REMARK INTER + INTRA:         -10.992
REMARK INTER:                 -10.053
REMARK INTRA:                  -0.939
REMARK UNBOUND:                -0.012
REMARK  Name = 
REMARK  6 active torsions:
REMARK  status: ('A' for Active; 'I' for Inactive)
REMARK    1  A    between atoms: C_2  and  O_3
REMARK    2  A    between atoms: C_2  and  C_18
REMARK    3  A    between atoms: O_3  and  C_4
REMARK    4  A    between atoms: C_4  and  C_5
REMARK    5  A    between atoms: C_8  and  C_9
REMARK    6  A    between atoms: C_9  and  C_10
REMARK                            x       y       z     vdW  Elec       q    Type
REMARK                         _______ _______ _______ _____ _____    ______ ____
ROOT
ATOM      1  O   UNL     1      47.158   7.324  13.255  0.00  0.00    +0.000 OA
ENDROOT
BRANCH   1   3
ATOM      2  O   UNL     1      48.836   5.795  12.928  0.00  0.00    +0.000 OA
ATOM      3  C   UNL     1      48.193   6.544  13.656  0.00  0.00    +0.000 C 
BRANCH   3   4
ATOM      4  C   UNL     1      48.298   6.514  15.103  0.00  0.00    +0.000 A 
ATOM      5  C   UNL     1      48.768   7.579  15.856  0.00  0.00    +0.000 A 
ATOM      6  S   UNL     1      49.218   7.101  17.442  0.00  0.00    +0.000 S 
ATOM      7  C   UNL     1      48.751   5.490  17.141  0.00  0.00    +0.000 A 
ATOM      8  N   UNL     1      49.062   4.467  17.983  0.00  0.00    +0.000 NA
ATOM      9  C   UNL     1      48.649   3.308  17.576  0.00  0.00    +0.000 A 
ATOM     10  N   UNL     1      47.875   3.091  16.464  0.00  0.00    +0.000 N 
ATOM     11  C   UNL     1      47.454   4.108  15.644  0.00  0.00    +0.000 A 
ATOM     12  O   UNL     1      46.600   3.941  14.783  0.00  0.00    +0.000 OA
ATOM     13  C   UNL     1      48.081   5.378  15.944  0.00  0.00    +0.000 A 
ATOM     14  H   UNL     1      47.490   2.179  16.267  0.00  0.00    +0.000 HD
ENDBRANCH   3   4
ENDBRANCH   1   3
BRANCH   1  15
ATOM     15  C   UNL     1      45.856   6.729  13.261  0.00  0.00    +0.000 C 
BRANCH  15  16
ATOM     16  C   UNL     1      45.554   5.951  12.002  0.00  0.00    +0.000 A 
ATOM     17  C   UNL     1      46.134   6.338  10.789  0.00  0.00    +0.000 A 
ATOM     18  C   UNL     1      45.863   5.631   9.613  0.00  0.00    +0.000 A 
ATOM     19  C   UNL     1      45.006   4.523   9.636  0.00  0.00    +0.000 A 
ATOM     20  C   UNL     1      44.476   4.102  10.859  0.00  0.00    +0.000 A 
ATOM     21  C   UNL     1      44.749   4.809  12.033  0.00  0.00    +0.000 A 
BRANCH  19  22
ATOM     22  C   UNL     1      44.665   3.774   8.367  0.00  0.00    +0.000 C 
BRANCH  22  23
ATOM     23  C   UNL     1      45.724   2.803   7.952  0.00  0.00    +0.000 A 
ATOM     24  C   UNL     1      46.736   3.135   7.072  0.00  0.00    +0.000 A 
ATOM     25  N   UNL     1      47.659   2.260   6.625  0.00  0.00    +0.000 NA
ATOM     26  C   UNL     1      47.542   1.007   7.088  0.00  0.00    +0.000 A 
ATOM     27  N   UNL     1      46.622   0.569   7.962  0.00  0.00    +0.000 NA
ATOM     28  C   UNL     1      45.727   1.488   8.374  0.00  0.00    +0.000 A 
ENDBRANCH  22  23
ENDBRANCH  19  22
ENDBRANCH  15  16
ENDBRANCH   1  15
TORSDOF 6
ENDMDL
MODEL 3
REMARK VINA RESULT:    -8.087      1.530      2.012
REMARK INTER + INTRA:         -10.936
REMARK INTER:                 -10.271
REMARK INTRA:                  -0.665
REMARK UNBOUND:                -0.012
REMARK  Name = 
REMARK  6 active torsions:
REMARK  status: ('A' for Active; 'I' for Inactive)
REMARK    1  A    between atoms: C_2  and  O_3
REMARK    2  A    between atoms: C_2  and  C_18
REMARK    3  A    between atoms: O_3  and  C_4
REMARK    4  A    between atoms: C_4  and  C_5
REMARK    5  A    between atoms: C_8  and  C_9
REMARK    6  A    between atoms: C_9  and  C_10
REMARK                            x       y       z     vdW  Elec       q    Type
REMARK                         _______ _______ _______ _____ _____    ______ ____
ROOT
ATOM      1  O   UNL     1      46.864   3.756  15.544  0.00  0.00    +0.000 OA
ENDROOT
BRANCH   1   3
ATOM      2  O   UNL     1      46.732   4.420  17.735  0.00  0.00    +0.000 OA
ATOM      3  C   UNL     1      47.326   3.870  16.814  0.00  0.00    +0.000 C 
BRANCH   3   4
ATOM      4  C   UNL     1      48.721   3.480  16.902  0.00  0.00    +0.000 A 
ATOM      5  C   UNL     1      49.167   2.187  16.675  0.00  0.00    +0.000 A 
ATOM      6  S   UNL     1      50.745   1.927  17.300  0.00  0.00    +0.000 S 
ATOM      7  C   UNL     1      50.851   3.541  17.833  0.00  0.00    +0.000 A 
ATOM      8  N   UNL     1      51.840   3.977  18.661  0.00  0.00    +0.000 NA
ATOM      9  C   UNL     1      51.742   5.227  18.984  0.00  0.00    +0.000 A 
ATOM     10  N   UNL     1      50.812   6.103  18.483  0.00  0.00    +0.000 N 
ATOM     11  C   UNL     1      49.860   5.728  17.568  0.00  0.00    +0.000 A 
ATOM     12  O   UNL     1      49.173   6.545  16.970  0.00  0.00    +0.000 OA
ATOM     13  C   UNL     1      49.802   4.296  17.359  0.00  0.00    +0.000 A 
ATOM     14  H   UNL     1      50.861   7.089  18.687  0.00  0.00    +0.000 HD
ENDBRANCH   3   4
ENDBRANCH   1   3
BRANCH   1  15
ATOM     15  C   UNL     1      46.926   4.925  14.721  0.00  0.00    +0.000 C 
BRANCH  15  16
ATOM     16  C   UNL     1      46.315   4.723  13.356  0.00  0.00    +0.000 A 
ATOM     17  C   UNL     1      45.653   3.526  13.060  0.00  0.00    +0.000 A 
ATOM     18  C   UNL     1      45.083   3.321  11.799  0.00  0.00    +0.000 A 
ATOM     19  C   UNL     1      45.169   4.313  10.814  0.00  0.00    +0.000 A 
ATOM     20  C   UNL     1      45.778   5.531  11.131  0.00  0.00    +0.000 A 
ATOM     21  C   UNL     1      46.344   5.735  12.392  0.00  0.00    +0.000 A 
BRANCH  19  22
ATOM     22  C   UNL     1      44.600   4.090   9.431  0.00  0.00    +0.000 C 
BRANCH  22  23
ATOM     23  C   UNL     1      45.449   3.201   8.579  0.00  0.00    +0.000 A 
ATOM     24  C   UNL     1      45.535   1.837   8.780  0.00  0.00    +0.000 A 
ATOM     25  N   UNL     1      46.346   1.023   8.076  0.00  0.00    +0.000 NA
ATOM     26  C   UNL     1      47.095   1.623   7.139  0.00  0.00    +0.000 A 
ATOM     27  N   UNL     1      47.083   2.929   6.832  0.00  0.00    +0.000 NA
ATOM     28  C   UNL     1      46.253   3.692   7.569  0.00  0.00    +0.000 A 
ENDBRANCH  22  23
ENDBRANCH  19  22
ENDBRANCH  15  16
ENDBRANCH   1  15
TORSDOF 6
ENDMDL
MODEL 4
REMARK VINA RESULT:    -7.956      1.423      1.596
REMARK INTER + INTRA:         -10.758
REMARK INTER:                  -9.984
REMARK INTRA:                  -0.774
REMARK UNBOUND:                -0.012
REMARK  Name = 
REMARK  6 active torsions:
REMARK  status: ('A' for Active; 'I' for Inactive)
REMARK    1  A    between atoms: C_2  and  O_3
REMARK    2  A    between atoms: C_2  and  C_18
REMARK    3  A    between atoms: O_3  and  C_4
REMARK    4  A    between atoms: C_4  and  C_5
REMARK    5  A    between atoms: C_8  and  C_9
REMARK    6  A    between atoms: C_9  and  C_10
REMARK                            x       y       z     vdW  Elec       q    Type
REMARK                         _______ _______ _______ _____ _____    ______ ____
ROOT
ATOM      1  O   UNL     1      47.975   4.279  15.533  0.00  0.00    +0.000 OA
ENDROOT
BRANCH   1   3
ATOM      2  O   UNL     1      46.594   3.222  17.028  0.00  0.00    +0.000 OA
ATOM      3  C   UNL     1      47.534   3.969  16.777  0.00  0.00    +0.000 C 
BRANCH   3   4
ATOM      4  C   UNL     1      48.148   4.820  17.779  0.00  0.00    +0.000 A 
ATOM      5  C   UNL     1      47.425   5.649  18.623  0.00  0.00    +0.000 A 
ATOM      6  S   UNL     1      48.411   6.853  19.349  0.00  0.00    +0.000 S 
ATOM      7  C   UNL     1      49.802   6.247  18.575  0.00  0.00    +0.000 A 
ATOM      8  N   UNL     1      50.984   6.923  18.556  0.00  0.00    +0.000 NA
ATOM      9  C   UNL     1      51.922   6.322  17.896  0.00  0.00    +0.000 A 
ATOM     10  N   UNL     1      51.821   5.072  17.340  0.00  0.00    +0.000 N 
ATOM     11  C   UNL     1      50.680   4.314  17.424  0.00  0.00    +0.000 A 
ATOM     12  O   UNL     1      50.659   3.130  17.115  0.00  0.00    +0.000 OA
ATOM     13  C   UNL     1      49.549   5.044  17.957  0.00  0.00    +0.000 A 
ATOM     14  H   UNL     1      52.625   4.613  16.939  0.00  0.00    +0.000 HD
ENDBRANCH   3   4
ENDBRANCH   1   3
BRANCH   1  15
ATOM     15  C   UNL     1      47.344   5.382  14.874  0.00  0.00    +0.000 C 
BRANCH  15  16
ATOM     16  C   UNL     1      46.537   4.969  13.667  0.00  0.00    +0.000 A 
ATOM     17  C   UNL     1      46.249   3.617  13.452  0.00  0.00    +0.000 A 
ATOM     18  C   UNL     1      45.506   3.216  12.336  0.00  0.00    +0.000 A 
ATOM     19  C   UNL     1      45.038   4.167  11.420  0.00  0.00    +0.000 A 
ATOM     20  C   UNL     1      45.275   5.522  11.670  0.00  0.00    +0.000 A 
ATOM     21  C   UNL     1      46.016   5.920  12.785  0.00  0.00    +0.000 A 
BRANCH  19  22
ATOM     22  C   UNL     1      44.272   3.749  10.185  0.00  0.00    +0.000 C 
BRANCH  22  23
ATOM     23  C   UNL     1      45.158   3.376   9.039  0.00  0.00    +0.000 A 
ATOM     24  C   UNL     1      45.528   2.071   8.777  0.00  0.00    +0.000 A 
ATOM     25  N   UNL     1      46.382   1.715   7.797  0.00  0.00    +0.000 NA
ATOM     26  C   UNL     1      46.874   2.725   7.064  0.00  0.00    +0.000 A 
ATOM     27  N   UNL     1      46.573   4.025   7.203  0.00  0.00    +0.000 NA
ATOM     28  C   UNL     1      45.715   4.319   8.198  0.00  0.00    +0.000 A 
ENDBRANCH  22  23
ENDBRANCH  19  22
ENDBRANCH  15  16
ENDBRANCH   1  15
TORSDOF 6
ENDMDL
MODEL 5
REMARK VINA RESULT:    -7.713      2.154      2.577
REMARK INTER + INTRA:         -10.430
REMARK INTER:                  -9.643
REMARK INTRA:                  -0.787
REMARK UNBOUND:                -0.012
REMARK  Name = 
REMARK  6 active torsions:
REMARK  status: ('A' for Active; 'I' for Inactive)
REMARK    1  A    between atoms: C_2  and  O_3
REMARK    2  A    between atoms: C_2  and  C_18
REMARK    3  A    between atoms: O_3  and  C_4
REMARK    4  A    between atoms: C_4  and  C_5
REMARK    5  A    between atoms: C_8  and  C_9
REMARK    6  A    between atoms: C_9  and  C_10
REMARK                            x       y       z     vdW  Elec       q    Type
REMARK                         _______ _______ _______ _____ _____    ______ ____
ROOT
ATOM      1  O   UNL     1      48.582   5.783  15.429  0.00  0.00    +0.000 OA
ENDROOT
BRANCH   1   3
ATOM      2  O   UNL     1      50.671   6.116  16.314  0.00  0.00    +0.000 OA
ATOM      3  C   UNL     1      49.451   6.213  16.378  0.00  0.00    +0.000 C 
BRANCH   3   4
ATOM      4  C   UNL     1      48.755   6.583  17.597  0.00  0.00    +0.000 A 
ATOM      5  C   UNL     1      48.421   7.889  17.918  0.00  0.00    +0.000 A 
ATOM      6  S   UNL     1      48.048   8.072  19.584  0.00  0.00    +0.000 S 
ATOM      7  C   UNL     1      48.291   6.410  19.869  0.00  0.00    +0.000 A 
ATOM      8  N   UNL     1      48.365   5.885  21.123  0.00  0.00    +0.000 NA
ATOM      9  C   UNL     1      48.582   4.608  21.145  0.00  0.00    +0.000 A 
ATOM     10  N   UNL     1      48.635   3.796  20.040  0.00  0.00    +0.000 N 
ATOM     11  C   UNL     1      48.463   4.270  18.764  0.00  0.00    +0.000 A 
ATOM     12  O   UNL     1      48.303   3.524  17.807  0.00  0.00    +0.000 OA
ATOM     13  C   UNL     1      48.443   5.716  18.691  0.00  0.00    +0.000 A 
ATOM     14  H   UNL     1      48.692   2.793  20.133  0.00  0.00    +0.000 HD
ENDBRANCH   3   4
ENDBRANCH   1   3
BRANCH   1  15
ATOM     15  C   UNL     1      48.317   6.672  14.339  0.00  0.00    +0.000 C 
BRANCH  15  16
ATOM     16  C   UNL     1      47.291   6.135  13.371  0.00  0.00    +0.000 A 
ATOM     17  C   UNL     1      46.755   4.857  13.564  0.00  0.00    +0.000 A 
ATOM     18  C   UNL     1      45.805   4.342  12.675  0.00  0.00    +0.000 A 
ATOM     19  C   UNL     1      45.377   5.103  11.579  0.00  0.00    +0.000 A 
ATOM     20  C   UNL     1      45.869   6.402  11.423  0.00  0.00    +0.000 A 
ATOM     21  C   UNL     1      46.816   6.915  12.313  0.00  0.00    +0.000 A 
BRANCH  19  22
ATOM     22  C   UNL     1      44.386   4.545  10.582  0.00  0.00    +0.000 C 
BRANCH  22  23
ATOM     23  C   UNL     1      45.035   3.808   9.453  0.00  0.00    +0.000 A 
ATOM     24  C   UNL     1      45.147   2.431   9.429  0.00  0.00    +0.000 A 
ATOM     25  N   UNL     1      45.789   1.747   8.462  0.00  0.00    +0.000 NA
ATOM     26  C   UNL     1      46.336   2.493   7.492  0.00  0.00    +0.000 A 
ATOM     27  N   UNL     1      46.274   3.829   7.390  0.00  0.00    +0.000 NA
ATOM     28  C   UNL     1      45.619   4.458   8.385  0.00  0.00    +0.000 A 
ENDBRANCH  22  23
ENDBRANCH  19  22
ENDBRANCH  15  16
ENDBRANCH   1  15
TORSDOF 6
ENDMDL
MODEL 6
REMARK VINA RESULT:    -7.526      2.042      2.686
REMARK INTER + INTRA:         -10.178
REMARK INTER:                  -9.319
REMARK INTRA:                  -0.858
REMARK UNBOUND:                -0.012
REMARK  Name = 
REMARK  6 active torsions:
REMARK  status: ('A' for Active; 'I' for Inactive)
REMARK    1  A    between atoms: C_2  and  O_3
REMARK    2  A    between atoms: C_2  and  C_18
REMARK    3  A    between atoms: O_3  and  C_4
REMARK    4  A    between atoms: C_4  and  C_5
REMARK    5  A    between atoms: C_8  and  C_9
REMARK    6  A    between atoms: C_9  and  C_10
REMARK                            x       y       z     vdW  Elec       q    Type
REMARK                         _______ _______ _______ _____ _____    ______ ____
ROOT
ATOM      1  O   UNL     1      49.127   6.509  14.924  0.00  0.00    +0.000 OA
ENDROOT
BRANCH   1   3
ATOM      2  O   UNL     1      48.567   7.883  16.673  0.00  0.00    +0.000 OA
ATOM      3  C   UNL     1      49.077   6.858  16.234  0.00  0.00    +0.000 C 
BRANCH   3   4
ATOM      4  C   UNL     1      49.917   5.991  17.040  0.00  0.00    +0.000 A 
ATOM      5  C   UNL     1      51.118   6.399  17.600  0.00  0.00    +0.000 A 
ATOM      6  S   UNL     1      52.092   5.069  18.080  0.00  0.00    +0.000 S 
ATOM      7  C   UNL     1      50.903   3.956  17.582  0.00  0.00    +0.000 A 
ATOM      8  N   UNL     1      51.144   2.620  17.485  0.00  0.00    +0.000 NA
ATOM      9  C   UNL     1      50.130   1.933  17.062  0.00  0.00    +0.000 A 
ATOM     10  N   UNL     1      48.877   2.438  16.823  0.00  0.00    +0.000 N 
ATOM     11  C   UNL     1      48.566   3.762  17.006  0.00  0.00    +0.000 A 
ATOM     12  O   UNL     1      47.411   4.168  16.994  0.00  0.00    +0.000 OA
ATOM     13  C   UNL     1      49.725   4.591  17.259  0.00  0.00    +0.000 A 
ATOM     14  H   UNL     1      48.102   1.830  16.606  0.00  0.00    +0.000 HD
ENDBRANCH   3   4
ENDBRANCH   1   3
BRANCH   1  15
ATOM     15  C   UNL     1      48.467   7.376  13.995  0.00  0.00    +0.000 C 
BRANCH  15  16
ATOM     16  C   UNL     1      47.400   6.677  13.187  0.00  0.00    +0.000 A 
ATOM     17  C   UNL     1      47.052   5.356  13.489  0.00  0.00    +0.000 A 
ATOM     18  C   UNL     1      46.068   4.692  12.749  0.00  0.00    +0.000 A 
ATOM     19  C   UNL     1      45.416   5.344  11.694  0.00  0.00    +0.000 A 
ATOM     20  C   UNL     1      45.722   6.683  11.434  0.00  0.00    +0.000 A 
ATOM     21  C   UNL     1      46.705   7.345  12.176  0.00  0.00    +0.000 A 
BRANCH  19  22
ATOM     22  C   UNL     1      44.383   4.628  10.855  0.00  0.00    +0.000 C 
BRANCH  22  23
ATOM     23  C   UNL     1      44.967   3.926   9.670  0.00  0.00    +0.000 A 
ATOM     24  C   UNL     1      45.089   2.552   9.603  0.00  0.00    +0.000 A 
ATOM     25  N   UNL     1      45.677   1.899   8.581  0.00  0.00    +0.000 NA
ATOM     26  C   UNL     1      46.159   2.675   7.599  0.00  0.00    +0.000 A 
ATOM     27  N   UNL     1      46.080   4.013   7.537  0.00  0.00    +0.000 NA
ATOM     28  C   UNL     1      45.481   4.610   8.586  0.00  0.00    +0.000 A 
ENDBRANCH  22  23
ENDBRANCH  19  22
ENDBRANCH  15  16
ENDBRANCH   1  15
TORSDOF 6
ENDMDL
MODEL 7
REMARK VINA RESULT:    -7.468      3.066      4.203
REMARK INTER + INTRA:         -10.100
REMARK INTER:                  -8.768
REMARK INTRA:                  -1.332
REMARK UNBOUND:                -0.012
REMARK  Name = 
REMARK  6 active torsions:
REMARK  status: ('A' for Active; 'I' for Inactive)
REMARK    1  A    between atoms: C_2  and  O_3
REMARK    2  A    between atoms: C_2  and  C_18
REMARK    3  A    between atoms: O_3  and  C_4
REMARK    4  A    between atoms: C_4  and  C_5
REMARK    5  A    between atoms: C_8  and  C_9
REMARK    6  A    between atoms: C_9  and  C_10
REMARK                            x       y       z     vdW  Elec       q    Type
REMARK                         _______ _______ _______ _____ _____    ______ ____
ROOT
ATOM      1  O   UNL     1      49.236   8.512  15.184  0.00  0.00    +0.000 OA
ENDROOT
BRANCH   1   3
ATOM      2  O   UNL     1      50.632   6.692  15.219  0.00  0.00    +0.000 OA
ATOM      3  C   UNL     1      49.731   7.363  15.710  0.00  0.00    +0.000 C 
BRANCH   3   4
ATOM      4  C   UNL     1      48.901   6.885  16.801  0.00  0.00    +0.000 A 
ATOM      5  C   UNL     1      48.855   7.492  18.046  0.00  0.00    +0.000 A 
ATOM      6  S   UNL     1      48.179   6.463  19.243  0.00  0.00    +0.000 S 
ATOM      7  C   UNL     1      47.913   5.229  18.099  0.00  0.00    +0.000 A 
ATOM      8  N   UNL     1      47.566   3.962  18.456  0.00  0.00    +0.000 NA
ATOM      9  C   UNL     1      47.434   3.152  17.453  0.00  0.00    +0.000 A 
ATOM     10  N   UNL     1      47.519   3.510  16.132  0.00  0.00    +0.000 N 
ATOM     11  C   UNL     1      47.767   4.798  15.728  0.00  0.00    +0.000 A 
ATOM     12  O   UNL     1      47.636   5.153  14.564  0.00  0.00    +0.000 OA
ATOM     13  C   UNL     1      48.139   5.675  16.817  0.00  0.00    +0.000 A 
ATOM     14  H   UNL     1      47.293   2.855  15.398  0.00  0.00    +0.000 HD
ENDBRANCH   3   4
ENDBRANCH   1   3
BRANCH   1  15
ATOM     15  C   UNL     1      49.248   8.632  13.758  0.00  0.00    +0.000 C 
BRANCH  15  16
ATOM     16  C   UNL     1      47.974   8.143  13.111  0.00  0.00    +0.000 A 
ATOM     17  C   UNL     1      48.035   7.196  12.084  0.00  0.00    +0.000 A 
ATOM     18  C   UNL     1      46.865   6.735  11.471  0.00  0.00    +0.000 A 
ATOM     19  C   UNL     1      45.615   7.216  11.881  0.00  0.00    +0.000 A 
ATOM     20  C   UNL     1      45.553   8.116  12.948  0.00  0.00    +0.000 A 
ATOM     21  C   UNL     1      46.723   8.575  13.560  0.00  0.00    +0.000 A 
BRANCH  19  22
ATOM     22  C   UNL     1      44.344   6.763  11.199  0.00  0.00    +0.000 C 
BRANCH  22  23
ATOM     23  C   UNL     1      43.969   5.351  11.524  0.00  0.00    +0.000 A 
ATOM     24  C   UNL     1      43.864   4.888  12.821  0.00  0.00    +0.000 A 
ATOM     25  N   UNL     1      43.601   3.606  13.141  0.00  0.00    +0.000 NA
ATOM     26  C   UNL     1      43.443   2.771  12.103  0.00  0.00    +0.000 A 
ATOM     27  N   UNL     1      43.496   3.104  10.804  0.00  0.00    +0.000 NA
ATOM     28  C   UNL     1      43.762   4.399  10.546  0.00  0.00    +0.000 A 
ENDBRANCH  22  23
ENDBRANCH  19  22
ENDBRANCH  15  16
ENDBRANCH   1  15
TORSDOF 6
ENDMDL
MODEL 8
REMARK VINA RESULT:    -7.322      2.951      4.254
REMARK INTER + INTRA:          -9.903
REMARK INTER:                  -8.886
REMARK INTRA:                  -1.016
REMARK UNBOUND:                -0.012
REMARK  Name = 
REMARK  6 active torsions:
REMARK  status: ('A' for Active; 'I' for Inactive)
REMARK    1  A    between atoms: C_2  and  O_3
REMARK    2  A    between atoms: C_2  and  C_18
REMARK    3  A    between atoms: O_3  and  C_4
REMARK    4  A    between atoms: C_4  and  C_5
REMARK    5  A    between atoms: C_8  and  C_9
REMARK    6  A    between atoms: C_9  and  C_10
REMARK                            x       y       z     vdW  Elec       q    Type
REMARK                         _______ _______ _______ _____ _____    ______ ____
ROOT
ATOM      1  O   UNL     1      49.950   7.252  15.014  0.00  0.00    +0.000 OA
ENDROOT
BRANCH   1   3
ATOM      2  O   UNL     1      48.685   7.857  16.829  0.00  0.00    +0.000 OA
ATOM      3  C   UNL     1      49.464   7.093  16.271  0.00  0.00    +0.000 C 
BRANCH   3   4
ATOM      4  C   UNL     1      50.167   6.036  16.975  0.00  0.00    +0.000 A 
ATOM      5  C   UNL     1      51.468   6.163  17.438  0.00  0.00    +0.000 A 
ATOM      6  S   UNL     1      52.179   4.641  17.793  0.00  0.00    +0.000 S 
ATOM      7  C   UNL     1      50.747   3.820  17.372  0.00  0.00    +0.000 A 
ATOM      8  N   UNL     1      50.695   2.469  17.217  0.00  0.00    +0.000 NA
ATOM      9  C   UNL     1      49.529   2.025  16.867  0.00  0.00    +0.000 A 
ATOM     10  N   UNL     1      48.394   2.787  16.754  0.00  0.00    +0.000 N 
ATOM     11  C   UNL     1      48.382   4.138  17.000  0.00  0.00    +0.000 A 
ATOM     12  O   UNL     1      47.341   4.772  17.102  0.00  0.00    +0.000 OA
ATOM     13  C   UNL     1      49.706   4.698  17.172  0.00  0.00    +0.000 A 
ATOM     14  H   UNL     1      47.495   2.362  16.590  0.00  0.00    +0.000 HD
ENDBRANCH   3   4
ENDBRANCH   1   3
BRANCH   1  15
ATOM     15  C   UNL     1      49.407   8.325  14.238  0.00  0.00    +0.000 C 
BRANCH  15  16
ATOM     16  C   UNL     1      48.155   7.939  13.488  0.00  0.00    +0.000 A 
ATOM     17  C   UNL     1      46.976   8.668  13.679  0.00  0.00    +0.000 A 
ATOM     18  C   UNL     1      45.806   8.321  12.994  0.00  0.00    +0.000 A 
ATOM     19  C   UNL     1      45.801   7.238  12.106  0.00  0.00    +0.000 A 
ATOM     20  C   UNL     1      46.994   6.550  11.871  0.00  0.00    +0.000 A 
ATOM     21  C   UNL     1      48.163   6.898  12.554  0.00  0.00    +0.000 A 
BRANCH  19  22
ATOM     22  C   UNL     1      44.535   6.822  11.392  0.00  0.00    +0.000 C 
BRANCH  22  23
ATOM     23  C   UNL     1      44.177   5.386  11.613  0.00  0.00    +0.000 A 
ATOM     24  C   UNL     1      43.905   4.517  10.574  0.00  0.00    +0.000 A 
ATOM     25  N   UNL     1      43.510   3.241  10.746  0.00  0.00    +0.000 NA
ATOM     26  C   UNL     1      43.386   2.840  12.020  0.00  0.00    +0.000 A 
ATOM     27  N   UNL     1      43.644   3.578  13.111  0.00  0.00    +0.000 NA
ATOM     28  C   UNL     1      44.035   4.846  12.876  0.00  0.00    +0.000 A 
ENDBRANCH  22  23
ENDBRANCH  19  22
ENDBRANCH  15  16
ENDBRANCH   1  15
TORSDOF 6
ENDMDL
MODEL 9
REMARK VINA RESULT:    -7.271      2.812      4.020
REMARK INTER + INTRA:          -9.834
REMARK INTER:                  -8.570
REMARK INTRA:                  -1.264
REMARK UNBOUND:                -0.012
REMARK  Name = 
REMARK  6 active torsions:
REMARK  status: ('A' for Active; 'I' for Inactive)
REMARK    1  A    between atoms: C_2  and  O_3
REMARK    2  A    between atoms: C_2  and  C_18
REMARK    3  A    between atoms: O_3  and  C_4
REMARK    4  A    between atoms: C_4  and  C_5
REMARK    5  A    between atoms: C_8  and  C_9
REMARK    6  A    between atoms: C_9  and  C_10
REMARK                            x       y       z     vdW  Elec       q    Type
REMARK                         _______ _______ _______ _____ _____    ______ ____
ROOT
ATOM      1  O   UNL     1      50.301   6.901  15.068  0.00  0.00    +0.000 OA
ENDROOT
BRANCH   1   3
ATOM      2  O   UNL     1      51.551   7.895  16.714  0.00  0.00    +0.000 OA
ATOM      3  C   UNL     1      50.845   6.978  16.308  0.00  0.00    +0.000 C 
BRANCH   3   4
ATOM      4  C   UNL     1      50.695   5.726  17.026  0.00  0.00    +0.000 A 
ATOM      5  C   UNL     1      51.740   4.838  17.236  0.00  0.00    +0.000 A 
ATOM      6  S   UNL     1      51.181   3.277  17.679  0.00  0.00    +0.000 S 
ATOM      7  C   UNL     1      49.558   3.791  17.631  0.00  0.00    +0.000 A 
ATOM      8  N   UNL     1      48.512   2.921  17.684  0.00  0.00    +0.000 NA
ATOM      9  C   UNL     1      47.351   3.492  17.606  0.00  0.00    +0.000 A 
ATOM     10  N   UNL     1      47.136   4.846  17.580  0.00  0.00    +0.000 N 
ATOM     11  C   UNL     1      48.160   5.760  17.628  0.00  0.00    +0.000 A 
ATOM     12  O   UNL     1      47.961   6.953  17.815  0.00  0.00    +0.000 OA
ATOM     13  C   UNL     1      49.469   5.157  17.489  0.00  0.00    +0.000 A 
ATOM     14  H   UNL     1      46.204   5.228  17.635  0.00  0.00    +0.000 HD
ENDBRANCH   3   4
ENDBRANCH   1   3
BRANCH   1  15
ATOM     15  C   UNL     1      49.411   7.953  14.681  0.00  0.00    +0.000 C 
BRANCH  15  16
ATOM     16  C   UNL     1      48.138   7.448  14.045  0.00  0.00    +0.000 A 
ATOM     17  C   UNL     1      47.879   6.074  14.000  0.00  0.00    +0.000 A 
ATOM     18  C   UNL     1      46.706   5.589  13.411  0.00  0.00    +0.000 A 
ATOM     19  C   UNL     1      45.774   6.476  12.858  0.00  0.00    +0.000 A 
ATOM     20  C   UNL     1      46.006   7.851  12.958  0.00  0.00    +0.000 A 
ATOM     21  C   UNL     1      47.177   8.333  13.548  0.00  0.00    +0.000 A 
BRANCH  19  22
ATOM     22  C   UNL     1      44.523   5.968  12.177  0.00  0.00    +0.000 C 
BRANCH  22  23
ATOM     23  C   UNL     1      44.802   5.218  10.913  0.00  0.00    +0.000 A 
ATOM     24  C   UNL     1      45.697   5.668   9.962  0.00  0.00    +0.000 A 
ATOM     25  N   UNL     1      45.912   5.051   8.783  0.00  0.00    +0.000 NA
ATOM     26  C   UNL     1      45.189   3.942   8.569  0.00  0.00    +0.000 A 
ATOM     27  N   UNL     1      44.311   3.393   9.422  0.00  0.00    +0.000 NA
ATOM     28  C   UNL     1      44.137   4.053  10.583  0.00  0.00    +0.000 A 
ENDBRANCH  22  23
ENDBRANCH  19  22
ENDBRANCH  15  16
ENDBRANCH   1  15
TORSDOF 6
ENDMDL
