MODEL 1
REMARK VINA RESULT:    -8.089      0.000      0.000
REMARK INTER + INTRA:         -11.060
REMARK INTER:                 -10.454
REMARK INTRA:                  -0.606
REMARK UNBOUND:                -0.606
REMARK  Name = 
REMARK  5 active torsions:
REMARK  status: ('A' for Active; 'I' for Inactive)
REMARK    1  A    between atoms: C_2  and  C_4
REMARK    2  A    between atoms: C_7  and  O_8
REMARK    3  A    between atoms: O_8  and  C_9
REMARK    4  A    between atoms: C_9  and  C_10
REMARK    5  A    between atoms: C_15  and  C_16
REMARK                            x       y       z     vdW  Elec       q    Type
REMARK                         _______ _______ _______ _____ _____    ______ ____
ROOT
ATOM      1  C   UNL     1      45.057   4.448  12.054  0.00  0.00    +0.000 A 
ATOM      2  C   UNL     1      45.687   3.476  12.831  0.00  0.00    +0.000 A 
ATOM      3  C   UNL     1      46.742   3.841  13.658  0.00  0.00    +0.000 A 
ATOM      4  F   UNL     1      47.364   2.900  14.382  0.00  0.00    +0.000 F 
ATOM      5  C   UNL     1      47.163   5.166  13.752  0.00  0.00    +0.000 A 
ATOM      6  C   UNL     1      46.528   6.173  13.005  0.00  0.00    +0.000 A 
ATOM      7  C   UNL     1      45.508   5.775  12.128  0.00  0.00    +0.000 A 
ENDROOT
BRANCH   6   8
ATOM      8  C   UNL     1      46.966   7.628  13.161  0.00  0.00    +0.000 C 
ATOM      9  C   UNL     1      47.475   8.228  11.836  0.00  0.00    +0.000 C 
ATOM     10  C   UNL     1      48.875   7.725  11.484  0.00  0.00    +0.000 C 
ATOM     11  N   UNL     1      49.850   8.024  12.534  0.00  0.00    +0.000 NA
ATOM     12  C   UNL     1      49.442   7.472  13.823  0.00  0.00    +0.000 C 
ATOM     13  C   UNL     1      48.032   7.910  14.241  0.00  0.00    +0.000 C 
ATOM     14  H   UNL     1      49.954   9.035  12.619  0.00  0.00    +0.000 HD
ENDBRANCH   6   8
BRANCH   1  15
ATOM     15  C   UNL     1      43.929   4.100  11.112  0.00  0.00    +0.000 C 
BRANCH  15  16
ATOM     16  O   UNL     1      44.155   4.741   9.849  0.00  0.00    +0.000 OA
BRANCH  16  20
ATOM     17  C   UNL     1      46.650   2.494   7.468  0.00  0.00    +0.000 A 
ATOM     18  C   UNL     1      45.830   1.852   8.399  0.00  0.00    +0.000 A 
ATOM     19  C   UNL     1      44.988   2.624   9.205  0.00  0.00    +0.000 A 
ATOM     20  C   UNL     1      45.001   4.004   9.046  0.00  0.00    +0.000 A 
ATOM     21  N   UNL     1      45.789   4.643   8.160  0.00  0.00    +0.000 NA
ATOM     22  C   UNL     1      46.604   3.878   7.398  0.00  0.00    +0.000 A 
BRANCH  17  24
ATOM     23  N   UNL     1      48.719   2.441   6.196  0.00  0.00    +0.000 N 
ATOM     24  C   UNL     1      47.581   1.784   6.562  0.00  0.00    +0.000 C 
ATOM     25  O   UNL     1      47.362   0.640   6.189  0.00  0.00    +0.000 OA
ATOM     26  H   UNL     1      49.395   1.894   5.676  0.00  0.00    +0.000 HD
ATOM     27  H   UNL     1      49.057   3.262   6.676  0.00  0.00    +0.000 HD
ENDBRANCH  17  24
ENDBRANCH  16  20
ENDBRANCH  15  16
ENDBRANCH   1  15
TORSDOF 5
ENDMDL
MODEL 2
REMARK VINA RESULT:    -7.500      2.811      3.504
REMARK INTER + INTRA:         -10.299
REMARK INTER:                  -9.560
REMARK INTRA:                  -0.739
REMARK UNBOUND:                -0.606
REMARK  Name = 
REMARK  5 active torsions:
REMARK  status: ('A' for Active; 'I' for Inactive)
REMARK    1  A    between atoms: C_2  and  C_4
REMARK    2  A    between atoms: C_7  and  O_8
REMARK    3  A    between atoms: O_8  and  C_9
REMARK    4  A    between atoms: C_9  and  C_10
REMARK    5  A    between atoms: C_15  and  C_16
REMARK                            x       y       z     vdW  Elec       q    Type
REMARK                         _______ _______ _______ _____ _____    ______ ____
ROOT
ATOM      1  C   UNL     1      45.411   6.374  11.604  0.00  0.00    +0.000 A 
ATOM      2  C   UNL     1      46.790   6.445  11.806  0.00  0.00    +0.000 A 
ATOM      3  C   UNL     1      47.389   7.685  11.990  0.00  0.00    +0.000 A 
ATOM      4  F   UNL     1      48.718   7.752  12.156  0.00  0.00    +0.000 F 
ATOM      5  C   UNL     1      46.638   8.857  12.009  0.00  0.00    +0.000 A 
ATOM      6  C   UNL     1      45.243   8.815  11.839  0.00  0.00    +0.000 A 
ATOM      7  C   UNL     1      44.664   7.562  11.591  0.00  0.00    +0.000 A 
ENDROOT
BRANCH   6   8
ATOM      8  C   UNL     1      44.428  10.105  11.916  0.00  0.00    +0.000 C 
ATOM      9  C   UNL     1      43.253  10.112  10.918  0.00  0.00    +0.000 C 
ATOM     10  C   UNL     1      43.726  10.362   9.486  0.00  0.00    +0.000 C 
ATOM     11  N   UNL     1      44.453  11.626   9.357  0.00  0.00    +0.000 NA
ATOM     12  C   UNL     1      45.594  11.688  10.266  0.00  0.00    +0.000 C 
ATOM     13  C   UNL     1      45.209  11.422  11.728  0.00  0.00    +0.000 C 
ATOM     14  H   UNL     1      43.820  12.401   9.558  0.00  0.00    +0.000 HD
ENDBRANCH   6   8
BRANCH   1  15
ATOM     15  C   UNL     1      44.713   5.057  11.365  0.00  0.00    +0.000 C 
BRANCH  15  16
ATOM     16  O   UNL     1      44.233   5.016  10.014  0.00  0.00    +0.000 OA
BRANCH  16  20
ATOM     17  C   UNL     1      46.576   2.613   7.633  0.00  0.00    +0.000 A 
ATOM     18  C   UNL     1      45.723   2.026   8.571  0.00  0.00    +0.000 A 
ATOM     19  C   UNL     1      44.933   2.850   9.377  0.00  0.00    +0.000 A 
ATOM     20  C   UNL     1      45.029   4.227   9.211  0.00  0.00    +0.000 A 
ATOM     21  N   UNL     1      45.850   4.813   8.319  0.00  0.00    +0.000 NA
ATOM     22  C   UNL     1      46.614   3.997   7.557  0.00  0.00    +0.000 A 
BRANCH  17  24
ATOM     23  N   UNL     1      48.593   2.461   6.287  0.00  0.00    +0.000 N 
ATOM     24  C   UNL     1      47.459   1.844   6.726  0.00  0.00    +0.000 C 
ATOM     25  O   UNL     1      47.206   0.689   6.416  0.00  0.00    +0.000 OA
ATOM     26  H   UNL     1      49.239   1.878   5.768  0.00  0.00    +0.000 HD
ATOM     27  H   UNL     1      48.964   3.297   6.715  0.00  0.00    +0.000 HD
ENDBRANCH  17  24
ENDBRANCH  16  20
ENDBRANCH  15  16
ENDBRANCH   1  15
TORSDOF 5
ENDMDL
MODEL 3
REMARK VINA RESULT:    -7.388      2.060      2.664
REMARK INTER + INTRA:         -10.154
REMARK INTER:                  -9.410
REMARK INTRA:                  -0.743
REMARK UNBOUND:                -0.606
REMARK  Name = 
REMARK  5 active torsions:
REMARK  status: ('A' for Active; 'I' for Inactive)
REMARK    1  A    between atoms: C_2  and  C_4
REMARK    2  A    between atoms: C_7  and  O_8
REMARK    3  A    between atoms: O_8  and  C_9
REMARK    4  A    between atoms: C_9  and  C_10
REMARK    5  A    between atoms: C_15  and  C_16
REMARK                            x       y       z     vdW  Elec       q    Type
REMARK                         _______ _______ _______ _____ _____    ______ ____
ROOT
ATOM      1  C   UNL     1      44.852   5.850  11.782  0.00  0.00    +0.000 A 
ATOM      2  C   UNL     1      44.048   6.852  11.237  0.00  0.00    +0.000 A 
ATOM      3  C   UNL     1      44.353   8.183  11.490  0.00  0.00    +0.000 A 
ATOM      4  F   UNL     1      43.562   9.143  10.989  0.00  0.00    +0.000 F 
ATOM      5  C   UNL     1      45.463   8.541  12.251  0.00  0.00    +0.000 A 
ATOM      6  C   UNL     1      46.309   7.555  12.787  0.00  0.00    +0.000 A 
ATOM      7  C   UNL     1      45.951   6.216  12.575  0.00  0.00    +0.000 A 
ENDROOT
BRANCH   6   8
ATOM      8  C   UNL     1      47.553   7.965  13.574  0.00  0.00    +0.000 C 
ATOM      9  C   UNL     1      48.007   9.400  13.240  0.00  0.00    +0.000 C 
ATOM     10  C   UNL     1      48.702   9.474  11.880  0.00  0.00    +0.000 C 
ATOM     11  N   UNL     1      49.867   8.589  11.806  0.00  0.00    +0.000 NA
ATOM     12  C   UNL     1      49.511   7.203  12.098  0.00  0.00    +0.000 C 
ATOM     13  C   UNL     1      48.783   7.043  13.439  0.00  0.00    +0.000 C 
ATOM     14  H   UNL     1      50.572   8.904  12.473  0.00  0.00    +0.000 HD
ENDBRANCH   6   8
BRANCH   1  15
ATOM     15  C   UNL     1      44.547   4.387  11.566  0.00  0.00    +0.000 C 
BRANCH  15  16
ATOM     16  O   UNL     1      43.945   4.216  10.276  0.00  0.00    +0.000 OA
BRANCH  16  20
ATOM     17  C   UNL     1      46.555   2.493   7.600  0.00  0.00    +0.000 A 
ATOM     18  C   UNL     1      46.404   3.882   7.613  0.00  0.00    +0.000 A 
ATOM     19  C   UNL     1      45.513   4.457   8.523  0.00  0.00    +0.000 A 
ATOM     20  C   UNL     1      44.811   3.621   9.382  0.00  0.00    +0.000 A 
ATOM     21  N   UNL     1      44.936   2.280   9.381  0.00  0.00    +0.000 NA
ATOM     22  C   UNL     1      45.795   1.743   8.484  0.00  0.00    +0.000 A 
BRANCH  17  24
ATOM     23  N   UNL     1      48.545   2.456   6.206  0.00  0.00    +0.000 N 
ATOM     24  C   UNL     1      47.465   1.771   6.683  0.00  0.00    +0.000 C 
ATOM     25  O   UNL     1      47.284   0.596   6.396  0.00  0.00    +0.000 OA
ATOM     26  H   UNL     1      49.216   1.909   5.680  0.00  0.00    +0.000 HD
ATOM     27  H   UNL     1      48.868   3.322   6.612  0.00  0.00    +0.000 HD
ENDBRANCH  17  24
ENDBRANCH  16  20
ENDBRANCH  15  16
ENDBRANCH   1  15
TORSDOF 5
ENDMDL
MODEL 4
REMARK VINA RESULT:    -7.297      4.793      7.829
REMARK INTER + INTRA:         -10.036
REMARK INTER:                  -9.694
REMARK INTRA:                  -0.341
REMARK UNBOUND:                -0.606
REMARK  Name = 
REMARK  5 active torsions:
REMARK  status: ('A' for Active; 'I' for Inactive)
REMARK    1  A    between atoms: C_2  and  C_4
REMARK    2  A    between atoms: C_7  and  O_8
REMARK    3  A    between atoms: O_8  and  C_9
REMARK    4  A    between atoms: C_9  and  C_10
REMARK    5  A    between atoms: C_15  and  C_16
REMARK                            x       y       z     vdW  Elec       q    Type
REMARK                         _______ _______ _______ _____ _____    ______ ____
ROOT
ATOM      1  C   UNL     1      46.806   5.019  13.998  0.00  0.00    +0.000 A 
ATOM      2  C   UNL     1      47.736   5.991  13.625  0.00  0.00    +0.000 A 
ATOM      3  C   UNL     1      47.594   6.637  12.404  0.00  0.00    +0.000 A 
ATOM      4  F   UNL     1      48.504   7.550  12.035  0.00  0.00    +0.000 F 
ATOM      5  C   UNL     1      46.524   6.358  11.556  0.00  0.00    +0.000 A 
ATOM      6  C   UNL     1      45.555   5.407  11.919  0.00  0.00    +0.000 A 
ATOM      7  C   UNL     1      45.749   4.719  13.126  0.00  0.00    +0.000 A 
ENDROOT
BRANCH   6   8
ATOM      8  C   UNL     1      44.359   5.152  11.003  0.00  0.00    +0.000 C 
ATOM      9  C   UNL     1      43.211   4.427  11.732  0.00  0.00    +0.000 C 
ATOM     10  C   UNL     1      43.515   2.942  11.938  0.00  0.00    +0.000 C 
ATOM     11  N   UNL     1      43.772   2.251  10.672  0.00  0.00    +0.000 NA
ATOM     12  C   UNL     1      44.862   2.876   9.927  0.00  0.00    +0.000 C 
ATOM     13  C   UNL     1      44.647   4.378   9.700  0.00  0.00    +0.000 C 
ATOM     14  H   UNL     1      42.925   2.264  10.103  0.00  0.00    +0.000 HD
ENDBRANCH   6   8
BRANCH   1  15
ATOM     15  C   UNL     1      46.932   4.262  15.299  0.00  0.00    +0.000 C 
BRANCH  15  16
ATOM     16  O   UNL     1      47.815   4.976  16.176  0.00  0.00    +0.000 OA
BRANCH  16  20
ATOM     17  C   UNL     1      50.906   2.567  17.432  0.00  0.00    +0.000 A 
ATOM     18  C   UNL     1      49.708   1.982  17.014  0.00  0.00    +0.000 A 
ATOM     19  C   UNL     1      48.663   2.809  16.591  0.00  0.00    +0.000 A 
ATOM     20  C   UNL     1      48.859   4.185  16.605  0.00  0.00    +0.000 A 
ATOM     21  N   UNL     1      50.003   4.768  17.012  0.00  0.00    +0.000 NA
ATOM     22  C   UNL     1      50.997   3.951  17.428  0.00  0.00    +0.000 A 
BRANCH  17  24
ATOM     23  N   UNL     1      51.913   0.456  18.090  0.00  0.00    +0.000 N 
ATOM     24  C   UNL     1      52.080   1.796  17.900  0.00  0.00    +0.000 C 
ATOM     25  O   UNL     1      53.168   2.329  18.070  0.00  0.00    +0.000 OA
ATOM     26  H   UNL     1      52.756  -0.068  18.293  0.00  0.00    +0.000 HD
ATOM     27  H   UNL     1      51.125  -0.056  17.721  0.00  0.00    +0.000 HD
ENDBRANCH  17  24
ENDBRANCH  16  20
ENDBRANCH  15  16
ENDBRANCH   1  15
TORSDOF 5
ENDMDL
MODEL 5
REMARK VINA RESULT:    -7.082      4.292      7.491
REMARK INTER + INTRA:          -9.759
REMARK INTER:                  -9.436
REMARK INTRA:                  -0.323
REMARK UNBOUND:                -0.606
REMARK  Name = 
REMARK  5 active torsions:
REMARK  status: ('A' for Active; 'I' for Inactive)
REMARK    1  A    between atoms: C_2  and  C_4
REMARK    2  A    between atoms: C_7  and  O_8
REMARK    3  A    between atoms: O_8  and  C_9
REMARK    4  A    between atoms: C_9  and  C_10
REMARK    5  A    between atoms: C_15  and  C_16
REMARK                            x       y       z     vdW  Elec       q    Type
REMARK                         _______ _______ _______ _____ _____    ______ ____
ROOT
ATOM      1  C   UNL     1      47.292   7.248  12.367  0.00  0.00    +0.000 A 
ATOM      2  C   UNL     1      46.775   8.539  12.477  0.00  0.00    +0.000 A 
ATOM      3  C   UNL     1      45.491   8.801  12.015  0.00  0.00    +0.000 A 
ATOM      4  F   UNL     1      45.007  10.049  12.096  0.00  0.00    +0.000 F 
ATOM      5  C   UNL     1      44.696   7.794  11.472  0.00  0.00    +0.000 A 
ATOM      6  C   UNL     1      45.179   6.477  11.376  0.00  0.00    +0.000 A 
ATOM      7  C   UNL     1      46.499   6.245  11.789  0.00  0.00    +0.000 A 
ENDROOT
BRANCH   6   8
ATOM      8  C   UNL     1      44.275   5.374  10.829  0.00  0.00    +0.000 C 
ATOM      9  C   UNL     1      42.924   5.307  11.567  0.00  0.00    +0.000 C 
ATOM     10  C   UNL     1      43.062   4.667  12.949  0.00  0.00    +0.000 C 
ATOM     11  N   UNL     1      43.619   3.315  12.878  0.00  0.00    +0.000 NA
ATOM     12  C   UNL     1      44.913   3.299  12.200  0.00  0.00    +0.000 C 
ATOM     13  C   UNL     1      44.868   3.949  10.811  0.00  0.00    +0.000 C 
ATOM     14  H   UNL     1      42.970   2.708  12.376  0.00  0.00    +0.000 HD
ENDBRANCH   6   8
BRANCH   1  15
ATOM     15  C   UNL     1      48.693   6.917  12.821  0.00  0.00    +0.000 C 
BRANCH  15  16
ATOM     16  O   UNL     1      48.868   7.363  14.173  0.00  0.00    +0.000 OA
BRANCH  16  20
ATOM     17  C   UNL     1      48.040   4.420  16.927  0.00  0.00    +0.000 A 
ATOM     18  C   UNL     1      48.966   5.416  17.246  0.00  0.00    +0.000 A 
ATOM     19  C   UNL     1      49.242   6.410  16.303  0.00  0.00    +0.000 A 
ATOM     20  C   UNL     1      48.583   6.366  15.082  0.00  0.00    +0.000 A 
ATOM     21  N   UNL     1      47.692   5.410  14.751  0.00  0.00    +0.000 NA
ATOM     22  C   UNL     1      47.448   4.452  15.674  0.00  0.00    +0.000 A 
BRANCH  17  24
ATOM     23  N   UNL     1      48.409   3.167  18.976  0.00  0.00    +0.000 N 
ATOM     24  C   UNL     1      47.667   3.317  17.842  0.00  0.00    +0.000 C 
ATOM     25  O   UNL     1      46.706   2.595  17.614  0.00  0.00    +0.000 OA
ATOM     26  H   UNL     1      48.063   2.487  19.643  0.00  0.00    +0.000 HD
ATOM     27  H   UNL     1      49.030   3.883  19.324  0.00  0.00    +0.000 HD
ENDBRANCH  17  24
ENDBRANCH  16  20
ENDBRANCH  15  16
ENDBRANCH   1  15
TORSDOF 5
ENDMDL
MODEL 6
REMARK VINA RESULT:    -7.035      4.807      8.670
REMARK INTER + INTRA:          -9.697
REMARK INTER:                  -9.479
REMARK INTRA:                  -0.218
REMARK UNBOUND:                -0.606
REMARK  Name = 
REMARK  5 active torsions:
REMARK  status: ('A' for Active; 'I' for Inactive)
REMARK    1  A    between atoms: C_2  and  C_4
REMARK    2  A    between atoms: C_7  and  O_8
REMARK    3  A    between atoms: O_8  and  C_9
REMARK    4  A    between atoms: C_9  and  C_10
REMARK    5  A    between atoms: C_15  and  C_16
REMARK                            x       y       z     vdW  Elec       q    Type
REMARK                         _______ _______ _______ _____ _____    ______ ____
ROOT
ATOM      1  C   UNL     1      46.687   5.274  13.600  0.00  0.00    +0.000 A 
ATOM      2  C   UNL     1      47.511   6.283  13.099  0.00  0.00    +0.000 A 
ATOM      3  C   UNL     1      47.238   6.829  11.851  0.00  0.00    +0.000 A 
ATOM      4  F   UNL     1      48.048   7.778  11.359  0.00  0.00    +0.000 F 
ATOM      5  C   UNL     1      46.140   6.413  11.102  0.00  0.00    +0.000 A 
ATOM      6  C   UNL     1      45.274   5.421  11.594  0.00  0.00    +0.000 A 
ATOM      7  C   UNL     1      45.601   4.837  12.827  0.00  0.00    +0.000 A 
ENDROOT
BRANCH   6   8
ATOM      8  C   UNL     1      44.043   5.015  10.785  0.00  0.00    +0.000 C 
ATOM      9  C   UNL     1      43.007   4.260  11.640  0.00  0.00    +0.000 C 
ATOM     10  C   UNL     1      43.440   2.820  11.918  0.00  0.00    +0.000 C 
ATOM     11  N   UNL     1      43.666   2.064  10.685  0.00  0.00    +0.000 NA
ATOM     12  C   UNL     1      44.651   2.714   9.825  0.00  0.00    +0.000 C 
ATOM     13  C   UNL     1      44.304   4.176   9.517  0.00  0.00    +0.000 C 
ATOM     14  H   UNL     1      42.784   1.974  10.179  0.00  0.00    +0.000 HD
ENDBRANCH   6   8
BRANCH   1  15
ATOM     15  C   UNL     1      46.958   4.622  14.935  0.00  0.00    +0.000 C 
BRANCH  15  16
ATOM     16  O   UNL     1      48.301   4.921  15.342  0.00  0.00    +0.000 OA
BRANCH  16  20
ATOM     17  C   UNL     1      48.757   4.585  19.418  0.00  0.00    +0.000 A 
ATOM     18  C   UNL     1      48.388   3.462  18.675  0.00  0.00    +0.000 A 
ATOM     19  C   UNL     1      48.232   3.586  17.292  0.00  0.00    +0.000 A 
ATOM     20  C   UNL     1      48.453   4.828  16.709  0.00  0.00    +0.000 A 
ATOM     21  N   UNL     1      48.802   5.926  17.408  0.00  0.00    +0.000 NA
ATOM     22  C   UNL     1      48.936   5.786  18.747  0.00  0.00    +0.000 A 
BRANCH  17  24
ATOM     23  N   UNL     1      50.233   4.629  21.347  0.00  0.00    +0.000 N 
ATOM     24  C   UNL     1      48.951   4.576  20.885  0.00  0.00    +0.000 C 
ATOM     25  O   UNL     1      48.001   4.566  21.656  0.00  0.00    +0.000 OA
ATOM     26  H   UNL     1      50.337   4.743  22.349  0.00  0.00    +0.000 HD
ATOM     27  H   UNL     1      51.015   4.895  20.766  0.00  0.00    +0.000 HD
ENDBRANCH  17  24
ENDBRANCH  16  20
ENDBRANCH  15  16
ENDBRANCH   1  15
TORSDOF 5
ENDMDL
MODEL 7
REMARK VINA RESULT:    -6.888      2.672      4.329
REMARK INTER + INTRA:          -9.508
REMARK INTER:                  -8.951
REMARK INTRA:                  -0.557
REMARK UNBOUND:                -0.606
REMARK  Name = 
REMARK  5 active torsions:
REMARK  status: ('A' for Active; 'I' for Inactive)
REMARK    1  A    between atoms: C_2  and  C_4
REMARK    2  A    between atoms: C_7  and  O_8
REMARK    3  A    between atoms: O_8  and  C_9
REMARK    4  A    between atoms: C_9  and  C_10
REMARK    5  A    between atoms: C_15  and  C_16
REMARK                            x       y       z     vdW  Elec       q    Type
REMARK                         _______ _______ _______ _____ _____    ______ ____
ROOT
ATOM      1  C   UNL     1      45.788   3.899   8.363  0.00  0.00    +0.000 A 
ATOM      2  C   UNL     1      45.148   2.677   8.569  0.00  0.00    +0.000 A 
ATOM      3  C   UNL     1      44.350   2.506   9.694  0.00  0.00    +0.000 A 
ATOM      4  F   UNL     1      43.758   1.321   9.904  0.00  0.00    +0.000 F 
ATOM      5  C   UNL     1      44.150   3.541  10.605  0.00  0.00    +0.000 A 
ATOM      6  C   UNL     1      44.757   4.793  10.408  0.00  0.00    +0.000 A 
ATOM      7  C   UNL     1      45.609   4.927   9.302  0.00  0.00    +0.000 A 
ENDROOT
BRANCH   6   8
ATOM      8  C   UNL     1      44.484   5.934  11.387  0.00  0.00    +0.000 C 
ATOM      9  C   UNL     1      45.643   6.948  11.437  0.00  0.00    +0.000 C 
ATOM     10  C   UNL     1      46.838   6.408  12.223  0.00  0.00    +0.000 C 
ATOM     11  N   UNL     1      46.479   6.044  13.595  0.00  0.00    +0.000 NA
ATOM     12  C   UNL     1      45.391   5.071  13.629  0.00  0.00    +0.000 C 
ATOM     13  C   UNL     1      44.156   5.526  12.839  0.00  0.00    +0.000 C 
ATOM     14  H   UNL     1      46.195   6.883  14.102  0.00  0.00    +0.000 HD
ENDBRANCH   6   8
BRANCH   1  15
ATOM     15  C   UNL     1      46.693   4.128   7.177  0.00  0.00    +0.000 C 
BRANCH  15  16
ATOM     16  O   UNL     1      47.669   3.078   7.119  0.00  0.00    +0.000 OA
BRANCH  16  20
ATOM     17  C   UNL     1      46.816   0.412   4.102  0.00  0.00    +0.000 A 
ATOM     18  C   UNL     1      46.616   1.777   3.887  0.00  0.00    +0.000 A 
ATOM     19  C   UNL     1      46.906   2.674   4.918  0.00  0.00    +0.000 A 
ATOM     20  C   UNL     1      47.383   2.169   6.121  0.00  0.00    +0.000 A 
ATOM     21  N   UNL     1      47.577   0.856   6.352  0.00  0.00    +0.000 NA
ATOM     22  C   UNL     1      47.279   0.004   5.344  0.00  0.00    +0.000 A 
BRANCH  17  24
ATOM     23  N   UNL     1      47.292  -1.772   3.147  0.00  0.00    +0.000 N 
ATOM     24  C   UNL     1      46.545  -0.632   3.087  0.00  0.00    +0.000 C 
ATOM     25  O   UNL     1      45.660  -0.499   2.254  0.00  0.00    +0.000 OA
ATOM     26  H   UNL     1      47.009  -2.517   2.522  0.00  0.00    +0.000 HD
ATOM     27  H   UNL     1      47.839  -2.027   3.957  0.00  0.00    +0.000 HD
ENDBRANCH  17  24
ENDBRANCH  16  20
ENDBRANCH  15  16
ENDBRANCH   1  15
TORSDOF 5
ENDMDL
MODEL 8
REMARK VINA RESULT:    -6.698      4.785      6.647
REMARK INTER + INTRA:          -9.261
REMARK INTER:                  -8.704
REMARK INTRA:                  -0.557
REMARK UNBOUND:                -0.606
REMARK  Name = 
REMARK  5 active torsions:
REMARK  status: ('A' for Active; 'I' for Inactive)
REMARK    1  A    between atoms: C_2  and  C_4
REMARK    2  A    between atoms: C_7  and  O_8
REMARK    3  A    between atoms: O_8  and  C_9
REMARK    4  A    between atoms: C_9  and  C_10
REMARK    5  A    between atoms: C_15  and  C_16
REMARK                            x       y       z     vdW  Elec       q    Type
REMARK                         _______ _______ _______ _____ _____    ______ ____
ROOT
ATOM      1  C   UNL     1      48.577   3.398  16.647  0.00  0.00    +0.000 A 
ATOM      2  C   UNL     1      49.342   2.231  16.611  0.00  0.00    +0.000 A 
ATOM      3  C   UNL     1      50.551   2.187  17.294  0.00  0.00    +0.000 A 
ATOM      4  F   UNL     1      51.298   1.075  17.234  0.00  0.00    +0.000 F 
ATOM      5  C   UNL     1      51.001   3.274  18.040  0.00  0.00    +0.000 A 
ATOM      6  C   UNL     1      50.238   4.451  18.121  0.00  0.00    +0.000 A 
ATOM      7  C   UNL     1      49.052   4.500  17.374  0.00  0.00    +0.000 A 
ENDROOT
BRANCH   6   8
ATOM      8  C   UNL     1      50.719   5.613  18.989  0.00  0.00    +0.000 C 
ATOM      9  C   UNL     1      51.036   5.170  20.431  0.00  0.00    +0.000 C 
ATOM     10  C   UNL     1      49.764   4.939  21.247  0.00  0.00    +0.000 C 
ATOM     11  N   UNL     1      48.918   6.134  21.302  0.00  0.00    +0.000 NA
ATOM     12  C   UNL     1      48.563   6.606  19.966  0.00  0.00    +0.000 C 
ATOM     13  C   UNL     1      49.787   6.839  19.070  0.00  0.00    +0.000 C 
ATOM     14  H   UNL     1      49.412   6.874  21.800  0.00  0.00    +0.000 HD
ENDBRANCH   6   8
BRANCH   1  15
ATOM     15  C   UNL     1      47.273   3.511  15.895  0.00  0.00    +0.000 C 
BRANCH  15  16
ATOM     16  O   UNL     1      47.495   3.192  14.514  0.00  0.00    +0.000 OA
BRANCH  16  20
ATOM     17  C   UNL     1      44.767   5.074  12.073  0.00  0.00    +0.000 A 
ATOM     18  C   UNL     1      45.540   5.836  12.953  0.00  0.00    +0.000 A 
ATOM     19  C   UNL     1      46.462   5.188  13.779  0.00  0.00    +0.000 A 
ATOM     20  C   UNL     1      46.572   3.805  13.693  0.00  0.00    +0.000 A 
ATOM     21  N   UNL     1      45.831   3.052  12.857  0.00  0.00    +0.000 NA
ATOM     22  C   UNL     1      44.938   3.698  12.074  0.00  0.00    +0.000 A 
BRANCH  17  24
ATOM     23  N   UNL     1      43.475   6.974  11.284  0.00  0.00    +0.000 N 
ATOM     24  C   UNL     1      43.761   5.647  11.152  0.00  0.00    +0.000 C 
ATOM     25  O   UNL     1      43.236   4.971  10.278  0.00  0.00    +0.000 OA
ATOM     26  H   UNL     1      42.876   7.369  10.569  0.00  0.00    +0.000 HD
ATOM     27  H   UNL     1      44.060   7.611  11.805  0.00  0.00    +0.000 HD
ENDBRANCH  17  24
ENDBRANCH  16  20
ENDBRANCH  15  16
ENDBRANCH   1  15
TORSDOF 5
ENDMDL
MODEL 9
REMARK VINA RESULT:    -6.446      3.496      5.481
REMARK INTER + INTRA:          -8.937
REMARK INTER:                  -8.232
REMARK INTRA:                  -0.705
REMARK UNBOUND:                -0.606
REMARK  Name = 
REMARK  5 active torsions:
REMARK  status: ('A' for Active; 'I' for Inactive)
REMARK    1  A    between atoms: C_2  and  C_4
REMARK    2  A    between atoms: C_7  and  O_8
REMARK    3  A    between atoms: O_8  and  C_9
REMARK    4  A    between atoms: C_9  and  C_10
REMARK    5  A    between atoms: C_15  and  C_16
REMARK                            x       y       z     vdW  Elec       q    Type
REMARK                         _______ _______ _______ _____ _____    ______ ____
ROOT
ATOM      1  C   UNL     1      48.439   7.560  14.026  0.00  0.00    +0.000 A 
ATOM      2  C   UNL     1      48.413   8.915  14.361  0.00  0.00    +0.000 A 
ATOM      3  C   UNL     1      48.600   9.294  15.684  0.00  0.00    +0.000 A 
ATOM      4  F   UNL     1      48.547  10.594  16.007  0.00  0.00    +0.000 F 
ATOM      5  C   UNL     1      48.844   8.352  16.681  0.00  0.00    +0.000 A 
ATOM      6  C   UNL     1      48.906   6.982  16.369  0.00  0.00    +0.000 A 
ATOM      7  C   UNL     1      48.652   6.614  15.040  0.00  0.00    +0.000 A 
ENDROOT
BRANCH   6   8
ATOM      8  C   UNL     1      49.229   5.967  17.464  0.00  0.00    +0.000 C 
ATOM      9  C   UNL     1      48.798   4.538  17.078  0.00  0.00    +0.000 C 
ATOM     10  C   UNL     1      47.284   4.351  17.191  0.00  0.00    +0.000 C 
ATOM     11  N   UNL     1      46.792   4.637  18.540  0.00  0.00    +0.000 NA
ATOM     12  C   UNL     1      47.151   5.985  18.972  0.00  0.00    +0.000 C 
ATOM     13  C   UNL     1      48.656   6.266  18.865  0.00  0.00    +0.000 C 
ATOM     14  H   UNL     1      47.184   3.958  19.193  0.00  0.00    +0.000 HD
ENDBRANCH   6   8
BRANCH   1  15
ATOM     15  C   UNL     1      48.207   7.091  12.610  0.00  0.00    +0.000 C 
BRANCH  15  16
ATOM     16  O   UNL     1      46.857   7.390  12.229  0.00  0.00    +0.000 OA
BRANCH  16  20
ATOM     17  C   UNL     1      44.742   3.975  11.336  0.00  0.00    +0.000 A 
ATOM     18  C   UNL     1      45.198   4.176  12.641  0.00  0.00    +0.000 A 
ATOM     19  C   UNL     1      45.918   5.338  12.933  0.00  0.00    +0.000 A 
ATOM     20  C   UNL     1      46.151   6.249  11.911  0.00  0.00    +0.000 A 
ATOM     21  N   UNL     1      45.726   6.070  10.645  0.00  0.00    +0.000 NA
ATOM     22  C   UNL     1      45.042   4.934  10.380  0.00  0.00    +0.000 A 
BRANCH  17  24
ATOM     23  N   UNL     1      44.456   2.075   9.848  0.00  0.00    +0.000 N 
ATOM     24  C   UNL     1      43.971   2.786  10.907  0.00  0.00    +0.000 C 
ATOM     25  O   UNL     1      42.964   2.428  11.501  0.00  0.00    +0.000 OA
ATOM     26  H   UNL     1      43.981   1.203   9.649  0.00  0.00    +0.000 HD
ATOM     27  H   UNL     1      45.399   2.181   9.502  0.00  0.00    +0.000 HD
ENDBRANCH  17  24
ENDBRANCH  16  20
ENDBRANCH  15  16
ENDBRANCH   1  15
TORSDOF 5
ENDMDL
