MODEL 1
REMARK VINA RESULT:    -7.864      0.000      0.000
REMARK INTER + INTRA:          -9.963
REMARK INTER:                  -9.243
REMARK INTRA:                  -0.719
REMARK UNBOUND:                -0.719
REMARK  Name = 
REMARK  3 active torsions:
REMARK  status: ('A' for Active; 'I' for Inactive)
REMARK    1  A    between atoms: C_4  and  C_5
REMARK    2  A    between atoms: C_12  and  C_13
REMARK    3  A    between atoms: C_13  and  N_14
REMARK                            x       y       z     vdW  Elec       q    Type
REMARK                         _______ _______ _______ _____ _____    ______ ____
ROOT
ATOM      1  F   UNL     1      47.358   3.291  14.644  0.00  0.00    +0.000 F 
ATOM      2  C   UNL     1      46.853   4.300  13.923  0.00  0.00    +0.000 A 
ATOM      3  C   UNL     1      47.428   5.555  14.005  0.00  0.00    +0.000 A 
ATOM      4  C   UNL     1      46.959   6.606  13.199  0.00  0.00    +0.000 A 
ATOM      5  C   UNL     1      45.808   6.383  12.416  0.00  0.00    +0.000 A 
ATOM      6  C   UNL     1      45.190   5.111  12.343  0.00  0.00    +0.000 A 
ATOM      7  C   UNL     1      45.781   4.067  13.079  0.00  0.00    +0.000 A 
ENDROOT
BRANCH   4   8
ATOM      8  C   UNL     1      47.795   7.880  13.169  0.00  0.00    +0.000 C 
ATOM      9  C   UNL     1      48.509   8.123  11.832  0.00  0.00    +0.000 C 
ATOM     10  C   UNL     1      49.939   7.599  11.813  0.00  0.00    +0.000 C 
ATOM     11  N   UNL     1      50.713   8.147  12.924  0.00  0.00    +0.000 NA
ATOM     12  C   UNL     1      50.161   7.686  14.199  0.00  0.00    +0.000 C 
ATOM     13  C   UNL     1      48.706   8.102  14.393  0.00  0.00    +0.000 C 
ATOM     14  H   UNL     1      50.686   9.163  12.890  0.00  0.00    +0.000 HD
ENDBRANCH   4   8
BRANCH   6  15
ATOM     15  C   UNL     1      43.966   4.825  11.466  0.00  0.00    +0.000 C 
ATOM     16  C   UNL     1      43.009   5.946  11.114  0.00  0.00    +0.000 C 
ATOM     17  C   UNL     1      42.602   4.962  12.156  0.00  0.00    +0.000 C 
BRANCH  15  18
ATOM     18  N   UNL     1      44.107   3.626  10.639  0.00  0.00    +0.000 N 
ATOM     19  C   UNL     1      44.936   3.442   9.540  0.00  0.00    +0.000 A 
ATOM     20  C   UNL     1      45.482   4.457   8.757  0.00  0.00    +0.000 A 
ATOM     21  N   UNL     1      46.206   4.243   7.625  0.00  0.00    +0.000 NA
ATOM     22  C   UNL     1      46.364   2.947   7.291  0.00  0.00    +0.000 A 
ATOM     23  F   UNL     1      47.024   2.651   6.164  0.00  0.00    +0.000 F 
ATOM     24  C   UNL     1      45.851   1.922   8.066  0.00  0.00    +0.000 A 
ATOM     25  N   UNL     1      45.136   2.147   9.197  0.00  0.00    +0.000 NA
ATOM     26  H   UNL     1      43.920   2.721  11.061  0.00  0.00    +0.000 HD
ENDBRANCH  15  18
ENDBRANCH   6  15
TORSDOF 3
ENDMDL
MODEL 2
REMARK VINA RESULT:    -7.041      2.214      3.098
REMARK INTER + INTRA:          -8.995
REMARK INTER:                  -8.591
REMARK INTRA:                  -0.404
REMARK UNBOUND:                -0.719
REMARK  Name = 
REMARK  3 active torsions:
REMARK  status: ('A' for Active; 'I' for Inactive)
REMARK    1  A    between atoms: C_4  and  C_5
REMARK    2  A    between atoms: C_12  and  C_13
REMARK    3  A    between atoms: C_13  and  N_14
REMARK                            x       y       z     vdW  Elec       q    Type
REMARK                         _______ _______ _______ _____ _____    ______ ____
ROOT
ATOM      1  F   UNL     1      48.520   7.358  12.304  0.00  0.00    +0.000 F 
ATOM      2  C   UNL     1      47.667   6.476  12.839  0.00  0.00    +0.000 A 
ATOM      3  C   UNL     1      47.959   5.892  14.057  0.00  0.00    +0.000 A 
ATOM      4  C   UNL     1      47.041   5.022  14.668  0.00  0.00    +0.000 A 
ATOM      5  C   UNL     1      45.886   4.658  13.947  0.00  0.00    +0.000 A 
ATOM      6  C   UNL     1      45.586   5.226  12.685  0.00  0.00    +0.000 A 
ATOM      7  C   UNL     1      46.484   6.184  12.180  0.00  0.00    +0.000 A 
ENDROOT
BRANCH   4   8
ATOM      8  C   UNL     1      47.327   4.616  16.110  0.00  0.00    +0.000 C 
ATOM      9  C   UNL     1      48.313   5.545  16.832  0.00  0.00    +0.000 C 
ATOM     10  C   UNL     1      49.753   5.052  16.774  0.00  0.00    +0.000 C 
ATOM     11  N   UNL     1      49.860   3.685  17.278  0.00  0.00    +0.000 NA
ATOM     12  C   UNL     1      49.114   2.769  16.413  0.00  0.00    +0.000 C 
ATOM     13  C   UNL     1      47.632   3.120  16.326  0.00  0.00    +0.000 C 
ATOM     14  H   UNL     1      49.487   3.639  18.223  0.00  0.00    +0.000 HD
ENDBRANCH   4   8
BRANCH   6  15
ATOM     15  C   UNL     1      44.316   4.885  11.895  0.00  0.00    +0.000 C 
ATOM     16  C   UNL     1      43.303   5.969  11.586  0.00  0.00    +0.000 C 
ATOM     17  C   UNL     1      42.996   4.995  12.671  0.00  0.00    +0.000 C 
BRANCH  15  18
ATOM     18  N   UNL     1      44.441   3.674  11.083  0.00  0.00    +0.000 N 
ATOM     19  C   UNL     1      45.079   3.531   9.858  0.00  0.00    +0.000 A 
ATOM     20  C   UNL     1      45.364   4.564   8.968  0.00  0.00    +0.000 A 
ATOM     21  N   UNL     1      45.898   4.379   7.729  0.00  0.00    +0.000 NA
ATOM     22  C   UNL     1      46.135   3.094   7.402  0.00  0.00    +0.000 A 
ATOM     23  F   UNL     1      46.616   2.822   6.181  0.00  0.00    +0.000 F 
ATOM     24  C   UNL     1      45.883   2.055   8.278  0.00  0.00    +0.000 A 
ATOM     25  N   UNL     1      45.357   2.251   9.514  0.00  0.00    +0.000 NA
ATOM     26  H   UNL     1      44.431   2.772  11.552  0.00  0.00    +0.000 HD
ENDBRANCH  15  18
ENDBRANCH   6  15
TORSDOF 3
ENDMDL
MODEL 3
REMARK VINA RESULT:    -6.707      1.895      2.494
REMARK INTER + INTRA:          -8.603
REMARK INTER:                  -8.154
REMARK INTRA:                  -0.449
REMARK UNBOUND:                -0.719
REMARK  Name = 
REMARK  3 active torsions:
REMARK  status: ('A' for Active; 'I' for Inactive)
REMARK    1  A    between atoms: C_4  and  C_5
REMARK    2  A    between atoms: C_12  and  C_13
REMARK    3  A    between atoms: C_13  and  N_14
REMARK                            x       y       z     vdW  Elec       q    Type
REMARK                         _______ _______ _______ _____ _____    ______ ____
ROOT
ATOM      1  F   UNL     1      45.264   9.585  11.162  0.00  0.00    +0.000 F 
ATOM      2  C   UNL     1      45.544   8.331  11.535  0.00  0.00    +0.000 A 
ATOM      3  C   UNL     1      46.821   8.012  11.962  0.00  0.00    +0.000 A 
ATOM      4  C   UNL     1      47.113   6.720  12.429  0.00  0.00    +0.000 A 
ATOM      5  C   UNL     1      46.115   5.730  12.321  0.00  0.00    +0.000 A 
ATOM      6  C   UNL     1      44.812   6.033  11.859  0.00  0.00    +0.000 A 
ATOM      7  C   UNL     1      44.544   7.373  11.521  0.00  0.00    +0.000 A 
ENDROOT
BRANCH   4   8
ATOM      8  C   UNL     1      48.465   6.519  13.105  0.00  0.00    +0.000 C 
ATOM      9  C   UNL     1      48.409   6.583  14.637  0.00  0.00    +0.000 C 
ATOM     10  C   UNL     1      48.729   7.965  15.191  0.00  0.00    +0.000 C 
ATOM     11  N   UNL     1      50.018   8.442  14.697  0.00  0.00    +0.000 NA
ATOM     12  C   UNL     1      49.966   8.623  13.245  0.00  0.00    +0.000 C 
ATOM     13  C   UNL     1      49.631   7.330  12.505  0.00  0.00    +0.000 C 
ATOM     14  H   UNL     1      50.744   7.769  14.929  0.00  0.00    +0.000 HD
ENDBRANCH   4   8
BRANCH   6  15
ATOM     15  C   UNL     1      43.692   4.990  11.772  0.00  0.00    +0.000 C 
ATOM     16  C   UNL     1      42.242   5.428  11.830  0.00  0.00    +0.000 C 
ATOM     17  C   UNL     1      42.848   4.807  13.041  0.00  0.00    +0.000 C 
BRANCH  15  18
ATOM     18  N   UNL     1      44.107   3.738  11.137  0.00  0.00    +0.000 N 
ATOM     19  C   UNL     1      44.756   3.575   9.920  0.00  0.00    +0.000 A 
ATOM     20  C   UNL     1      44.774   4.502   8.880  0.00  0.00    +0.000 A 
ATOM     21  N   UNL     1      45.331   4.271   7.660  0.00  0.00    +0.000 NA
ATOM     22  C   UNL     1      45.877   3.048   7.510  0.00  0.00    +0.000 A 
ATOM     23  F   UNL     1      46.404   2.723   6.323  0.00  0.00    +0.000 F 
ATOM     24  C   UNL     1      45.892   2.120   8.536  0.00  0.00    +0.000 A 
ATOM     25  N   UNL     1      45.339   2.364   9.751  0.00  0.00    +0.000 NA
ATOM     26  H   UNL     1      44.322   2.941  11.730  0.00  0.00    +0.000 HD
ENDBRANCH  15  18
ENDBRANCH   6  15
TORSDOF 3
ENDMDL
MODEL 4
REMARK VINA RESULT:    -6.669      3.314      7.410
REMARK INTER + INTRA:          -8.557
REMARK INTER:                  -8.627
REMARK INTRA:                   0.070
REMARK UNBOUND:                -0.719
REMARK  Name = 
REMARK  3 active torsions:
REMARK  status: ('A' for Active; 'I' for Inactive)
REMARK    1  A    between atoms: C_4  and  C_5
REMARK    2  A    between atoms: C_12  and  C_13
REMARK    3  A    between atoms: C_13  and  N_14
REMARK                            x       y       z     vdW  Elec       q    Type
REMARK                         _______ _______ _______ _____ _____    ______ ____
ROOT
ATOM      1  F   UNL     1      44.920   9.905  11.708  0.00  0.00    +0.000 F 
ATOM      2  C   UNL     1      45.140   8.606  11.938  0.00  0.00    +0.000 A 
ATOM      3  C   UNL     1      44.311   7.659  11.365  0.00  0.00    +0.000 A 
ATOM      4  C   UNL     1      44.573   6.289  11.533  0.00  0.00    +0.000 A 
ATOM      5  C   UNL     1      45.610   5.911  12.409  0.00  0.00    +0.000 A 
ATOM      6  C   UNL     1      46.450   6.869  13.028  0.00  0.00    +0.000 A 
ATOM      7  C   UNL     1      46.215   8.222  12.722  0.00  0.00    +0.000 A 
ENDROOT
BRANCH   4   8
ATOM      8  C   UNL     1      43.765   5.320  10.676  0.00  0.00    +0.000 C 
ATOM      9  C   UNL     1      42.797   4.440  11.479  0.00  0.00    +0.000 C 
ATOM     10  C   UNL     1      43.383   3.083  11.842  0.00  0.00    +0.000 C 
ATOM     11  N   UNL     1      43.860   2.382  10.653  0.00  0.00    +0.000 NA
ATOM     12  C   UNL     1      44.970   3.119  10.044  0.00  0.00    +0.000 C 
ATOM     13  C   UNL     1      44.575   4.533   9.627  0.00  0.00    +0.000 C 
ATOM     14  H   UNL     1      43.103   2.294   9.981  0.00  0.00    +0.000 HD
ENDBRANCH   4   8
BRANCH   6  15
ATOM     15  C   UNL     1      47.615   6.488  13.949  0.00  0.00    +0.000 C 
ATOM     16  C   UNL     1      48.478   7.572  14.564  0.00  0.00    +0.000 C 
ATOM     17  C   UNL     1      49.020   6.796  13.414  0.00  0.00    +0.000 C 
BRANCH  15  18
ATOM     18  N   UNL     1      47.475   5.162  14.551  0.00  0.00    +0.000 N 
ATOM     19  C   UNL     1      47.680   4.801  15.876  0.00  0.00    +0.000 A 
ATOM     20  C   UNL     1      48.446   5.510  16.800  0.00  0.00    +0.000 A 
ATOM     21  N   UNL     1      48.713   5.077  18.063  0.00  0.00    +0.000 NA
ATOM     22  C   UNL     1      48.182   3.879  18.374  0.00  0.00    +0.000 A 
ATOM     23  F   UNL     1      48.438   3.359  19.582  0.00  0.00    +0.000 F 
ATOM     24  C   UNL     1      47.399   3.169  17.482  0.00  0.00    +0.000 A 
ATOM     25  N   UNL     1      47.133   3.613  16.227  0.00  0.00    +0.000 NA
ATOM     26  H   UNL     1      46.820   4.507  14.133  0.00  0.00    +0.000 HD
ENDBRANCH  15  18
ENDBRANCH   6  15
TORSDOF 3
ENDMDL
MODEL 5
REMARK VINA RESULT:    -6.602      5.322      7.773
REMARK INTER + INTRA:          -8.479
REMARK INTER:                  -7.928
REMARK INTRA:                  -0.551
REMARK UNBOUND:                -0.719
REMARK  Name = 
REMARK  3 active torsions:
REMARK  status: ('A' for Active; 'I' for Inactive)
REMARK    1  A    between atoms: C_4  and  C_5
REMARK    2  A    between atoms: C_12  and  C_13
REMARK    3  A    between atoms: C_13  and  N_14
REMARK                            x       y       z     vdW  Elec       q    Type
REMARK                         _______ _______ _______ _____ _____    ______ ____
ROOT
ATOM      1  F   UNL     1      46.773   8.471  13.959  0.00  0.00    +0.000 F 
ATOM      2  C   UNL     1      45.888   8.416  12.957  0.00  0.00    +0.000 A 
ATOM      3  C   UNL     1      45.477   7.187  12.473  0.00  0.00    +0.000 A 
ATOM      4  C   UNL     1      44.492   7.110  11.474  0.00  0.00    +0.000 A 
ATOM      5  C   UNL     1      44.040   8.309  10.888  0.00  0.00    +0.000 A 
ATOM      6  C   UNL     1      44.473   9.575  11.354  0.00  0.00    +0.000 A 
ATOM      7  C   UNL     1      45.367   9.590  12.439  0.00  0.00    +0.000 A 
ENDROOT
BRANCH   4   8
ATOM      8  C   UNL     1      43.923   5.728  11.171  0.00  0.00    +0.000 C 
ATOM      9  C   UNL     1      42.708   5.355  12.031  0.00  0.00    +0.000 C 
ATOM     10  C   UNL     1      43.075   4.548  13.269  0.00  0.00    +0.000 C 
ATOM     11  N   UNL     1      43.845   3.360  12.911  0.00  0.00    +0.000 NA
ATOM     12  C   UNL     1      45.127   3.748  12.322  0.00  0.00    +0.000 C 
ATOM     13  C   UNL     1      44.962   4.594  11.063  0.00  0.00    +0.000 C 
ATOM     14  H   UNL     1      43.320   2.801  12.243  0.00  0.00    +0.000 HD
ENDBRANCH   4   8
BRANCH   6  15
ATOM     15  C   UNL     1      43.966  10.899  10.768  0.00  0.00    +0.000 C 
ATOM     16  C   UNL     1      44.024  11.136   9.273  0.00  0.00    +0.000 C 
ATOM     17  C   UNL     1      45.033  11.805  10.141  0.00  0.00    +0.000 C 
BRANCH  15  18
ATOM     18  N   UNL     1      43.015  11.595  11.636  0.00  0.00    +0.000 N 
ATOM     19  C   UNL     1      41.670  11.309  11.829  0.00  0.00    +0.000 A 
ATOM     20  C   UNL     1      40.860  10.590  10.952  0.00  0.00    +0.000 A 
ATOM     21  N   UNL     1      39.521  10.415  11.120  0.00  0.00    +0.000 NA
ATOM     22  C   UNL     1      39.006  11.004  12.216  0.00  0.00    +0.000 A 
ATOM     23  F   UNL     1      37.686  10.921  12.429  0.00  0.00    +0.000 F 
ATOM     24  C   UNL     1      39.794  11.703  13.113  0.00  0.00    +0.000 A 
ATOM     25  N   UNL     1      41.130  11.866  12.940  0.00  0.00    +0.000 NA
ATOM     26  H   UNL     1      43.370  12.067  12.463  0.00  0.00    +0.000 HD
ENDBRANCH  15  18
ENDBRANCH   6  15
TORSDOF 3
ENDMDL
MODEL 6
REMARK VINA RESULT:    -6.534      3.279      7.559
REMARK INTER + INTRA:          -8.399
REMARK INTER:                  -7.568
REMARK INTRA:                  -0.831
REMARK UNBOUND:                -0.719
REMARK  Name = 
REMARK  3 active torsions:
REMARK  status: ('A' for Active; 'I' for Inactive)
REMARK    1  A    between atoms: C_4  and  C_5
REMARK    2  A    between atoms: C_12  and  C_13
REMARK    3  A    between atoms: C_13  and  N_14
REMARK                            x       y       z     vdW  Elec       q    Type
REMARK                         _______ _______ _______ _____ _____    ______ ____
ROOT
ATOM      1  F   UNL     1      44.730  10.338  11.895  0.00  0.00    +0.000 F 
ATOM      2  C   UNL     1      45.329   9.142  11.943  0.00  0.00    +0.000 A 
ATOM      3  C   UNL     1      44.584   7.994  11.741  0.00  0.00    +0.000 A 
ATOM      4  C   UNL     1      45.209   6.737  11.713  0.00  0.00    +0.000 A 
ATOM      5  C   UNL     1      46.580   6.666  12.032  0.00  0.00    +0.000 A 
ATOM      6  C   UNL     1      47.351   7.830  12.271  0.00  0.00    +0.000 A 
ATOM      7  C   UNL     1      46.694   9.069  12.164  0.00  0.00    +0.000 A 
ENDROOT
BRANCH   4   8
ATOM      8  C   UNL     1      44.365   5.556  11.244  0.00  0.00    +0.000 C 
ATOM      9  C   UNL     1      43.074   5.358  12.051  0.00  0.00    +0.000 C 
ATOM     10  C   UNL     1      43.224   4.353  13.185  0.00  0.00    +0.000 C 
ATOM     11  N   UNL     1      43.730   3.075  12.690  0.00  0.00    +0.000 NA
ATOM     12  C   UNL     1      45.082   3.242  12.154  0.00  0.00    +0.000 C 
ATOM     13  C   UNL     1      45.138   4.245  11.005  0.00  0.00    +0.000 C 
ATOM     14  H   UNL     1      43.117   2.725  11.958  0.00  0.00    +0.000 HD
ENDBRANCH   4   8
BRANCH   6  15
ATOM     15  C   UNL     1      48.853   7.789  12.576  0.00  0.00    +0.000 C 
ATOM     16  C   UNL     1      49.734   8.960  12.193  0.00  0.00    +0.000 C 
ATOM     17  C   UNL     1      49.782   7.729  11.357  0.00  0.00    +0.000 C 
BRANCH  15  18
ATOM     18  N   UNL     1      49.205   6.862  13.652  0.00  0.00    +0.000 N 
ATOM     19  C   UNL     1      48.951   6.996  15.010  0.00  0.00    +0.000 A 
ATOM     20  C   UNL     1      48.692   8.195  15.672  0.00  0.00    +0.000 A 
ATOM     21  N   UNL     1      48.549   8.307  17.021  0.00  0.00    +0.000 NA
ATOM     22  C   UNL     1      48.686   7.153  17.702  0.00  0.00    +0.000 A 
ATOM     23  F   UNL     1      48.608   7.184  19.040  0.00  0.00    +0.000 F 
ATOM     24  C   UNL     1      48.920   5.948  17.065  0.00  0.00    +0.000 A 
ATOM     25  N   UNL     1      49.054   5.846  15.719  0.00  0.00    +0.000 NA
ATOM     26  H   UNL     1      49.287   5.872  13.432  0.00  0.00    +0.000 HD
ENDBRANCH  15  18
ENDBRANCH   6  15
TORSDOF 3
ENDMDL
MODEL 7
REMARK VINA RESULT:    -6.371      4.343      7.793
REMARK INTER + INTRA:          -8.208
REMARK INTER:                  -7.791
REMARK INTRA:                  -0.417
REMARK UNBOUND:                -0.719
REMARK  Name = 
REMARK  3 active torsions:
REMARK  status: ('A' for Active; 'I' for Inactive)
REMARK    1  A    between atoms: C_4  and  C_5
REMARK    2  A    between atoms: C_12  and  C_13
REMARK    3  A    between atoms: C_13  and  N_14
REMARK                            x       y       z     vdW  Elec       q    Type
REMARK                         _______ _______ _______ _____ _____    ______ ____
ROOT
ATOM      1  F   UNL     1      49.311   8.087  14.232  0.00  0.00    +0.000 F 
ATOM      2  C   UNL     1      48.548   7.007  14.438  0.00  0.00    +0.000 A 
ATOM      3  C   UNL     1      47.580   6.666  13.511  0.00  0.00    +0.000 A 
ATOM      4  C   UNL     1      46.823   5.494  13.673  0.00  0.00    +0.000 A 
ATOM      5  C   UNL     1      46.979   4.758  14.865  0.00  0.00    +0.000 A 
ATOM      6  C   UNL     1      47.946   5.110  15.837  0.00  0.00    +0.000 A 
ATOM      7  C   UNL     1      48.759   6.224  15.561  0.00  0.00    +0.000 A 
ENDROOT
BRANCH   4   8
ATOM      8  C   UNL     1      45.955   5.064  12.494  0.00  0.00    +0.000 C 
ATOM      9  C   UNL     1      45.784   6.148  11.422  0.00  0.00    +0.000 C 
ATOM     10  C   UNL     1      44.519   6.975  11.602  0.00  0.00    +0.000 C 
ATOM     11  N   UNL     1      43.338   6.118  11.670  0.00  0.00    +0.000 NA
ATOM     12  C   UNL     1      43.401   5.265  12.858  0.00  0.00    +0.000 C 
ATOM     13  C   UNL     1      44.633   4.364  12.867  0.00  0.00    +0.000 C 
ATOM     14  H   UNL     1      43.289   5.537  10.837  0.00  0.00    +0.000 HD
ENDBRANCH   4   8
BRANCH   6  15
ATOM     15  C   UNL     1      48.171   4.304  17.122  0.00  0.00    +0.000 C 
ATOM     16  C   UNL     1      47.235   3.167  17.476  0.00  0.00    +0.000 C 
ATOM     17  C   UNL     1      47.096   4.458  18.206  0.00  0.00    +0.000 C 
BRANCH  15  18
ATOM     18  N   UNL     1      49.546   4.372  17.620  0.00  0.00    +0.000 N 
ATOM     19  C   UNL     1      50.534   3.401  17.529  0.00  0.00    +0.000 A 
ATOM     20  C   UNL     1      50.316   2.040  17.328  0.00  0.00    +0.000 A 
ATOM     21  N   UNL     1      51.300   1.098  17.347  0.00  0.00    +0.000 NA
ATOM     22  C   UNL     1      52.536   1.576  17.587  0.00  0.00    +0.000 A 
ATOM     23  F   UNL     1      53.554   0.709  17.670  0.00  0.00    +0.000 F 
ATOM     24  C   UNL     1      52.779   2.926  17.767  0.00  0.00    +0.000 A 
ATOM     25  N   UNL     1      51.792   3.857  17.740  0.00  0.00    +0.000 NA
ATOM     26  H   UNL     1      49.990   5.283  17.694  0.00  0.00    +0.000 HD
ENDBRANCH  15  18
ENDBRANCH   6  15
TORSDOF 3
ENDMDL
MODEL 8
REMARK VINA RESULT:    -5.975      3.676      5.985
REMARK INTER + INTRA:          -7.742
REMARK INTER:                  -6.927
REMARK INTRA:                  -0.815
REMARK UNBOUND:                -0.719
REMARK  Name = 
REMARK  3 active torsions:
REMARK  status: ('A' for Active; 'I' for Inactive)
REMARK    1  A    between atoms: C_4  and  C_5
REMARK    2  A    between atoms: C_12  and  C_13
REMARK    3  A    between atoms: C_13  and  N_14
REMARK                            x       y       z     vdW  Elec       q    Type
REMARK                         _______ _______ _______ _____ _____    ______ ____
ROOT
ATOM      1  F   UNL     1      47.780  10.275  17.221  0.00  0.00    +0.000 F 
ATOM      2  C   UNL     1      48.201   9.147  16.637  0.00  0.00    +0.000 A 
ATOM      3  C   UNL     1      48.832   8.177  17.394  0.00  0.00    +0.000 A 
ATOM      4  C   UNL     1      49.211   6.955  16.813  0.00  0.00    +0.000 A 
ATOM      5  C   UNL     1      49.058   6.803  15.421  0.00  0.00    +0.000 A 
ATOM      6  C   UNL     1      48.440   7.798  14.626  0.00  0.00    +0.000 A 
ATOM      7  C   UNL     1      47.970   8.948  15.286  0.00  0.00    +0.000 A 
ENDROOT
BRANCH   4   8
ATOM      8  C   UNL     1      49.675   5.854  17.761  0.00  0.00    +0.000 C 
ATOM      9  C   UNL     1      49.292   4.440  17.303  0.00  0.00    +0.000 C 
ATOM     10  C   UNL     1      47.991   3.942  17.920  0.00  0.00    +0.000 C 
ATOM     11  N   UNL     1      48.038   4.024  19.378  0.00  0.00    +0.000 NA
ATOM     12  C   UNL     1      48.144   5.421  19.802  0.00  0.00    +0.000 C 
ATOM     13  C   UNL     1      49.394   6.106  19.255  0.00  0.00    +0.000 C 
ATOM     14  H   UNL     1      48.839   3.502  19.724  0.00  0.00    +0.000 HD
ENDBRANCH   4   8
BRANCH   6  15
ATOM     15  C   UNL     1      48.217   7.644  13.116  0.00  0.00    +0.000 C 
ATOM     16  C   UNL     1      49.351   7.171  12.229  0.00  0.00    +0.000 C 
ATOM     17  C   UNL     1      48.996   8.618  12.222  0.00  0.00    +0.000 C 
BRANCH  15  18
ATOM     18  N   UNL     1      46.811   7.477  12.747  0.00  0.00    +0.000 N 
ATOM     19  C   UNL     1      46.015   6.351  12.911  0.00  0.00    +0.000 A 
ATOM     20  C   UNL     1      46.479   5.046  13.068  0.00  0.00    +0.000 A 
ATOM     21  N   UNL     1      45.673   3.950  13.123  0.00  0.00    +0.000 NA
ATOM     22  C   UNL     1      44.356   4.211  13.005  0.00  0.00    +0.000 A 
ATOM     23  F   UNL     1      43.497   3.182  13.000  0.00  0.00    +0.000 F 
ATOM     24  C   UNL     1      43.871   5.499  12.872  0.00  0.00    +0.000 A 
ATOM     25  N   UNL     1      44.683   6.585  12.825  0.00  0.00    +0.000 NA
ATOM     26  H   UNL     1      46.213   8.299  12.731  0.00  0.00    +0.000 HD
ENDBRANCH  15  18
ENDBRANCH   6  15
TORSDOF 3
ENDMDL
MODEL 9
REMARK VINA RESULT:    -5.881      3.653      5.887
REMARK INTER + INTRA:          -7.631
REMARK INTER:                  -7.044
REMARK INTRA:                  -0.588
REMARK UNBOUND:                -0.719
REMARK  Name = 
REMARK  3 active torsions:
REMARK  status: ('A' for Active; 'I' for Inactive)
REMARK    1  A    between atoms: C_4  and  C_5
REMARK    2  A    between atoms: C_12  and  C_13
REMARK    3  A    between atoms: C_13  and  N_14
REMARK                            x       y       z     vdW  Elec       q    Type
REMARK                         _______ _______ _______ _____ _____    ______ ____
ROOT
ATOM      1  F   UNL     1      48.254   9.890  17.674  0.00  0.00    +0.000 F 
ATOM      2  C   UNL     1      48.349   8.698  17.073  0.00  0.00    +0.000 A 
ATOM      3  C   UNL     1      48.659   7.576  17.821  0.00  0.00    +0.000 A 
ATOM      4  C   UNL     1      48.688   6.307  17.220  0.00  0.00    +0.000 A 
ATOM      5  C   UNL     1      48.532   6.227  15.821  0.00  0.00    +0.000 A 
ATOM      6  C   UNL     1      48.243   7.371  15.037  0.00  0.00    +0.000 A 
ATOM      7  C   UNL     1      48.104   8.596  15.714  0.00  0.00    +0.000 A 
ENDROOT
BRANCH   4   8
ATOM      8  C   UNL     1      48.794   5.104  18.151  0.00  0.00    +0.000 C 
ATOM      9  C   UNL     1      50.231   4.781  18.584  0.00  0.00    +0.000 C 
ATOM     10  C   UNL     1      50.897   3.725  17.712  0.00  0.00    +0.000 C 
ATOM     11  N   UNL     1      50.086   2.511  17.648  0.00  0.00    +0.000 NA
ATOM     12  C   UNL     1      48.810   2.792  16.989  0.00  0.00    +0.000 C 
ATOM     13  C   UNL     1      47.996   3.859  17.716  0.00  0.00    +0.000 C 
ATOM     14  H   UNL     1      49.914   2.165  18.588  0.00  0.00    +0.000 HD
ENDBRANCH   4   8
BRANCH   6  15
ATOM     15  C   UNL     1      48.023   7.310  13.521  0.00  0.00    +0.000 C 
ATOM     16  C   UNL     1      49.162   6.905  12.607  0.00  0.00    +0.000 C 
ATOM     17  C   UNL     1      48.795   8.346  12.691  0.00  0.00    +0.000 C 
BRANCH  15  18
ATOM     18  N   UNL     1      46.619   7.155  13.140  0.00  0.00    +0.000 N 
ATOM     19  C   UNL     1      45.867   5.988  13.115  0.00  0.00    +0.000 A 
ATOM     20  C   UNL     1      46.380   4.695  13.042  0.00  0.00    +0.000 A 
ATOM     21  N   UNL     1      45.614   3.576  12.915  0.00  0.00    +0.000 NA
ATOM     22  C   UNL     1      44.288   3.802  12.854  0.00  0.00    +0.000 A 
ATOM     23  F   UNL     1      43.467   2.758  12.680  0.00  0.00    +0.000 F 
ATOM     24  C   UNL     1      43.755   5.075  12.948  0.00  0.00    +0.000 A 
ATOM     25  N   UNL     1      44.526   6.183  13.081  0.00  0.00    +0.000 NA
ATOM     26  H   UNL     1      45.991   7.945  13.269  0.00  0.00    +0.000 HD
ENDBRANCH  15  18
ENDBRANCH   6  15
TORSDOF 3
ENDMDL
