MODEL 1
REMARK VINA RESULT:    -6.694      0.000      0.000
REMARK INTER + INTRA:          -9.421
REMARK INTER:                  -8.651
REMARK INTRA:                  -0.770
REMARK UNBOUND:                -0.770
REMARK  Name = 
REMARK  7 active torsions:
REMARK  status: ('A' for Active; 'I' for Inactive)
REMARK    1  A    between atoms: C_1  and  N_2
REMARK    2  A    between atoms: N_2  and  C_3
REMARK    3  A    between atoms: N_2  and  C_4
REMARK    4  A    between atoms: C_4  and  C_5
REMARK    5  A    between atoms: C_8  and  C_9
REMARK    6  A    between atoms: C_9  and  N_10
REMARK    7  A    between atoms: C_11  and  C_13
REMARK                            x       y       z     vdW  Elec       q    Type
REMARK                         _______ _______ _______ _____ _____    ______ ____
ROOT
ATOM      1  N   UNL     1      46.827   6.701  14.037  0.00  0.00    +0.000 N 
ATOM      2  C   UNL     1      48.154   6.343  14.054  0.00  0.00    +0.000 C 
ATOM      3  O   UNL     1      48.808   6.186  13.026  0.00  0.00    +0.000 OA
ATOM      4  H   UNL     1      46.281   6.511  14.871  0.00  0.00    +0.000 HD
ENDROOT
BRANCH   2   5
ATOM      5  C   UNL     1      48.782   6.231  15.376  0.00  0.00    +0.000 A 
ATOM      6  C   UNL     1      49.845   7.065  15.698  0.00  0.00    +0.000 A 
ATOM      7  S   UNL     1      50.425   6.852  17.287  0.00  0.00    +0.000 S 
ATOM      8  C   UNL     1      49.312   5.599  17.583  0.00  0.00    +0.000 A 
ATOM      9  N   UNL     1      49.290   4.952  18.778  0.00  0.00    +0.000 NA
ATOM     10  C   UNL     1      48.421   4.000  18.855  0.00  0.00    +0.000 A 
ATOM     11  N   UNL     1      47.571   3.638  17.842  0.00  0.00    +0.000 N 
ATOM     12  C   UNL     1      47.530   4.288  16.631  0.00  0.00    +0.000 A 
ATOM     13  O   UNL     1      46.720   3.977  15.763  0.00  0.00    +0.000 OA
ATOM     14  C   UNL     1      48.497   5.358  16.490  0.00  0.00    +0.000 A 
ATOM     15  H   UNL     1      46.909   2.884  17.968  0.00  0.00    +0.000 HD
ENDBRANCH   2   5
BRANCH   1  16
ATOM     16  C   UNL     1      46.094   6.828  12.795  0.00  0.00    +0.000 C 
BRANCH  16  20
ATOM     17  C   UNL     1      43.589   3.889  10.742  0.00  0.00    +0.000 C 
ATOM     18  C   UNL     1      44.500   3.371  11.862  0.00  0.00    +0.000 C 
ATOM     19  C   UNL     1      45.555   4.385  12.303  0.00  0.00    +0.000 C 
ATOM     20  C   UNL     1      44.981   5.772  12.643  0.00  0.00    +0.000 C 
ATOM     21  C   UNL     1      43.972   6.267  11.593  0.00  0.00    +0.000 C 
ATOM     22  C   UNL     1      42.947   5.210  11.195  0.00  0.00    +0.000 C 
BRANCH  17  23
ATOM     23  C   UNL     1      44.300   4.045   9.370  0.00  0.00    +0.000 C 
BRANCH  23  25
ATOM     24  C   UNL     1      44.675   1.672   8.902  0.00  0.00    +0.000 C 
ATOM     25  N   UNL     1      45.285   2.996   9.039  0.00  0.00    +0.000 NA
ATOM     26  C   UNL     1      45.970   3.332   7.784  0.00  0.00    +0.000 C 
ENDBRANCH  23  25
ENDBRANCH  17  23
ENDBRANCH  16  20
ENDBRANCH   1  16
TORSDOF 5
ENDMDL
MODEL 2
REMARK VINA RESULT:    -6.521      2.789      7.491
REMARK INTER + INTRA:          -9.197
REMARK INTER:                  -8.486
REMARK INTRA:                  -0.711
REMARK UNBOUND:                -0.770
REMARK  Name = 
REMARK  7 active torsions:
REMARK  status: ('A' for Active; 'I' for Inactive)
REMARK    1  A    between atoms: C_1  and  N_2
REMARK    2  A    between atoms: N_2  and  C_3
REMARK    3  A    between atoms: N_2  and  C_4
REMARK    4  A    between atoms: C_4  and  C_5
REMARK    5  A    between atoms: C_8  and  C_9
REMARK    6  A    between atoms: C_9  and  N_10
REMARK    7  A    between atoms: C_11  and  C_13
REMARK                            x       y       z     vdW  Elec       q    Type
REMARK                         _______ _______ _______ _____ _____    ______ ____
ROOT
ATOM      1  N   UNL     1      47.688   6.567  14.816  0.00  0.00    +0.000 N 
ATOM      2  C   UNL     1      47.801   6.286  13.475  0.00  0.00    +0.000 C 
ATOM      3  O   UNL     1      48.888   6.114  12.928  0.00  0.00    +0.000 OA
ATOM      4  H   UNL     1      46.824   6.997  15.131  0.00  0.00    +0.000 HD
ENDROOT
BRANCH   2   5
ATOM      5  C   UNL     1      46.545   6.123  12.734  0.00  0.00    +0.000 A 
ATOM      6  C   UNL     1      45.948   7.234  12.153  0.00  0.00    +0.000 A 
ATOM      7  S   UNL     1      44.529   6.871  11.280  0.00  0.00    +0.000 S 
ATOM      8  C   UNL     1      44.632   5.224  11.694  0.00  0.00    +0.000 A 
ATOM      9  N   UNL     1      43.690   4.338  11.275  0.00  0.00    +0.000 NA
ATOM     10  C   UNL     1      43.870   3.129  11.691  0.00  0.00    +0.000 A 
ATOM     11  N   UNL     1      44.911   2.726  12.488  0.00  0.00    +0.000 N 
ATOM     12  C   UNL     1      45.908   3.577  12.903  0.00  0.00    +0.000 A 
ATOM     13  O   UNL     1      46.857   3.176  13.570  0.00  0.00    +0.000 OA
ATOM     14  C   UNL     1      45.744   4.951  12.473  0.00  0.00    +0.000 A 
ATOM     15  H   UNL     1      44.998   1.761  12.775  0.00  0.00    +0.000 HD
ENDBRANCH   2   5
BRANCH   1  16
ATOM     16  C   UNL     1      48.855   6.765  15.648  0.00  0.00    +0.000 C 
BRANCH  16  20
ATOM     17  C   UNL     1      49.858   3.518  18.401  0.00  0.00    +0.000 C 
ATOM     18  C   UNL     1      50.266   4.938  18.815  0.00  0.00    +0.000 C 
ATOM     19  C   UNL     1      50.168   5.954  17.678  0.00  0.00    +0.000 C 
ATOM     20  C   UNL     1      48.808   5.948  16.955  0.00  0.00    +0.000 C 
ATOM     21  C   UNL     1      48.318   4.527  16.631  0.00  0.00    +0.000 C 
ATOM     22  C   UNL     1      48.442   3.562  17.806  0.00  0.00    +0.000 C 
BRANCH  17  23
ATOM     23  C   UNL     1      50.860   2.831  17.434  0.00  0.00    +0.000 C 
BRANCH  23  25
ATOM     24  C   UNL     1      52.377   0.913  17.537  0.00  0.00    +0.000 C 
ATOM     25  N   UNL     1      52.056   2.240  18.067  0.00  0.00    +0.000 NA
ATOM     26  C   UNL     1      53.214   3.121  17.868  0.00  0.00    +0.000 C 
ENDBRANCH  23  25
ENDBRANCH  17  23
ENDBRANCH  16  20
ENDBRANCH   1  16
TORSDOF 5
ENDMDL
MODEL 3
REMARK VINA RESULT:    -6.461      2.911      8.255
REMARK INTER + INTRA:          -9.120
REMARK INTER:                  -8.480
REMARK INTRA:                  -0.640
REMARK UNBOUND:                -0.770
REMARK  Name = 
REMARK  7 active torsions:
REMARK  status: ('A' for Active; 'I' for Inactive)
REMARK    1  A    between atoms: C_1  and  N_2
REMARK    2  A    between atoms: N_2  and  C_3
REMARK    3  A    between atoms: N_2  and  C_4
REMARK    4  A    between atoms: C_4  and  C_5
REMARK    5  A    between atoms: C_8  and  C_9
REMARK    6  A    between atoms: C_9  and  N_10
REMARK    7  A    between atoms: C_11  and  C_13
REMARK                            x       y       z     vdW  Elec       q    Type
REMARK                         _______ _______ _______ _____ _____    ______ ____
ROOT
ATOM      1  N   UNL     1      46.898   4.436  15.592  0.00  0.00    +0.000 N 
ATOM      2  C   UNL     1      46.805   4.208  14.240  0.00  0.00    +0.000 C 
ATOM      3  O   UNL     1      47.200   3.168  13.718  0.00  0.00    +0.000 OA
ATOM      4  H   UNL     1      46.852   5.400  15.908  0.00  0.00    +0.000 HD
ENDROOT
BRANCH   2   5
ATOM      5  C   UNL     1      46.134   5.246  13.448  0.00  0.00    +0.000 A 
ATOM      6  C   UNL     1      46.765   6.467  13.251  0.00  0.00    +0.000 A 
ATOM      7  S   UNL     1      45.882   7.542  12.264  0.00  0.00    +0.000 S 
ATOM      8  C   UNL     1      44.600   6.433  12.111  0.00  0.00    +0.000 A 
ATOM      9  N   UNL     1      43.489   6.745  11.393  0.00  0.00    +0.000 NA
ATOM     10  C   UNL     1      42.580   5.828  11.389  0.00  0.00    +0.000 A 
ATOM     11  N   UNL     1      42.684   4.625  12.039  0.00  0.00    +0.000 N 
ATOM     12  C   UNL     1      43.804   4.250  12.743  0.00  0.00    +0.000 A 
ATOM     13  O   UNL     1      43.891   3.144  13.268  0.00  0.00    +0.000 OA
ATOM     14  C   UNL     1      44.850   5.252  12.789  0.00  0.00    +0.000 A 
ATOM     15  H   UNL     1      41.937   3.947  11.992  0.00  0.00    +0.000 HD
ENDBRANCH   2   5
BRANCH   1  16
ATOM     16  C   UNL     1      47.553   3.494  16.475  0.00  0.00    +0.000 C 
BRANCH  16  20
ATOM     17  C   UNL     1      49.238   6.180  19.487  0.00  0.00    +0.000 C 
ATOM     18  C   UNL     1      49.331   4.673  19.762  0.00  0.00    +0.000 C 
ATOM     19  C   UNL     1      48.453   3.832  18.836  0.00  0.00    +0.000 C 
ATOM     20  C   UNL     1      48.650   4.143  17.341  0.00  0.00    +0.000 C 
ATOM     21  C   UNL     1      48.679   5.653  17.051  0.00  0.00    +0.000 C 
ATOM     22  C   UNL     1      49.571   6.436  18.009  0.00  0.00    +0.000 C 
BRANCH  17  23
ATOM     23  C   UNL     1      47.874   6.810  19.880  0.00  0.00    +0.000 C 
BRANCH  23  25
ATOM     24  C   UNL     1      47.293   9.186  19.947  0.00  0.00    +0.000 C 
ATOM     25  N   UNL     1      47.949   8.074  20.638  0.00  0.00    +0.000 NA
ATOM     26  C   UNL     1      47.324   7.904  21.957  0.00  0.00    +0.000 C 
ENDBRANCH  23  25
ENDBRANCH  17  23
ENDBRANCH  16  20
ENDBRANCH   1  16
TORSDOF 5
ENDMDL
MODEL 4
REMARK VINA RESULT:    -6.393      2.839      7.585
REMARK INTER + INTRA:          -9.032
REMARK INTER:                  -8.207
REMARK INTRA:                  -0.825
REMARK UNBOUND:                -0.770
REMARK  Name = 
REMARK  7 active torsions:
REMARK  status: ('A' for Active; 'I' for Inactive)
REMARK    1  A    between atoms: C_1  and  N_2
REMARK    2  A    between atoms: N_2  and  C_3
REMARK    3  A    between atoms: N_2  and  C_4
REMARK    4  A    between atoms: C_4  and  C_5
REMARK    5  A    between atoms: C_8  and  C_9
REMARK    6  A    between atoms: C_9  and  N_10
REMARK    7  A    between atoms: C_11  and  C_13
REMARK                            x       y       z     vdW  Elec       q    Type
REMARK                         _______ _______ _______ _____ _____    ______ ____
ROOT
ATOM      1  N   UNL     1      46.836   4.419  15.882  0.00  0.00    +0.000 N 
ATOM      2  C   UNL     1      46.902   4.178  14.530  0.00  0.00    +0.000 C 
ATOM      3  O   UNL     1      47.271   3.099  14.070  0.00  0.00    +0.000 OA
ATOM      4  H   UNL     1      46.831   5.388  16.183  0.00  0.00    +0.000 HD
ENDROOT
BRANCH   2   5
ATOM      5  C   UNL     1      46.430   5.255  13.652  0.00  0.00    +0.000 A 
ATOM      6  C   UNL     1      47.246   6.356  13.427  0.00  0.00    +0.000 A 
ATOM      7  S   UNL     1      46.581   7.490  12.340  0.00  0.00    +0.000 S 
ATOM      8  C   UNL     1      45.156   6.576  12.174  0.00  0.00    +0.000 A 
ATOM      9  N   UNL     1      44.138   7.005  11.383  0.00  0.00    +0.000 NA
ATOM     10  C   UNL     1      43.103   6.234  11.376  0.00  0.00    +0.000 A 
ATOM     11  N   UNL     1      42.995   5.069  12.091  0.00  0.00    +0.000 N 
ATOM     12  C   UNL     1      44.012   4.575  12.874  0.00  0.00    +0.000 A 
ATOM     13  O   UNL     1      43.907   3.500  13.458  0.00  0.00    +0.000 OA
ATOM     14  C   UNL     1      45.194   5.412  12.924  0.00  0.00    +0.000 A 
ATOM     15  H   UNL     1      42.157   4.507  12.038  0.00  0.00    +0.000 HD
ENDBRANCH   2   5
BRANCH   1  16
ATOM     16  C   UNL     1      47.287   3.439  16.847  0.00  0.00    +0.000 C 
BRANCH  16  20
ATOM     17  C   UNL     1      50.843   5.629  18.146  0.00  0.00    +0.000 C 
ATOM     18  C   UNL     1      49.483   6.166  18.609  0.00  0.00    +0.000 C 
ATOM     19  C   UNL     1      48.301   5.546  17.865  0.00  0.00    +0.000 C 
ATOM     20  C   UNL     1      48.318   4.006  17.843  0.00  0.00    +0.000 C 
ATOM     21  C   UNL     1      49.704   3.437  17.496  0.00  0.00    +0.000 C 
ATOM     22  C   UNL     1      50.840   4.097  18.270  0.00  0.00    +0.000 C 
BRANCH  17  23
ATOM     23  C   UNL     1      51.248   6.082  16.717  0.00  0.00    +0.000 C 
BRANCH  23  25
ATOM     24  C   UNL     1      52.041   8.394  16.597  0.00  0.00    +0.000 C 
ATOM     25  N   UNL     1      50.919   7.480  16.374  0.00  0.00    +0.000 NA
ATOM     26  C   UNL     1      50.513   7.566  14.965  0.00  0.00    +0.000 C 
ENDBRANCH  23  25
ENDBRANCH  17  23
ENDBRANCH  16  20
ENDBRANCH   1  16
TORSDOF 5
ENDMDL
MODEL 5
REMARK VINA RESULT:    -6.358      2.224      3.135
REMARK INTER + INTRA:          -8.987
REMARK INTER:                  -8.019
REMARK INTRA:                  -0.968
REMARK UNBOUND:                -0.770
REMARK  Name = 
REMARK  7 active torsions:
REMARK  status: ('A' for Active; 'I' for Inactive)
REMARK    1  A    between atoms: C_1  and  N_2
REMARK    2  A    between atoms: N_2  and  C_3
REMARK    3  A    between atoms: N_2  and  C_4
REMARK    4  A    between atoms: C_4  and  C_5
REMARK    5  A    between atoms: C_8  and  C_9
REMARK    6  A    between atoms: C_9  and  N_10
REMARK    7  A    between atoms: C_11  and  C_13
REMARK                            x       y       z     vdW  Elec       q    Type
REMARK                         _______ _______ _______ _____ _____    ______ ____
ROOT
ATOM      1  N   UNL     1      48.307   7.897  14.378  0.00  0.00    +0.000 N 
ATOM      2  C   UNL     1      49.422   7.394  15.006  0.00  0.00    +0.000 C 
ATOM      3  O   UNL     1      50.562   7.624  14.610  0.00  0.00    +0.000 OA
ATOM      4  H   UNL     1      47.423   7.431  14.553  0.00  0.00    +0.000 HD
ENDROOT
BRANCH   2   5
ATOM      5  C   UNL     1      49.187   6.623  16.233  0.00  0.00    +0.000 A 
ATOM      6  C   UNL     1      49.770   7.041  17.422  0.00  0.00    +0.000 A 
ATOM      7  S   UNL     1      49.354   6.075  18.764  0.00  0.00    +0.000 S 
ATOM      8  C   UNL     1      48.426   5.031  17.793  0.00  0.00    +0.000 A 
ATOM      9  N   UNL     1      47.797   3.952  18.330  0.00  0.00    +0.000 NA
ATOM     10  C   UNL     1      47.158   3.225  17.476  0.00  0.00    +0.000 A 
ATOM     11  N   UNL     1      47.090   3.482  16.131  0.00  0.00    +0.000 N 
ATOM     12  C   UNL     1      47.676   4.582  15.549  0.00  0.00    +0.000 A 
ATOM     13  O   UNL     1      47.551   4.816  14.351  0.00  0.00    +0.000 OA
ATOM     14  C   UNL     1      48.418   5.424  16.465  0.00  0.00    +0.000 A 
ATOM     15  H   UNL     1      46.567   2.875  15.515  0.00  0.00    +0.000 HD
ENDBRANCH   2   5
BRANCH   1  16
ATOM     16  C   UNL     1      48.410   8.660  13.152  0.00  0.00    +0.000 C 
BRANCH  16  20
ATOM     17  C   UNL     1      44.814   6.690  11.630  0.00  0.00    +0.000 C 
ATOM     18  C   UNL     1      44.765   8.216  11.781  0.00  0.00    +0.000 C 
ATOM     19  C   UNL     1      45.923   8.781  12.602  0.00  0.00    +0.000 C 
ATOM     20  C   UNL     1      47.310   8.307  12.131  0.00  0.00    +0.000 C 
ATOM     21  C   UNL     1      47.355   6.795  11.858  0.00  0.00    +0.000 C 
ATOM     22  C   UNL     1      46.174   6.293  11.035  0.00  0.00    +0.000 C 
BRANCH  17  23
ATOM     23  C   UNL     1      44.521   5.916  12.944  0.00  0.00    +0.000 C 
BRANCH  23  25
ATOM     24  C   UNL     1      42.371   5.457  11.869  0.00  0.00    +0.000 C 
ATOM     25  N   UNL     1      43.300   5.087  12.939  0.00  0.00    +0.000 NA
ATOM     26  C   UNL     1      43.658   3.670  12.783  0.00  0.00    +0.000 C 
ENDBRANCH  23  25
ENDBRANCH  17  23
ENDBRANCH  16  20
ENDBRANCH   1  16
TORSDOF 5
ENDMDL
MODEL 6
REMARK VINA RESULT:    -6.309      2.808      3.984
REMARK INTER + INTRA:          -8.923
REMARK INTER:                  -8.418
REMARK INTRA:                  -0.504
REMARK UNBOUND:                -0.770
REMARK  Name = 
REMARK  7 active torsions:
REMARK  status: ('A' for Active; 'I' for Inactive)
REMARK    1  A    between atoms: C_1  and  N_2
REMARK    2  A    between atoms: N_2  and  C_3
REMARK    3  A    between atoms: N_2  and  C_4
REMARK    4  A    between atoms: C_4  and  C_5
REMARK    5  A    between atoms: C_8  and  C_9
REMARK    6  A    between atoms: C_9  and  N_10
REMARK    7  A    between atoms: C_11  and  C_13
REMARK                            x       y       z     vdW  Elec       q    Type
REMARK                         _______ _______ _______ _____ _____    ______ ____
ROOT
ATOM      1  N   UNL     1      49.389   5.875  15.963  0.00  0.00    +0.000 N 
ATOM      2  C   UNL     1      49.234   5.084  17.077  0.00  0.00    +0.000 C 
ATOM      3  O   UNL     1      48.129   4.800  17.534  0.00  0.00    +0.000 OA
ATOM      4  H   UNL     1      50.293   6.319  15.829  0.00  0.00    +0.000 HD
ENDROOT
BRANCH   2   5
ATOM      5  C   UNL     1      50.461   4.524  17.655  0.00  0.00    +0.000 A 
ATOM      6  C   UNL     1      51.300   5.344  18.398  0.00  0.00    +0.000 A 
ATOM      7  S   UNL     1      52.650   4.531  19.049  0.00  0.00    +0.000 S 
ATOM      8  C   UNL     1      52.190   3.067  18.315  0.00  0.00    +0.000 A 
ATOM      9  N   UNL     1      52.946   1.946  18.458  0.00  0.00    +0.000 NA
ATOM     10  C   UNL     1      52.501   0.916  17.820  0.00  0.00    +0.000 A 
ATOM     11  N   UNL     1      51.365   0.906  17.051  0.00  0.00    +0.000 N 
ATOM     12  C   UNL     1      50.549   2.003  16.909  0.00  0.00    +0.000 A 
ATOM     13  O   UNL     1      49.509   1.949  16.260  0.00  0.00    +0.000 OA
ATOM     14  C   UNL     1      51.012   3.191  17.598  0.00  0.00    +0.000 A 
ATOM     15  H   UNL     1      51.068   0.063  16.580  0.00  0.00    +0.000 HD
ENDBRANCH   2   5
BRANCH   1  16
ATOM     16  C   UNL     1      48.256   6.498  15.314  0.00  0.00    +0.000 C 
BRANCH  16  20
ATOM     17  C   UNL     1      45.553   4.877  12.281  0.00  0.00    +0.000 C 
ATOM     18  C   UNL     1      46.447   6.053  11.866  0.00  0.00    +0.000 C 
ATOM     19  C   UNL     1      47.116   6.754  13.047  0.00  0.00    +0.000 C 
ATOM     20  C   UNL     1      47.854   5.797  14.001  0.00  0.00    +0.000 C 
ATOM     21  C   UNL     1      47.025   4.547  14.342  0.00  0.00    +0.000 C 
ATOM     22  C   UNL     1      46.384   3.895  13.122  0.00  0.00    +0.000 C 
BRANCH  17  23
ATOM     23  C   UNL     1      44.255   5.302  13.020  0.00  0.00    +0.000 C 
BRANCH  23  25
ATOM     24  C   UNL     1      42.212   5.710  11.737  0.00  0.00    +0.000 C 
ATOM     25  N   UNL     1      43.002   4.732  12.489  0.00  0.00    +0.000 NA
ATOM     26  C   UNL     1      43.303   3.593  11.610  0.00  0.00    +0.000 C 
ENDBRANCH  23  25
ENDBRANCH  17  23
ENDBRANCH  16  20
ENDBRANCH   1  16
TORSDOF 5
ENDMDL
MODEL 7
REMARK VINA RESULT:    -5.660      2.232      3.244
REMARK INTER + INTRA:          -8.084
REMARK INTER:                  -7.357
REMARK INTRA:                  -0.727
REMARK UNBOUND:                -0.770
REMARK  Name = 
REMARK  7 active torsions:
REMARK  status: ('A' for Active; 'I' for Inactive)
REMARK    1  A    between atoms: C_1  and  N_2
REMARK    2  A    between atoms: N_2  and  C_3
REMARK    3  A    between atoms: N_2  and  C_4
REMARK    4  A    between atoms: C_4  and  C_5
REMARK    5  A    between atoms: C_8  and  C_9
REMARK    6  A    between atoms: C_9  and  N_10
REMARK    7  A    between atoms: C_11  and  C_13
REMARK                            x       y       z     vdW  Elec       q    Type
REMARK                         _______ _______ _______ _____ _____    ______ ____
ROOT
ATOM      1  N   UNL     1      47.677   7.386  14.677  0.00  0.00    +0.000 N 
ATOM      2  C   UNL     1      48.730   6.655  15.175  0.00  0.00    +0.000 C 
ATOM      3  O   UNL     1      49.887   6.824  14.796  0.00  0.00    +0.000 OA
ATOM      4  H   UNL     1      46.745   6.998  14.789  0.00  0.00    +0.000 HD
ENDROOT
BRANCH   2   5
ATOM      5  C   UNL     1      48.415   5.707  16.250  0.00  0.00    +0.000 A 
ATOM      6  C   UNL     1      47.599   4.617  15.978  0.00  0.00    +0.000 A 
ATOM      7  S   UNL     1      47.376   3.579  17.313  0.00  0.00    +0.000 S 
ATOM      8  C   UNL     1      48.316   4.580  18.317  0.00  0.00    +0.000 A 
ATOM      9  N   UNL     1      48.513   4.271  19.625  0.00  0.00    +0.000 NA
ATOM     10  C   UNL     1      49.216   5.134  20.279  0.00  0.00    +0.000 A 
ATOM     11  N   UNL     1      49.742   6.280  19.740  0.00  0.00    +0.000 N 
ATOM     12  C   UNL     1      49.603   6.614  18.414  0.00  0.00    +0.000 A 
ATOM     13  O   UNL     1      50.132   7.619  17.946  0.00  0.00    +0.000 OA
ATOM     14  C   UNL     1      48.810   5.682  17.638  0.00  0.00    +0.000 A 
ATOM     15  H   UNL     1      50.289   6.913  20.307  0.00  0.00    +0.000 HD
ENDBRANCH   2   5
BRANCH   1  16
ATOM     16  C   UNL     1      47.860   8.341  13.605  0.00  0.00    +0.000 C 
BRANCH  16  20
ATOM     17  C   UNL     1      44.803   6.276  11.255  0.00  0.00    +0.000 C 
ATOM     18  C   UNL     1      44.512   7.726  11.663  0.00  0.00    +0.000 C 
ATOM     19  C   UNL     1      45.466   8.260  12.730  0.00  0.00    +0.000 C 
ATOM     20  C   UNL     1      46.954   8.061  12.389  0.00  0.00    +0.000 C 
ATOM     21  C   UNL     1      47.256   6.647  11.864  0.00  0.00    +0.000 C 
ATOM     22  C   UNL     1      46.268   6.173  10.803  0.00  0.00    +0.000 C 
BRANCH  17  23
ATOM     23  C   UNL     1      44.473   5.232  12.356  0.00  0.00    +0.000 C 
BRANCH  23  25
ATOM     24  C   UNL     1      45.833   3.249  12.811  0.00  0.00    +0.000 C 
ATOM     25  N   UNL     1      44.753   3.826  12.007  0.00  0.00    +0.000 NA
ATOM     26  C   UNL     1      43.542   3.014  12.192  0.00  0.00    +0.000 C 
ENDBRANCH  23  25
ENDBRANCH  17  23
ENDBRANCH  16  20
ENDBRANCH   1  16
TORSDOF 5
ENDMDL
MODEL 8
REMARK VINA RESULT:    -5.646      2.979      8.600
REMARK INTER + INTRA:          -8.066
REMARK INTER:                  -7.474
REMARK INTRA:                  -0.592
REMARK UNBOUND:                -0.770
REMARK  Name = 
REMARK  7 active torsions:
REMARK  status: ('A' for Active; 'I' for Inactive)
REMARK    1  A    between atoms: C_1  and  N_2
REMARK    2  A    between atoms: N_2  and  C_3
REMARK    3  A    between atoms: N_2  and  C_4
REMARK    4  A    between atoms: C_4  and  C_5
REMARK    5  A    between atoms: C_8  and  C_9
REMARK    6  A    between atoms: C_9  and  N_10
REMARK    7  A    between atoms: C_11  and  C_13
REMARK                            x       y       z     vdW  Elec       q    Type
REMARK                         _______ _______ _______ _____ _____    ______ ____
ROOT
ATOM      1  N   UNL     1      46.930   5.392  14.740  0.00  0.00    +0.000 N 
ATOM      2  C   UNL     1      46.856   4.382  13.810  0.00  0.00    +0.000 C 
ATOM      3  O   UNL     1      47.710   3.503  13.721  0.00  0.00    +0.000 OA
ATOM      4  H   UNL     1      46.388   6.231  14.562  0.00  0.00    +0.000 HD
ENDROOT
BRANCH   2   5
ATOM      5  C   UNL     1      45.653   4.357  12.970  0.00  0.00    +0.000 A 
ATOM      6  C   UNL     1      45.102   3.135  12.605  0.00  0.00    +0.000 A 
ATOM      7  S   UNL     1      43.677   3.276  11.679  0.00  0.00    +0.000 S 
ATOM      8  C   UNL     1      43.777   4.975  11.685  0.00  0.00    +0.000 A 
ATOM      9  N   UNL     1      42.852   5.732  11.037  0.00  0.00    +0.000 NA
ATOM     10  C   UNL     1      43.068   7.003  11.093  0.00  0.00    +0.000 A 
ATOM     11  N   UNL     1      44.126   7.587  11.741  0.00  0.00    +0.000 N 
ATOM     12  C   UNL     1      45.063   6.865  12.443  0.00  0.00    +0.000 A 
ATOM     13  O   UNL     1      45.968   7.419  13.060  0.00  0.00    +0.000 OA
ATOM     14  C   UNL     1      44.873   5.429  12.400  0.00  0.00    +0.000 A 
ATOM     15  H   UNL     1      44.235   8.591  11.751  0.00  0.00    +0.000 HD
ENDBRANCH   2   5
BRANCH   1  16
ATOM     16  C   UNL     1      48.075   5.530  15.615  0.00  0.00    +0.000 C 
BRANCH  16  20
ATOM     17  C   UNL     1      49.004   4.483  19.759  0.00  0.00    +0.000 C 
ATOM     18  C   UNL     1      48.048   5.662  19.532  0.00  0.00    +0.000 C 
ATOM     19  C   UNL     1      48.027   6.157  18.086  0.00  0.00    +0.000 C 
ATOM     20  C   UNL     1      47.798   5.041  17.050  0.00  0.00    +0.000 C 
ATOM     21  C   UNL     1      48.661   3.797  17.322  0.00  0.00    +0.000 C 
ATOM     22  C   UNL     1      48.640   3.354  18.782  0.00  0.00    +0.000 C 
BRANCH  17  23
ATOM     23  C   UNL     1      50.507   4.861  19.656  0.00  0.00    +0.000 C 
BRANCH  23  25
ATOM     24  C   UNL     1      52.723   4.772  20.689  0.00  0.00    +0.000 C 
ATOM     25  N   UNL     1      51.276   4.767  20.913  0.00  0.00    +0.000 NA
ATOM     26  C   UNL     1      50.931   5.890  21.796  0.00  0.00    +0.000 C 
ENDBRANCH  23  25
ENDBRANCH  17  23
ENDBRANCH  16  20
ENDBRANCH   1  16
TORSDOF 5
ENDMDL
