MODEL 1
REMARK VINA RESULT:    -8.407      0.000      0.000
REMARK INTER + INTRA:         -13.496
REMARK INTER:                 -12.339
REMARK INTRA:                  -1.156
REMARK UNBOUND:                -1.156
REMARK  Name = 
REMARK  9 active torsions:
REMARK  status: ('A' for Active; 'I' for Inactive)
REMARK    1  A    between atoms: C_1  and  C_2
REMARK    2  A    between atoms: C_2  and  C_3
REMARK    3  A    between atoms: C_2  and  C_14
REMARK    4  A    between atoms: C_3  and  O_4
REMARK    5  A    between atoms: O_4  and  C_5
REMARK    6  A    between atoms: C_8  and  C_9
REMARK    7  A    between atoms: C_18  and  C_19
REMARK    8  A    between atoms: C_24  and  O_25
REMARK    9  A    between atoms: O_25  and  C_26
REMARK                            x       y       z     vdW  Elec       q    Type
REMARK                         _______ _______ _______ _____ _____    ______ ____
ROOT
ATOM      1  C   UNL     1      44.749   5.131  12.879  0.00  0.00    +0.000 A 
ATOM      2  C   UNL     1      45.831   4.478  13.485  0.00  0.00    +0.000 A 
ATOM      3  C   UNL     1      46.976   5.186  13.827  0.00  0.00    +0.000 A 
ATOM      4  C   UNL     1      47.066   6.550  13.549  0.00  0.00    +0.000 A 
ATOM      5  C   UNL     1      46.027   7.245  12.896  0.00  0.00    +0.000 A 
ATOM      6  C   UNL     1      44.871   6.504  12.584  0.00  0.00    +0.000 A 
ENDROOT
BRANCH   5   7
ATOM      7  C   UNL     1      46.207   8.657  12.441  0.00  0.00    +0.000 A 
ATOM      8  C   UNL     1      45.065   9.376  12.018  0.00  0.00    +0.000 A 
ATOM      9  C   UNL     1      45.123  10.724  11.663  0.00  0.00    +0.000 A 
ATOM     10  C   UNL     1      46.318  11.411  11.782  0.00  0.00    +0.000 A 
ATOM     11  C   UNL     1      47.466  10.738  12.201  0.00  0.00    +0.000 A 
ATOM     12  C   UNL     1      47.442   9.358  12.458  0.00  0.00    +0.000 A 
BRANCH  12  13
ATOM     13  O   UNL     1      48.568   8.635  12.741  0.00  0.00    +0.000 OA
BRANCH  13  14
ATOM     14  C   UNL     1      49.370   8.133  11.682  0.00  0.00    +0.000 C 
ATOM     15  F   UNL     1      48.674   7.475  10.730  0.00  0.00    +0.000 F 
ATOM     16  F   UNL     1      50.050   9.149  11.105  0.00  0.00    +0.000 F 
ATOM     17  F   UNL     1      50.272   7.266  12.196  0.00  0.00    +0.000 F 
ENDBRANCH  13  14
ENDBRANCH  12  13
ENDBRANCH   5   7
BRANCH   1  19
ATOM     18  C   UNL     1      42.453   5.402  11.935  0.00  0.00    +0.000 C 
ATOM     19  C   UNL     1      43.481   4.397  12.462  0.00  0.00    +0.000 C 
BRANCH  19  20
ATOM     20  C   UNL     1      43.750   3.283  11.436  0.00  0.00    +0.000 C 
BRANCH  20  21
ATOM     21  O   UNL     1      43.552   3.755  10.096  0.00  0.00    +0.000 OA
BRANCH  21  22
ATOM     22  C   UNL     1      44.531   3.275   9.248  0.00  0.00    +0.000 A 
ATOM     23  C   UNL     1      45.176   4.189   8.432  0.00  0.00    +0.000 A 
ATOM     24  C   UNL     1      46.175   3.719   7.578  0.00  0.00    +0.000 A 
ATOM     25  C   UNL     1      46.499   2.357   7.564  0.00  0.00    +0.000 A 
ATOM     26  C   UNL     1      45.790   1.527   8.414  0.00  0.00    +0.000 A 
ATOM     27  N   UNL     1      44.817   1.954   9.253  0.00  0.00    +0.000 NA
BRANCH  25  28
ATOM     28  C   UNL     1      47.560   1.865   6.659  0.00  0.00    +0.000 C 
ATOM     29  N   UNL     1      48.653   2.649   6.418  0.00  0.00    +0.000 N 
ATOM     30  O   UNL     1      47.469   0.775   6.114  0.00  0.00    +0.000 OA
ATOM     31  H   UNL     1      48.832   3.569   6.794  0.00  0.00    +0.000 HD
ATOM     32  H   UNL     1      49.347   2.258   5.784  0.00  0.00    +0.000 HD
ENDBRANCH  25  28
ENDBRANCH  21  22
ENDBRANCH  20  21
ENDBRANCH  19  20
ENDBRANCH   1  19
TORSDOF 8
ENDMDL
MODEL 2
REMARK VINA RESULT:    -8.373      1.835      2.785
REMARK INTER + INTRA:         -13.445
REMARK INTER:                 -11.554
REMARK INTRA:                  -1.891
REMARK UNBOUND:                -1.156
REMARK  Name = 
REMARK  9 active torsions:
REMARK  status: ('A' for Active; 'I' for Inactive)
REMARK    1  A    between atoms: C_1  and  C_2
REMARK    2  A    between atoms: C_2  and  C_3
REMARK    3  A    between atoms: C_2  and  C_14
REMARK    4  A    between atoms: C_3  and  O_4
REMARK    5  A    between atoms: O_4  and  C_5
REMARK    6  A    between atoms: C_8  and  C_9
REMARK    7  A    between atoms: C_18  and  C_19
REMARK    8  A    between atoms: C_24  and  O_25
REMARK    9  A    between atoms: O_25  and  C_26
REMARK                            x       y       z     vdW  Elec       q    Type
REMARK                         _______ _______ _______ _____ _____    ______ ____
ROOT
ATOM      1  C   UNL     1      45.865   5.003  12.845  0.00  0.00    +0.000 A 
ATOM      2  C   UNL     1      46.297   4.430  14.049  0.00  0.00    +0.000 A 
ATOM      3  C   UNL     1      47.330   5.012  14.773  0.00  0.00    +0.000 A 
ATOM      4  C   UNL     1      47.959   6.161  14.295  0.00  0.00    +0.000 A 
ATOM      5  C   UNL     1      47.597   6.750  13.066  0.00  0.00    +0.000 A 
ATOM      6  C   UNL     1      46.533   6.149  12.368  0.00  0.00    +0.000 A 
ENDROOT
BRANCH   5   7
ATOM      7  C   UNL     1      48.396   7.867  12.477  0.00  0.00    +0.000 A 
ATOM      8  C   UNL     1      49.677   7.573  11.954  0.00  0.00    +0.000 A 
ATOM      9  C   UNL     1      50.454   8.531  11.304  0.00  0.00    +0.000 A 
ATOM     10  C   UNL     1      49.944   9.803  11.103  0.00  0.00    +0.000 A 
ATOM     11  C   UNL     1      48.683  10.130  11.600  0.00  0.00    +0.000 A 
ATOM     12  C   UNL     1      47.938   9.205  12.347  0.00  0.00    +0.000 A 
BRANCH  12  13
ATOM     13  O   UNL     1      46.759   9.525  12.964  0.00  0.00    +0.000 OA
BRANCH  13  14
ATOM     14  C   UNL     1      45.590   9.739  12.186  0.00  0.00    +0.000 C 
ATOM     15  F   UNL     1      45.484   8.920  11.118  0.00  0.00    +0.000 F 
ATOM     16  F   UNL     1      44.494   9.591  12.963  0.00  0.00    +0.000 F 
ATOM     17  F   UNL     1      45.606  11.010  11.723  0.00  0.00    +0.000 F 
ENDBRANCH  13  14
ENDBRANCH  12  13
ENDBRANCH   5   7
BRANCH   1  19
ATOM     18  C   UNL     1      43.618   3.915  12.911  0.00  0.00    +0.000 C 
ATOM     19  C   UNL     1      44.755   4.390  12.000  0.00  0.00    +0.000 C 
BRANCH  19  20
ATOM     20  C   UNL     1      44.239   5.345  10.913  0.00  0.00    +0.000 C 
BRANCH  20  21
ATOM     21  O   UNL     1      43.659   4.619   9.820  0.00  0.00    +0.000 OA
BRANCH  21  22
ATOM     22  C   UNL     1      44.625   3.943   9.100  0.00  0.00    +0.000 A 
ATOM     23  C   UNL     1      44.643   2.562   9.193  0.00  0.00    +0.000 A 
ATOM     24  C   UNL     1      45.607   1.865   8.461  0.00  0.00    +0.000 A 
ATOM     25  C   UNL     1      46.519   2.566   7.663  0.00  0.00    +0.000 A 
ATOM     26  C   UNL     1      46.419   3.945   7.645  0.00  0.00    +0.000 A 
ATOM     27  N   UNL     1      45.495   4.648   8.343  0.00  0.00    +0.000 NA
BRANCH  25  28
ATOM     28  C   UNL     1      47.537   1.823   6.888  0.00  0.00    +0.000 C 
ATOM     29  N   UNL     1      48.575   2.505   6.319  0.00  0.00    +0.000 N 
ATOM     30  O   UNL     1      47.456   0.613   6.738  0.00  0.00    +0.000 OA
ATOM     31  H   UNL     1      48.739   3.500   6.358  0.00  0.00    +0.000 HD
ATOM     32  H   UNL     1      49.240   1.940   5.795  0.00  0.00    +0.000 HD
ENDBRANCH  25  28
ENDBRANCH  21  22
ENDBRANCH  20  21
ENDBRANCH  19  20
ENDBRANCH   1  19
TORSDOF 8
ENDMDL
MODEL 3
REMARK VINA RESULT:    -8.364      2.999      4.417
REMARK INTER + INTRA:         -13.432
REMARK INTER:                 -12.130
REMARK INTRA:                  -1.302
REMARK UNBOUND:                -1.156
REMARK  Name = 
REMARK  9 active torsions:
REMARK  status: ('A' for Active; 'I' for Inactive)
REMARK    1  A    between atoms: C_1  and  C_2
REMARK    2  A    between atoms: C_2  and  C_3
REMARK    3  A    between atoms: C_2  and  C_14
REMARK    4  A    between atoms: C_3  and  O_4
REMARK    5  A    between atoms: O_4  and  C_5
REMARK    6  A    between atoms: C_8  and  C_9
REMARK    7  A    between atoms: C_18  and  C_19
REMARK    8  A    between atoms: C_24  and  O_25
REMARK    9  A    between atoms: O_25  and  C_26
REMARK                            x       y       z     vdW  Elec       q    Type
REMARK                         _______ _______ _______ _____ _____    ______ ____
ROOT
ATOM      1  C   UNL     1      46.125   6.210  12.417  0.00  0.00    +0.000 A 
ATOM      2  C   UNL     1      45.569   7.495  12.359  0.00  0.00    +0.000 A 
ATOM      3  C   UNL     1      46.156   8.546  13.053  0.00  0.00    +0.000 A 
ATOM      4  C   UNL     1      47.292   8.325  13.831  0.00  0.00    +0.000 A 
ATOM      5  C   UNL     1      47.862   7.042  13.965  0.00  0.00    +0.000 A 
ATOM      6  C   UNL     1      47.258   6.003  13.231  0.00  0.00    +0.000 A 
ENDROOT
BRANCH   5   7
ATOM      7  C   UNL     1      48.962   6.781  14.941  0.00  0.00    +0.000 A 
ATOM      8  C   UNL     1      50.215   7.400  14.722  0.00  0.00    +0.000 A 
ATOM      9  C   UNL     1      51.270   7.288  15.627  0.00  0.00    +0.000 A 
ATOM     10  C   UNL     1      51.081   6.602  16.815  0.00  0.00    +0.000 A 
ATOM     11  C   UNL     1      49.858   5.983  17.071  0.00  0.00    +0.000 A 
ATOM     12  C   UNL     1      48.826   5.999  16.120  0.00  0.00    +0.000 A 
BRANCH  12  13
ATOM     13  O   UNL     1      47.663   5.295  16.272  0.00  0.00    +0.000 OA
BRANCH  13  14
ATOM     14  C   UNL     1      47.698   3.876  16.319  0.00  0.00    +0.000 C 
ATOM     15  F   UNL     1      48.893   3.367  16.688  0.00  0.00    +0.000 F 
ATOM     16  F   UNL     1      46.749   3.425  17.169  0.00  0.00    +0.000 F 
ATOM     17  F   UNL     1      47.416   3.396  15.086  0.00  0.00    +0.000 F 
ENDBRANCH  13  14
ENDBRANCH  12  13
ENDBRANCH   5   7
BRANCH   1  19
ATOM     18  C   UNL     1      44.922   4.043  12.723  0.00  0.00    +0.000 C 
ATOM     19  C   UNL     1      45.506   5.019  11.697  0.00  0.00    +0.000 C 
BRANCH  19  20
ATOM     20  C   UNL     1      44.452   5.435  10.658  0.00  0.00    +0.000 C 
BRANCH  20  21
ATOM     21  O   UNL     1      43.890   4.289  10.004  0.00  0.00    +0.000 OA
BRANCH  21  22
ATOM     22  C   UNL     1      44.811   3.689   9.167  0.00  0.00    +0.000 A 
ATOM     23  C   UNL     1      44.976   2.319   9.274  0.00  0.00    +0.000 A 
ATOM     24  C   UNL     1      45.894   1.698   8.425  0.00  0.00    +0.000 A 
ATOM     25  C   UNL     1      46.617   2.461   7.500  0.00  0.00    +0.000 A 
ATOM     26  C   UNL     1      46.381   3.824   7.479  0.00  0.00    +0.000 A 
ATOM     27  N   UNL     1      45.497   4.453   8.289  0.00  0.00    +0.000 NA
BRANCH  25  28
ATOM     28  C   UNL     1      47.588   1.798   6.602  0.00  0.00    +0.000 C 
ATOM     29  N   UNL     1      48.725   2.462   6.237  0.00  0.00    +0.000 N 
ATOM     30  O   UNL     1      47.382   0.674   6.170  0.00  0.00    +0.000 OA
ATOM     31  H   UNL     1      48.995   3.396   6.513  0.00  0.00    +0.000 HD
ATOM     32  H   UNL     1      49.352   1.957   5.614  0.00  0.00    +0.000 HD
ENDBRANCH  25  28
ENDBRANCH  21  22
ENDBRANCH  20  21
ENDBRANCH  19  20
ENDBRANCH   1  19
TORSDOF 8
ENDMDL
MODEL 4
REMARK VINA RESULT:    -8.246      2.369      4.094
REMARK INTER + INTRA:         -13.259
REMARK INTER:                 -12.105
REMARK INTRA:                  -1.155
REMARK UNBOUND:                -1.156
REMARK  Name = 
REMARK  9 active torsions:
REMARK  status: ('A' for Active; 'I' for Inactive)
REMARK    1  A    between atoms: C_1  and  C_2
REMARK    2  A    between atoms: C_2  and  C_3
REMARK    3  A    between atoms: C_2  and  C_14
REMARK    4  A    between atoms: C_3  and  O_4
REMARK    5  A    between atoms: O_4  and  C_5
REMARK    6  A    between atoms: C_8  and  C_9
REMARK    7  A    between atoms: C_18  and  C_19
REMARK    8  A    between atoms: C_24  and  O_25
REMARK    9  A    between atoms: O_25  and  C_26
REMARK                            x       y       z     vdW  Elec       q    Type
REMARK                         _______ _______ _______ _____ _____    ______ ____
ROOT
ATOM      1  C   UNL     1      45.117   4.973  12.613  0.00  0.00    +0.000 A 
ATOM      2  C   UNL     1      45.736   5.910  11.774  0.00  0.00    +0.000 A 
ATOM      3  C   UNL     1      46.999   6.400  12.081  0.00  0.00    +0.000 A 
ATOM      4  C   UNL     1      47.652   5.980  13.239  0.00  0.00    +0.000 A 
ATOM      5  C   UNL     1      47.054   5.077  14.143  0.00  0.00    +0.000 A 
ATOM      6  C   UNL     1      45.784   4.581  13.792  0.00  0.00    +0.000 A 
ENDROOT
BRANCH   5   7
ATOM      7  C   UNL     1      47.681   4.776  15.465  0.00  0.00    +0.000 A 
ATOM      8  C   UNL     1      47.591   3.457  15.966  0.00  0.00    +0.000 A 
ATOM      9  C   UNL     1      48.223   3.063  17.145  0.00  0.00    +0.000 A 
ATOM     10  C   UNL     1      49.019   3.966  17.828  0.00  0.00    +0.000 A 
ATOM     11  C   UNL     1      49.138   5.275  17.364  0.00  0.00    +0.000 A 
ATOM     12  C   UNL     1      48.421   5.711  16.238  0.00  0.00    +0.000 A 
BRANCH  12  13
ATOM     13  O   UNL     1      48.404   7.016  15.827  0.00  0.00    +0.000 OA
BRANCH  13  14
ATOM     14  C   UNL     1      49.627   7.697  15.587  0.00  0.00    +0.000 C 
ATOM     15  F   UNL     1      49.538   8.677  14.662  0.00  0.00    +0.000 F 
ATOM     16  F   UNL     1      50.088   8.225  16.743  0.00  0.00    +0.000 F 
ATOM     17  F   UNL     1      50.539   6.802  15.143  0.00  0.00    +0.000 F 
ENDBRANCH  13  14
ENDBRANCH  12  13
ENDBRANCH   5   7
BRANCH   1  19
ATOM     18  C   UNL     1      42.791   5.568  11.925  0.00  0.00    +0.000 C 
ATOM     19  C   UNL     1      43.723   4.424  12.336  0.00  0.00    +0.000 C 
BRANCH  19  20
ATOM     20  C   UNL     1      43.724   3.300  11.288  0.00  0.00    +0.000 C 
BRANCH  20  21
ATOM     21  O   UNL     1      43.574   3.829   9.963  0.00  0.00    +0.000 OA
BRANCH  21  22
ATOM     22  C   UNL     1      44.571   3.368   9.124  0.00  0.00    +0.000 A 
ATOM     23  C   UNL     1      44.885   2.021   9.183  0.00  0.00    +0.000 A 
ATOM     24  C   UNL     1      45.882   1.540   8.333  0.00  0.00    +0.000 A 
ATOM     25  C   UNL     1      46.533   2.414   7.454  0.00  0.00    +0.000 A 
ATOM     26  C   UNL     1      46.148   3.742   7.480  0.00  0.00    +0.000 A 
ATOM     27  N   UNL     1      45.184   4.238   8.292  0.00  0.00    +0.000 NA
BRANCH  25  28
ATOM     28  C   UNL     1      47.587   1.898   6.554  0.00  0.00    +0.000 C 
ATOM     29  N   UNL     1      48.691   2.665   6.306  0.00  0.00    +0.000 N 
ATOM     30  O   UNL     1      47.481   0.805   6.018  0.00  0.00    +0.000 OA
ATOM     31  H   UNL     1      48.882   3.586   6.674  0.00  0.00    +0.000 HD
ATOM     32  H   UNL     1      49.379   2.259   5.676  0.00  0.00    +0.000 HD
ENDBRANCH  25  28
ENDBRANCH  21  22
ENDBRANCH  20  21
ENDBRANCH  19  20
ENDBRANCH   1  19
TORSDOF 8
ENDMDL
MODEL 5
REMARK VINA RESULT:    -8.228      4.022      7.771
REMARK INTER + INTRA:         -13.233
REMARK INTER:                 -11.637
REMARK INTRA:                  -1.596
REMARK UNBOUND:                -1.156
REMARK  Name = 
REMARK  9 active torsions:
REMARK  status: ('A' for Active; 'I' for Inactive)
REMARK    1  A    between atoms: C_1  and  C_2
REMARK    2  A    between atoms: C_2  and  C_3
REMARK    3  A    between atoms: C_2  and  C_14
REMARK    4  A    between atoms: C_3  and  O_4
REMARK    5  A    between atoms: O_4  and  C_5
REMARK    6  A    between atoms: C_8  and  C_9
REMARK    7  A    between atoms: C_18  and  C_19
REMARK    8  A    between atoms: C_24  and  O_25
REMARK    9  A    between atoms: O_25  and  C_26
REMARK                            x       y       z     vdW  Elec       q    Type
REMARK                         _______ _______ _______ _____ _____    ______ ____
ROOT
ATOM      1  C   UNL     1      47.034   7.713  12.145  0.00  0.00    +0.000 A 
ATOM      2  C   UNL     1      45.962   8.561  12.456  0.00  0.00    +0.000 A 
ATOM      3  C   UNL     1      44.672   8.238  12.054  0.00  0.00    +0.000 A 
ATOM      4  C   UNL     1      44.437   7.076  11.319  0.00  0.00    +0.000 A 
ATOM      5  C   UNL     1      45.485   6.214  10.937  0.00  0.00    +0.000 A 
ATOM      6  C   UNL     1      46.777   6.557  11.379  0.00  0.00    +0.000 A 
ENDROOT
BRANCH   5   7
ATOM      7  C   UNL     1      45.249   5.076   9.998  0.00  0.00    +0.000 A 
ATOM      8  C   UNL     1      46.001   5.025   8.802  0.00  0.00    +0.000 A 
ATOM      9  C   UNL     1      45.914   3.955   7.912  0.00  0.00    +0.000 A 
ATOM     10  C   UNL     1      45.114   2.870   8.225  0.00  0.00    +0.000 A 
ATOM     11  C   UNL     1      44.360   2.879   9.398  0.00  0.00    +0.000 A 
ATOM     12  C   UNL     1      44.359   3.997  10.248  0.00  0.00    +0.000 A 
BRANCH  12  13
ATOM     13  O   UNL     1      43.536   4.103  11.336  0.00  0.00    +0.000 OA
BRANCH  13  14
ATOM     14  C   UNL     1      43.809   3.343  12.504  0.00  0.00    +0.000 C 
ATOM     15  F   UNL     1      43.341   2.078  12.459  0.00  0.00    +0.000 F 
ATOM     16  F   UNL     1      45.143   3.310  12.724  0.00  0.00    +0.000 F 
ATOM     17  F   UNL     1      43.226   3.953  13.561  0.00  0.00    +0.000 F 
ENDBRANCH  13  14
ENDBRANCH  12  13
ENDBRANCH   5   7
BRANCH   1  19
ATOM     18  C   UNL     1      48.981   9.213  11.704  0.00  0.00    +0.000 C 
ATOM     19  C   UNL     1      48.470   8.034  12.538  0.00  0.00    +0.000 C 
BRANCH  19  20
ATOM     20  C   UNL     1      48.628   8.304  14.043  0.00  0.00    +0.000 C 
BRANCH  20  21
ATOM     21  O   UNL     1      49.672   7.499  14.606  0.00  0.00    +0.000 OA
BRANCH  21  22
ATOM     22  C   UNL     1      49.155   6.485  15.390  0.00  0.00    +0.000 A 
ATOM     23  C   UNL     1      49.713   6.295  16.642  0.00  0.00    +0.000 A 
ATOM     24  C   UNL     1      49.192   5.281  17.448  0.00  0.00    +0.000 A 
ATOM     25  C   UNL     1      48.134   4.491  16.981  0.00  0.00    +0.000 A 
ATOM     26  C   UNL     1      47.654   4.760  15.712  0.00  0.00    +0.000 A 
ATOM     27  N   UNL     1      48.138   5.736  14.908  0.00  0.00    +0.000 NA
BRANCH  25  28
ATOM     28  C   UNL     1      47.584   3.420  17.840  0.00  0.00    +0.000 C 
ATOM     29  N   UNL     1      48.227   3.096  19.002  0.00  0.00    +0.000 N 
ATOM     30  O   UNL     1      46.573   2.812  17.522  0.00  0.00    +0.000 OA
ATOM     31  H   UNL     1      49.075   3.512  19.361  0.00  0.00    +0.000 HD
ATOM     32  H   UNL     1      47.804   2.348  19.548  0.00  0.00    +0.000 HD
ENDBRANCH  25  28
ENDBRANCH  21  22
ENDBRANCH  20  21
ENDBRANCH  19  20
ENDBRANCH   1  19
TORSDOF 8
ENDMDL
MODEL 6
REMARK VINA RESULT:    -8.150      1.946      3.074
REMARK INTER + INTRA:         -13.117
REMARK INTER:                 -11.426
REMARK INTRA:                  -1.691
REMARK UNBOUND:                -1.156
REMARK  Name = 
REMARK  9 active torsions:
REMARK  status: ('A' for Active; 'I' for Inactive)
REMARK    1  A    between atoms: C_1  and  C_2
REMARK    2  A    between atoms: C_2  and  C_3
REMARK    3  A    between atoms: C_2  and  C_14
REMARK    4  A    between atoms: C_3  and  O_4
REMARK    5  A    between atoms: O_4  and  C_5
REMARK    6  A    between atoms: C_8  and  C_9
REMARK    7  A    between atoms: C_18  and  C_19
REMARK    8  A    between atoms: C_24  and  O_25
REMARK    9  A    between atoms: O_25  and  C_26
REMARK                            x       y       z     vdW  Elec       q    Type
REMARK                         _______ _______ _______ _____ _____    ______ ____
ROOT
ATOM      1  C   UNL     1      45.771   6.070  11.969  0.00  0.00    +0.000 A 
ATOM      2  C   UNL     1      44.775   6.937  12.439  0.00  0.00    +0.000 A 
ATOM      3  C   UNL     1      45.078   8.261  12.731  0.00  0.00    +0.000 A 
ATOM      4  C   UNL     1      46.381   8.732  12.578  0.00  0.00    +0.000 A 
ATOM      5  C   UNL     1      47.431   7.890  12.156  0.00  0.00    +0.000 A 
ATOM      6  C   UNL     1      47.087   6.560  11.846  0.00  0.00    +0.000 A 
ENDROOT
BRANCH   5   7
ATOM      7  C   UNL     1      48.851   8.354  12.171  0.00  0.00    +0.000 A 
ATOM      8  C   UNL     1      49.216   9.424  11.322  0.00  0.00    +0.000 A 
ATOM      9  C   UNL     1      50.493   9.984  11.336  0.00  0.00    +0.000 A 
ATOM     10  C   UNL     1      51.429   9.528  12.249  0.00  0.00    +0.000 A 
ATOM     11  C   UNL     1      51.106   8.478  13.107  0.00  0.00    +0.000 A 
ATOM     12  C   UNL     1      49.859   7.837  13.028  0.00  0.00    +0.000 A 
BRANCH  12  13
ATOM     13  O   UNL     1      49.549   6.721  13.756  0.00  0.00    +0.000 OA
BRANCH  13  14
ATOM     14  C   UNL     1      48.965   6.858  15.043  0.00  0.00    +0.000 C 
ATOM     15  F   UNL     1      49.740   6.402  16.050  0.00  0.00    +0.000 F 
ATOM     16  F   UNL     1      48.667   8.156  15.272  0.00  0.00    +0.000 F 
ATOM     17  F   UNL     1      47.810   6.154  15.070  0.00  0.00    +0.000 F 
ENDBRANCH  13  14
ENDBRANCH  12  13
ENDBRANCH   5   7
BRANCH   1  19
ATOM     18  C   UNL     1      45.929   3.738  12.848  0.00  0.00    +0.000 C 
ATOM     19  C   UNL     1      45.497   4.604  11.660  0.00  0.00    +0.000 C 
BRANCH  19  20
ATOM     20  C   UNL     1      44.031   4.339  11.280  0.00  0.00    +0.000 C 
BRANCH  20  21
ATOM     21  O   UNL     1      43.808   4.574   9.883  0.00  0.00    +0.000 OA
BRANCH  21  22
ATOM     22  C   UNL     1      44.740   3.909   9.109  0.00  0.00    +0.000 A 
ATOM     23  C   UNL     1      44.794   2.530   9.217  0.00  0.00    +0.000 A 
ATOM     24  C   UNL     1      45.723   1.845   8.432  0.00  0.00    +0.000 A 
ATOM     25  C   UNL     1      46.566   2.553   7.567  0.00  0.00    +0.000 A 
ATOM     26  C   UNL     1      46.435   3.930   7.541  0.00  0.00    +0.000 A 
ATOM     27  N   UNL     1      45.543   4.622   8.289  0.00  0.00    +0.000 NA
BRANCH  25  28
ATOM     28  C   UNL     1      47.547   1.822   6.736  0.00  0.00    +0.000 C 
ATOM     29  N   UNL     1      48.695   2.452   6.345  0.00  0.00    +0.000 N 
ATOM     30  O   UNL     1      47.341   0.671   6.383  0.00  0.00    +0.000 OA
ATOM     31  H   UNL     1      48.967   3.401   6.557  0.00  0.00    +0.000 HD
ATOM     32  H   UNL     1      49.328   1.899   5.771  0.00  0.00    +0.000 HD
ENDBRANCH  25  28
ENDBRANCH  21  22
ENDBRANCH  20  21
ENDBRANCH  19  20
ENDBRANCH   1  19
TORSDOF 8
ENDMDL
MODEL 7
REMARK VINA RESULT:    -8.108      1.851      3.244
REMARK INTER + INTRA:         -13.056
REMARK INTER:                 -11.366
REMARK INTRA:                  -1.691
REMARK UNBOUND:                -1.156
REMARK  Name = 
REMARK  9 active torsions:
REMARK  status: ('A' for Active; 'I' for Inactive)
REMARK    1  A    between atoms: C_1  and  C_2
REMARK    2  A    between atoms: C_2  and  C_3
REMARK    3  A    between atoms: C_2  and  C_14
REMARK    4  A    between atoms: C_3  and  O_4
REMARK    5  A    between atoms: O_4  and  C_5
REMARK    6  A    between atoms: C_8  and  C_9
REMARK    7  A    between atoms: C_18  and  C_19
REMARK    8  A    between atoms: C_24  and  O_25
REMARK    9  A    between atoms: O_25  and  C_26
REMARK                            x       y       z     vdW  Elec       q    Type
REMARK                         _______ _______ _______ _____ _____    ______ ____
ROOT
ATOM      1  C   UNL     1      45.866   6.318  12.344  0.00  0.00    +0.000 A 
ATOM      2  C   UNL     1      45.137   7.515  12.327  0.00  0.00    +0.000 A 
ATOM      3  C   UNL     1      45.647   8.656  12.935  0.00  0.00    +0.000 A 
ATOM      4  C   UNL     1      46.879   8.612  13.586  0.00  0.00    +0.000 A 
ATOM      5  C   UNL     1      47.630   7.422  13.676  0.00  0.00    +0.000 A 
ATOM      6  C   UNL     1      47.097   6.290  13.030  0.00  0.00    +0.000 A 
ENDROOT
BRANCH   5   7
ATOM      7  C   UNL     1      48.855   7.341  14.528  0.00  0.00    +0.000 A 
ATOM      8  C   UNL     1      48.807   6.548  15.697  0.00  0.00    +0.000 A 
ATOM      9  C   UNL     1      49.926   6.340  16.503  0.00  0.00    +0.000 A 
ATOM     10  C   UNL     1      51.147   6.872  16.126  0.00  0.00    +0.000 A 
ATOM     11  C   UNL     1      51.237   7.656  14.976  0.00  0.00    +0.000 A 
ATOM     12  C   UNL     1      50.096   7.959  14.217  0.00  0.00    +0.000 A 
BRANCH  12  13
ATOM     13  O   UNL     1      50.114   8.830  13.162  0.00  0.00    +0.000 OA
BRANCH  13  14
ATOM     14  C   UNL     1      50.227   8.330  11.837  0.00  0.00    +0.000 C 
ATOM     15  F   UNL     1      50.324   6.986  11.763  0.00  0.00    +0.000 F 
ATOM     16  F   UNL     1      49.163   8.734  11.107  0.00  0.00    +0.000 F 
ATOM     17  F   UNL     1      51.341   8.850  11.273  0.00  0.00    +0.000 F 
ENDBRANCH  13  14
ENDBRANCH  12  13
ENDBRANCH   5   7
BRANCH   1  19
ATOM     18  C   UNL     1      44.863   4.080  12.816  0.00  0.00    +0.000 C 
ATOM     19  C   UNL     1      45.341   5.033  11.716  0.00  0.00    +0.000 C 
BRANCH  19  20
ATOM     20  C   UNL     1      44.236   5.287  10.678  0.00  0.00    +0.000 C 
BRANCH  20  21
ATOM     21  O   UNL     1      43.782   4.058  10.095  0.00  0.00    +0.000 OA
BRANCH  21  22
ATOM     22  C   UNL     1      44.724   3.538   9.227  0.00  0.00    +0.000 A 
ATOM     23  C   UNL     1      44.977   2.179   9.298  0.00  0.00    +0.000 A 
ATOM     24  C   UNL     1      45.918   1.639   8.419  0.00  0.00    +0.000 A 
ATOM     25  C   UNL     1      46.574   2.468   7.501  0.00  0.00    +0.000 A 
ATOM     26  C   UNL     1      46.252   3.813   7.518  0.00  0.00    +0.000 A 
ATOM     27  N   UNL     1      45.344   4.366   8.357  0.00  0.00    +0.000 NA
BRANCH  25  28
ATOM     28  C   UNL     1      47.568   1.890   6.571  0.00  0.00    +0.000 C 
ATOM     29  N   UNL     1      48.669   2.623   6.226  0.00  0.00    +0.000 N 
ATOM     30  O   UNL     1      47.414   0.775   6.096  0.00  0.00    +0.000 OA
ATOM     31  H   UNL     1      48.896   3.556   6.537  0.00  0.00    +0.000 HD
ATOM     32  H   UNL     1      49.314   2.174   5.580  0.00  0.00    +0.000 HD
ENDBRANCH  25  28
ENDBRANCH  21  22
ENDBRANCH  20  21
ENDBRANCH  19  20
ENDBRANCH   1  19
TORSDOF 8
ENDMDL
MODEL 8
REMARK VINA RESULT:    -8.059      1.951      3.012
REMARK INTER + INTRA:         -12.984
REMARK INTER:                 -10.597
REMARK INTRA:                  -2.387
REMARK UNBOUND:                -1.156
REMARK  Name = 
REMARK  9 active torsions:
REMARK  status: ('A' for Active; 'I' for Inactive)
REMARK    1  A    between atoms: C_1  and  C_2
REMARK    2  A    between atoms: C_2  and  C_3
REMARK    3  A    between atoms: C_2  and  C_14
REMARK    4  A    between atoms: C_3  and  O_4
REMARK    5  A    between atoms: O_4  and  C_5
REMARK    6  A    between atoms: C_8  and  C_9
REMARK    7  A    between atoms: C_18  and  C_19
REMARK    8  A    between atoms: C_24  and  O_25
REMARK    9  A    between atoms: O_25  and  C_26
REMARK                            x       y       z     vdW  Elec       q    Type
REMARK                         _______ _______ _______ _____ _____    ______ ____
ROOT
ATOM      1  C   UNL     1      45.197   5.034  12.764  0.00  0.00    +0.000 A 
ATOM      2  C   UNL     1      45.487   3.663  12.734  0.00  0.00    +0.000 A 
ATOM      3  C   UNL     1      46.595   3.165  13.408  0.00  0.00    +0.000 A 
ATOM      4  C   UNL     1      47.440   4.030  14.102  0.00  0.00    +0.000 A 
ATOM      5  C   UNL     1      47.223   5.424  14.122  0.00  0.00    +0.000 A 
ATOM      6  C   UNL     1      46.079   5.893  13.450  0.00  0.00    +0.000 A 
ENDROOT
BRANCH   5   7
ATOM      7  C   UNL     1      48.231   6.356  14.711  0.00  0.00    +0.000 A 
ATOM      8  C   UNL     1      48.141   6.658  16.090  0.00  0.00    +0.000 A 
ATOM      9  C   UNL     1      49.089   7.444  16.744  0.00  0.00    +0.000 A 
ATOM     10  C   UNL     1      50.195   7.901  16.047  0.00  0.00    +0.000 A 
ATOM     11  C   UNL     1      50.323   7.621  14.688  0.00  0.00    +0.000 A 
ATOM     12  C   UNL     1      49.321   6.921  13.996  0.00  0.00    +0.000 A 
BRANCH  12  13
ATOM     13  O   UNL     1      49.341   6.740  12.640  0.00  0.00    +0.000 OA
BRANCH  13  14
ATOM     14  C   UNL     1      48.754   7.713  11.789  0.00  0.00    +0.000 C 
ATOM     15  F   UNL     1      48.142   8.722  12.447  0.00  0.00    +0.000 F 
ATOM     16  F   UNL     1      49.698   8.231  10.972  0.00  0.00    +0.000 F 
ATOM     17  F   UNL     1      47.822   7.107  11.019  0.00  0.00    +0.000 F 
ENDBRANCH  13  14
ENDBRANCH  12  13
ENDBRANCH   5   7
BRANCH   1  19
ATOM     18  C   UNL     1      44.448   6.907  11.292  0.00  0.00    +0.000 C 
ATOM     19  C   UNL     1      44.010   5.633  12.021  0.00  0.00    +0.000 C 
BRANCH  19  20
ATOM     20  C   UNL     1      43.347   4.637  11.056  0.00  0.00    +0.000 C 
BRANCH  20  21
ATOM     21  O   UNL     1      43.627   4.976   9.691  0.00  0.00    +0.000 OA
BRANCH  21  22
ATOM     22  C   UNL     1      44.504   4.072   9.121  0.00  0.00    +0.000 A 
ATOM     23  C   UNL     1      44.389   2.745   9.496  0.00  0.00    +0.000 A 
ATOM     24  C   UNL     1      45.262   1.820   8.920  0.00  0.00    +0.000 A 
ATOM     25  C   UNL     1      46.218   2.247   7.990  0.00  0.00    +0.000 A 
ATOM     26  C   UNL     1      46.253   3.597   7.690  0.00  0.00    +0.000 A 
ATOM     27  N   UNL     1      45.420   4.517   8.232  0.00  0.00    +0.000 NA
BRANCH  25  28
ATOM     28  C   UNL     1      47.139   1.263   7.381  0.00  0.00    +0.000 C 
ATOM     29  N   UNL     1      46.852  -0.071   7.474  0.00  0.00    +0.000 N 
ATOM     30  O   UNL     1      48.156   1.621   6.807  0.00  0.00    +0.000 OA
ATOM     31  H   UNL     1      46.056  -0.487   7.935  0.00  0.00    +0.000 HD
ATOM     32  H   UNL     1      47.525  -0.699   7.040  0.00  0.00    +0.000 HD
ENDBRANCH  25  28
ENDBRANCH  21  22
ENDBRANCH  20  21
ENDBRANCH  19  20
ENDBRANCH   1  19
TORSDOF 8
ENDMDL
MODEL 9
REMARK VINA RESULT:    -7.911      3.416      4.351
REMARK INTER + INTRA:         -12.767
REMARK INTER:                 -11.331
REMARK INTRA:                  -1.436
REMARK UNBOUND:                -1.156
REMARK  Name = 
REMARK  9 active torsions:
REMARK  status: ('A' for Active; 'I' for Inactive)
REMARK    1  A    between atoms: C_1  and  C_2
REMARK    2  A    between atoms: C_2  and  C_3
REMARK    3  A    between atoms: C_2  and  C_14
REMARK    4  A    between atoms: C_3  and  O_4
REMARK    5  A    between atoms: O_4  and  C_5
REMARK    6  A    between atoms: C_8  and  C_9
REMARK    7  A    between atoms: C_18  and  C_19
REMARK    8  A    between atoms: C_24  and  O_25
REMARK    9  A    between atoms: O_25  and  C_26
REMARK                            x       y       z     vdW  Elec       q    Type
REMARK                         _______ _______ _______ _____ _____    ______ ____
ROOT
ATOM      1  C   UNL     1      45.262   5.011  12.659  0.00  0.00    +0.000 A 
ATOM      2  C   UNL     1      45.511   3.636  12.549  0.00  0.00    +0.000 A 
ATOM      3  C   UNL     1      46.528   3.045  13.288  0.00  0.00    +0.000 A 
ATOM      4  C   UNL     1      47.324   3.821  14.130  0.00  0.00    +0.000 A 
ATOM      5  C   UNL     1      47.149   5.216  14.240  0.00  0.00    +0.000 A 
ATOM      6  C   UNL     1      46.096   5.780  13.496  0.00  0.00    +0.000 A 
ENDROOT
BRANCH   5   7
ATOM      7  C   UNL     1      48.120   6.061  14.999  0.00  0.00    +0.000 A 
ATOM      8  C   UNL     1      48.430   7.345  14.495  0.00  0.00    +0.000 A 
ATOM      9  C   UNL     1      49.252   8.237  15.183  0.00  0.00    +0.000 A 
ATOM     10  C   UNL     1      49.741   7.892  16.431  0.00  0.00    +0.000 A 
ATOM     11  C   UNL     1      49.453   6.637  16.966  0.00  0.00    +0.000 A 
ATOM     12  C   UNL     1      48.715   5.692  16.235  0.00  0.00    +0.000 A 
BRANCH  12  13
ATOM     13  O   UNL     1      48.523   4.406  16.663  0.00  0.00    +0.000 OA
BRANCH  13  14
ATOM     14  C   UNL     1      47.599   4.141  17.708  0.00  0.00    +0.000 C 
ATOM     15  F   UNL     1      46.757   5.163  17.970  0.00  0.00    +0.000 F 
ATOM     16  F   UNL     1      46.874   3.041  17.405  0.00  0.00    +0.000 F 
ATOM     17  F   UNL     1      48.291   3.885  18.842  0.00  0.00    +0.000 F 
ENDBRANCH  13  14
ENDBRANCH  12  13
ENDBRANCH   5   7
BRANCH   1  19
ATOM     18  C   UNL     1      44.799   6.841  11.024  0.00  0.00    +0.000 C 
ATOM     19  C   UNL     1      44.177   5.711  11.851  0.00  0.00    +0.000 C 
BRANCH  19  20
ATOM     20  C   UNL     1      43.379   4.744  10.962  0.00  0.00    +0.000 C 
BRANCH  20  21
ATOM     21  O   UNL     1      43.612   5.007   9.572  0.00  0.00    +0.000 OA
BRANCH  21  22
ATOM     22  C   UNL     1      44.502   4.097   9.033  0.00  0.00    +0.000 A 
ATOM     23  C   UNL     1      44.365   2.771   9.405  0.00  0.00    +0.000 A 
ATOM     24  C   UNL     1      45.251   1.840   8.859  0.00  0.00    +0.000 A 
ATOM     25  C   UNL     1      46.241   2.260   7.962  0.00  0.00    +0.000 A 
ATOM     26  C   UNL     1      46.295   3.609   7.663  0.00  0.00    +0.000 A 
ATOM     27  N   UNL     1      45.451   4.535   8.176  0.00  0.00    +0.000 NA
BRANCH  25  28
ATOM     28  C   UNL     1      47.176   1.269   7.385  0.00  0.00    +0.000 C 
ATOM     29  N   UNL     1      46.900  -0.064   7.508  0.00  0.00    +0.000 N 
ATOM     30  O   UNL     1      48.196   1.623   6.812  0.00  0.00    +0.000 OA
ATOM     31  H   UNL     1      46.103  -0.476   7.972  0.00  0.00    +0.000 HD
ATOM     32  H   UNL     1      47.582  -0.696   7.095  0.00  0.00    +0.000 HD
ENDBRANCH  25  28
ENDBRANCH  21  22
ENDBRANCH  20  21
ENDBRANCH  19  20
ENDBRANCH   1  19
TORSDOF 8
ENDMDL
