MODEL 1
REMARK VINA RESULT:    -7.565      0.000      0.000
REMARK INTER + INTRA:          -9.976
REMARK INTER:                  -9.334
REMARK INTRA:                  -0.642
REMARK UNBOUND:                -0.642
REMARK  Name = 
REMARK  4 active torsions:
REMARK  status: ('A' for Active; 'I' for Inactive)
REMARK    1  A    between atoms: C_2  and  C_4
REMARK    2  A    between atoms: C_9  and  N_10
REMARK    3  A    between atoms: N_10  and  C_11
REMARK    4  A    between atoms: C_11  and  C_12
REMARK                            x       y       z     vdW  Elec       q    Type
REMARK                         _______ _______ _______ _____ _____    ______ ____
ROOT
ATOM      1  N   UNL     1      45.478   5.880   9.918  0.00  0.00    +0.000 N 
ATOM      2  H   UNL     1      45.020   6.557   9.313  0.00  0.00    +0.000 HD
ENDROOT
BRANCH   1   8
ATOM      3  C   UNL     1      46.296   3.070   7.583  0.00  0.00    +0.000 A 
ATOM      4  C   UNL     1      45.522   2.048   8.128  0.00  0.00    +0.000 A 
ATOM      5  C   UNL     1      44.773   2.316   9.265  0.00  0.00    +0.000 A 
ATOM      6  F   UNL     1      44.010   1.346   9.787  0.00  0.00    +0.000 F 
ATOM      7  C   UNL     1      44.788   3.574   9.866  0.00  0.00    +0.000 A 
ATOM      8  C   UNL     1      45.579   4.609   9.349  0.00  0.00    +0.000 A 
ATOM      9  C   UNL     1      46.319   4.337   8.191  0.00  0.00    +0.000 A 
BRANCH   3  11
ATOM     10  N   UNL     1      48.469   2.719   6.541  0.00  0.00    +0.000 N 
ATOM     11  C   UNL     1      47.121   2.869   6.367  0.00  0.00    +0.000 C 
ATOM     12  O   UNL     1      46.613   2.799   5.256  0.00  0.00    +0.000 OA
ATOM     13  H   UNL     1      48.998   2.467   5.716  0.00  0.00    +0.000 HD
ATOM     14  H   UNL     1      48.879   2.516   7.440  0.00  0.00    +0.000 HD
ENDBRANCH   3  11
ENDBRANCH   1   8
BRANCH   1  15
ATOM     15  C   UNL     1      45.144   6.031  11.327  0.00  0.00    +0.000 C 
BRANCH  15  16
ATOM     16  C   UNL     1      46.402   6.144  12.147  0.00  0.00    +0.000 A 
ATOM     17  C   UNL     1      47.530   6.797  11.660  0.00  0.00    +0.000 A 
ATOM     18  C   UNL     1      48.636   6.881  12.484  0.00  0.00    +0.000 A 
ATOM     19  N   UNL     1      48.686   6.381  13.740  0.00  0.00    +0.000 NA
ATOM     20  C   UNL     1      47.604   5.735  14.221  0.00  0.00    +0.000 A 
ATOM     21  N   UNL     1      47.629   5.231  15.508  0.00  0.00    +0.000 N 
ATOM     22  C   UNL     1      48.468   5.877  16.511  0.00  0.00    +0.000 C 
ATOM     23  C   UNL     1      49.571   4.945  17.005  0.00  0.00    +0.000 C 
ATOM     24  C   UNL     1      49.007   3.590  17.424  0.00  0.00    +0.000 C 
ATOM     25  C   UNL     1      48.217   2.970  16.278  0.00  0.00    +0.000 C 
ATOM     26  C   UNL     1      47.103   3.902  15.800  0.00  0.00    +0.000 C 
ATOM     27  C   UNL     1      46.452   5.615  13.442  0.00  0.00    +0.000 A 
ENDBRANCH  15  16
ENDBRANCH   1  15
TORSDOF 4
ENDMDL
MODEL 2
REMARK VINA RESULT:    -7.310      2.389      3.158
REMARK INTER + INTRA:          -9.661
REMARK INTER:                  -8.982
REMARK INTRA:                  -0.680
REMARK UNBOUND:                -0.642
REMARK  Name = 
REMARK  4 active torsions:
REMARK  status: ('A' for Active; 'I' for Inactive)
REMARK    1  A    between atoms: C_2  and  C_4
REMARK    2  A    between atoms: C_9  and  N_10
REMARK    3  A    between atoms: N_10  and  C_11
REMARK    4  A    between atoms: C_11  and  C_12
REMARK                            x       y       z     vdW  Elec       q    Type
REMARK                         _______ _______ _______ _____ _____    ______ ____
ROOT
ATOM      1  N   UNL     1      46.560   6.537  10.674  0.00  0.00    +0.000 N 
ATOM      2  H   UNL     1      46.816   7.126   9.885  0.00  0.00    +0.000 HD
ENDROOT
BRANCH   1   8
ATOM      3  C   UNL     1      44.285   3.570  10.868  0.00  0.00    +0.000 A 
ATOM      4  C   UNL     1      44.298   3.148   9.540  0.00  0.00    +0.000 A 
ATOM      5  C   UNL     1      45.041   3.873   8.620  0.00  0.00    +0.000 A 
ATOM      6  F   UNL     1      45.076   3.465   7.344  0.00  0.00    +0.000 F 
ATOM      7  C   UNL     1      45.760   5.007   8.997  0.00  0.00    +0.000 A 
ATOM      8  C   UNL     1      45.740   5.464  10.321  0.00  0.00    +0.000 A 
ATOM      9  C   UNL     1      45.002   4.717  11.249  0.00  0.00    +0.000 A 
BRANCH   3  11
ATOM     10  N   UNL     1      43.588   3.341  13.190  0.00  0.00    +0.000 N 
ATOM     11  C   UNL     1      43.522   2.849  11.916  0.00  0.00    +0.000 C 
ATOM     12  O   UNL     1      42.828   1.879  11.645  0.00  0.00    +0.000 OA
ATOM     13  H   UNL     1      42.970   2.908  13.865  0.00  0.00    +0.000 HD
ATOM     14  H   UNL     1      43.931   4.266  13.395  0.00  0.00    +0.000 HD
ENDBRANCH   3  11
ENDBRANCH   1   8
BRANCH   1  15
ATOM     15  C   UNL     1      46.313   7.278  11.903  0.00  0.00    +0.000 C 
BRANCH  15  16
ATOM     16  C   UNL     1      47.439   7.051  12.877  0.00  0.00    +0.000 A 
ATOM     17  C   UNL     1      48.685   7.643  12.699  0.00  0.00    +0.000 A 
ATOM     18  C   UNL     1      49.658   7.405  13.652  0.00  0.00    +0.000 A 
ATOM     19  N   UNL     1      49.469   6.644  14.755  0.00  0.00    +0.000 NA
ATOM     20  C   UNL     1      48.269   6.054  14.935  0.00  0.00    +0.000 A 
ATOM     21  N   UNL     1      48.051   5.287  16.063  0.00  0.00    +0.000 N 
ATOM     22  C   UNL     1      48.788   5.590  17.285  0.00  0.00    +0.000 C 
ATOM     23  C   UNL     1      49.708   4.439  17.685  0.00  0.00    +0.000 C 
ATOM     24  C   UNL     1      48.959   3.110  17.706  0.00  0.00    +0.000 C 
ATOM     25  C   UNL     1      48.294   2.858  16.359  0.00  0.00    +0.000 C 
ATOM     26  C   UNL     1      47.360   4.005  15.973  0.00  0.00    +0.000 C 
ATOM     27  C   UNL     1      47.241   6.253  14.011  0.00  0.00    +0.000 A 
ENDBRANCH  15  16
ENDBRANCH   1  15
TORSDOF 4
ENDMDL
MODEL 3
REMARK VINA RESULT:    -7.147      2.195      2.980
REMARK INTER + INTRA:          -9.460
REMARK INTER:                  -8.869
REMARK INTRA:                  -0.591
REMARK UNBOUND:                -0.642
REMARK  Name = 
REMARK  4 active torsions:
REMARK  status: ('A' for Active; 'I' for Inactive)
REMARK    1  A    between atoms: C_2  and  C_4
REMARK    2  A    between atoms: C_9  and  N_10
REMARK    3  A    between atoms: N_10  and  C_11
REMARK    4  A    between atoms: C_11  and  C_12
REMARK                            x       y       z     vdW  Elec       q    Type
REMARK                         _______ _______ _______ _____ _____    ______ ____
ROOT
ATOM      1  N   UNL     1      46.518   7.445  12.217  0.00  0.00    +0.000 N 
ATOM      2  H   UNL     1      46.266   7.814  13.131  0.00  0.00    +0.000 HD
ENDROOT
BRANCH   1   8
ATOM      3  C   UNL     1      44.835   4.892  10.057  0.00  0.00    +0.000 A 
ATOM      4  C   UNL     1      43.692   4.631  10.810  0.00  0.00    +0.000 A 
ATOM      5  C   UNL     1      43.528   5.290  12.019  0.00  0.00    +0.000 A 
ATOM      6  F   UNL     1      42.423   5.060  12.742  0.00  0.00    +0.000 F 
ATOM      7  C   UNL     1      44.480   6.194  12.490  0.00  0.00    +0.000 A 
ATOM      8  C   UNL     1      45.648   6.453  11.761  0.00  0.00    +0.000 A 
ATOM      9  C   UNL     1      45.799   5.797  10.532  0.00  0.00    +0.000 A 
BRANCH   3  11
ATOM     10  N   UNL     1      44.314   3.150   8.437  0.00  0.00    +0.000 N 
ATOM     11  C   UNL     1      45.085   4.235   8.751  0.00  0.00    +0.000 C 
ATOM     12  O   UNL     1      45.917   4.670   7.967  0.00  0.00    +0.000 OA
ATOM     13  H   UNL     1      44.417   2.789   7.497  0.00  0.00    +0.000 HD
ATOM     14  H   UNL     1      43.464   2.929   8.933  0.00  0.00    +0.000 HD
ENDBRANCH   3  11
ENDBRANCH   1   8
BRANCH   1  15
ATOM     15  C   UNL     1      47.954   7.313  12.015  0.00  0.00    +0.000 C 
BRANCH  15  16
ATOM     16  C   UNL     1      48.641   7.075  13.333  0.00  0.00    +0.000 A 
ATOM     17  C   UNL     1      49.856   7.680  13.639  0.00  0.00    +0.000 A 
ATOM     18  C   UNL     1      50.409   7.431  14.881  0.00  0.00    +0.000 A 
ATOM     19  N   UNL     1      49.836   6.647  15.824  0.00  0.00    +0.000 NA
ATOM     20  C   UNL     1      48.664   6.044  15.536  0.00  0.00    +0.000 A 
ATOM     21  N   UNL     1      48.054   5.252  16.491  0.00  0.00    +0.000 N 
ATOM     22  C   UNL     1      48.282   5.536  17.904  0.00  0.00    +0.000 C 
ATOM     23  C   UNL     1      49.005   4.386  18.598  0.00  0.00    +0.000 C 
ATOM     24  C   UNL     1      48.321   3.050  18.319  0.00  0.00    +0.000 C 
ATOM     25  C   UNL     1      48.206   2.820  16.817  0.00  0.00    +0.000 C 
ATOM     26  C   UNL     1      47.465   3.967  16.131  0.00  0.00    +0.000 C 
ATOM     27  C   UNL     1      48.049   6.253  14.301  0.00  0.00    +0.000 A 
ENDBRANCH  15  16
ENDBRANCH   1  15
TORSDOF 4
ENDMDL
MODEL 4
REMARK VINA RESULT:    -7.112      1.732      3.293
REMARK INTER + INTRA:          -9.417
REMARK INTER:                  -8.754
REMARK INTRA:                  -0.663
REMARK UNBOUND:                -0.642
REMARK  Name = 
REMARK  4 active torsions:
REMARK  status: ('A' for Active; 'I' for Inactive)
REMARK    1  A    between atoms: C_2  and  C_4
REMARK    2  A    between atoms: C_9  and  N_10
REMARK    3  A    between atoms: N_10  and  C_11
REMARK    4  A    between atoms: C_11  and  C_12
REMARK                            x       y       z     vdW  Elec       q    Type
REMARK                         _______ _______ _______ _____ _____    ______ ____
ROOT
ATOM      1  N   UNL     1      45.127   5.661   9.679  0.00  0.00    +0.000 N 
ATOM      2  H   UNL     1      44.645   6.282   9.032  0.00  0.00    +0.000 HD
ENDROOT
BRANCH   1   8
ATOM      3  C   UNL     1      46.372   2.901   7.478  0.00  0.00    +0.000 A 
ATOM      4  C   UNL     1      45.643   1.824   7.977  0.00  0.00    +0.000 A 
ATOM      5  C   UNL     1      44.781   2.042   9.041  0.00  0.00    +0.000 A 
ATOM      6  F   UNL     1      44.060   1.017   9.517  0.00  0.00    +0.000 F 
ATOM      7  C   UNL     1      44.638   3.305   9.616  0.00  0.00    +0.000 A 
ATOM      8  C   UNL     1      45.381   4.396   9.146  0.00  0.00    +0.000 A 
ATOM      9  C   UNL     1      46.238   4.173   8.059  0.00  0.00    +0.000 A 
BRANCH   3  11
ATOM     10  N   UNL     1      48.524   2.179   6.596  0.00  0.00    +0.000 N 
ATOM     11  C   UNL     1      47.312   2.755   6.339  0.00  0.00    +0.000 C 
ATOM     12  O   UNL     1      46.999   3.098   5.207  0.00  0.00    +0.000 OA
ATOM     13  H   UNL     1      49.102   1.981   5.789  0.00  0.00    +0.000 HD
ATOM     14  H   UNL     1      48.708   1.660   7.442  0.00  0.00    +0.000 HD
ENDBRANCH   3  11
ENDBRANCH   1   8
BRANCH   1  15
ATOM     15  C   UNL     1      44.692   5.803  11.061  0.00  0.00    +0.000 C 
BRANCH  15  16
ATOM     16  C   UNL     1      45.888   5.911  11.969  0.00  0.00    +0.000 A 
ATOM     17  C   UNL     1      46.112   4.989  12.987  0.00  0.00    +0.000 A 
ATOM     18  C   UNL     1      47.248   5.142  13.761  0.00  0.00    +0.000 A 
ATOM     19  N   UNL     1      48.162   6.123  13.581  0.00  0.00    +0.000 NA
ATOM     20  C   UNL     1      47.952   7.030  12.605  0.00  0.00    +0.000 A 
ATOM     21  N   UNL     1      48.882   8.030  12.394  0.00  0.00    +0.000 N 
ATOM     22  C   UNL     1      50.281   7.785  12.730  0.00  0.00    +0.000 C 
ATOM     23  C   UNL     1      50.760   8.708  13.847  0.00  0.00    +0.000 C 
ATOM     24  C   UNL     1      50.423  10.166  13.547  0.00  0.00    +0.000 C 
ATOM     25  C   UNL     1      48.929  10.320  13.289  0.00  0.00    +0.000 C 
ATOM     26  C   UNL     1      48.460   9.406  12.157  0.00  0.00    +0.000 C 
ATOM     27  C   UNL     1      46.826   6.934  11.786  0.00  0.00    +0.000 A 
ENDBRANCH  15  16
ENDBRANCH   1  15
TORSDOF 4
ENDMDL
MODEL 5
REMARK VINA RESULT:    -6.655      3.275      5.186
REMARK INTER + INTRA:          -8.854
REMARK INTER:                  -8.421
REMARK INTRA:                  -0.433
REMARK UNBOUND:                -0.642
REMARK  Name = 
REMARK  4 active torsions:
REMARK  status: ('A' for Active; 'I' for Inactive)
REMARK    1  A    between atoms: C_2  and  C_4
REMARK    2  A    between atoms: C_9  and  N_10
REMARK    3  A    between atoms: N_10  and  C_11
REMARK    4  A    between atoms: C_11  and  C_12
REMARK                            x       y       z     vdW  Elec       q    Type
REMARK                         _______ _______ _______ _____ _____    ______ ____
ROOT
ATOM      1  N   UNL     1      46.696   5.207  14.425  0.00  0.00    +0.000 N 
ATOM      2  H   UNL     1      46.468   5.857  15.174  0.00  0.00    +0.000 HD
ENDROOT
BRANCH   1   8
ATOM      3  C   UNL     1      44.462   4.223  11.587  0.00  0.00    +0.000 A 
ATOM      4  C   UNL     1      44.194   5.470  11.026  0.00  0.00    +0.000 A 
ATOM      5  C   UNL     1      44.741   6.597  11.620  0.00  0.00    +0.000 A 
ATOM      6  F   UNL     1      44.505   7.800  11.078  0.00  0.00    +0.000 F 
ATOM      7  C   UNL     1      45.541   6.504  12.759  0.00  0.00    +0.000 A 
ATOM      8  C   UNL     1      45.803   5.263  13.353  0.00  0.00    +0.000 A 
ATOM      9  C   UNL     1      45.261   4.127  12.738  0.00  0.00    +0.000 A 
BRANCH   3  11
ATOM     10  N   UNL     1      44.613   2.404   9.975  0.00  0.00    +0.000 N 
ATOM     11  C   UNL     1      43.921   2.968  11.011  0.00  0.00    +0.000 C 
ATOM     12  O   UNL     1      42.920   2.435  11.471  0.00  0.00    +0.000 OA
ATOM     13  H   UNL     1      44.296   1.490   9.675  0.00  0.00    +0.000 HD
ATOM     14  H   UNL     1      45.559   2.668   9.749  0.00  0.00    +0.000 HD
ENDBRANCH   3  11
ENDBRANCH   1   8
BRANCH   1  15
ATOM     15  C   UNL     1      47.203   3.925  14.895  0.00  0.00    +0.000 C 
BRANCH  15  16
ATOM     16  C   UNL     1      47.727   4.061  16.299  0.00  0.00    +0.000 A 
ATOM     17  C   UNL     1      47.903   2.952  17.120  0.00  0.00    +0.000 A 
ATOM     18  C   UNL     1      48.413   3.157  18.388  0.00  0.00    +0.000 A 
ATOM     19  N   UNL     1      48.768   4.369  18.876  0.00  0.00    +0.000 NA
ATOM     20  C   UNL     1      48.592   5.455  18.095  0.00  0.00    +0.000 A 
ATOM     21  N   UNL     1      48.963   6.700  18.569  0.00  0.00    +0.000 N 
ATOM     22  C   UNL     1      50.042   6.799  19.545  0.00  0.00    +0.000 C 
ATOM     23  C   UNL     1      49.545   7.351  20.878  0.00  0.00    +0.000 C 
ATOM     24  C   UNL     1      48.742   8.634  20.684  0.00  0.00    +0.000 C 
ATOM     25  C   UNL     1      47.596   8.397  19.708  0.00  0.00    +0.000 C 
ATOM     26  C   UNL     1      48.103   7.862  18.369  0.00  0.00    +0.000 C 
ATOM     27  C   UNL     1      48.082   5.319  16.803  0.00  0.00    +0.000 A 
ENDBRANCH  15  16
ENDBRANCH   1  15
TORSDOF 4
ENDMDL
MODEL 6
REMARK VINA RESULT:    -6.539      3.885      5.807
REMARK INTER + INTRA:          -8.710
REMARK INTER:                  -8.317
REMARK INTRA:                  -0.393
REMARK UNBOUND:                -0.642
REMARK  Name = 
REMARK  4 active torsions:
REMARK  status: ('A' for Active; 'I' for Inactive)
REMARK    1  A    between atoms: C_2  and  C_4
REMARK    2  A    between atoms: C_9  and  N_10
REMARK    3  A    between atoms: N_10  and  C_11
REMARK    4  A    between atoms: C_11  and  C_12
REMARK                            x       y       z     vdW  Elec       q    Type
REMARK                         _______ _______ _______ _____ _____    ______ ____
ROOT
ATOM      1  N   UNL     1      46.981   3.824  14.607  0.00  0.00    +0.000 N 
ATOM      2  H   UNL     1      47.869   3.453  14.277  0.00  0.00    +0.000 HD
ENDROOT
BRANCH   1   8
ATOM      3  C   UNL     1      44.526   5.285  12.189  0.00  0.00    +0.000 A 
ATOM      4  C   UNL     1      45.282   6.322  11.648  0.00  0.00    +0.000 A 
ATOM      5  C   UNL     1      46.572   6.519  12.119  0.00  0.00    +0.000 A 
ATOM      6  F   UNL     1      47.316   7.502  11.592  0.00  0.00    +0.000 F 
ATOM      7  C   UNL     1      47.114   5.709  13.116  0.00  0.00    +0.000 A 
ATOM      8  C   UNL     1      46.362   4.677  13.691  0.00  0.00    +0.000 A 
ATOM      9  C   UNL     1      45.066   4.472  13.199  0.00  0.00    +0.000 A 
BRANCH   3  11
ATOM     10  N   UNL     1      42.252   6.042  11.756  0.00  0.00    +0.000 N 
ATOM     11  C   UNL     1      43.141   5.003  11.738  0.00  0.00    +0.000 C 
ATOM     12  O   UNL     1      42.817   3.897  11.327  0.00  0.00    +0.000 OA
ATOM     13  H   UNL     1      41.349   5.861  11.336  0.00  0.00    +0.000 HD
ATOM     14  H   UNL     1      42.545   7.003  11.839  0.00  0.00    +0.000 HD
ENDBRANCH   3  11
ENDBRANCH   1   8
BRANCH   1  15
ATOM     15  C   UNL     1      46.970   4.138  16.029  0.00  0.00    +0.000 C 
BRANCH  15  16
ATOM     16  C   UNL     1      48.240   3.652  16.674  0.00  0.00    +0.000 A 
ATOM     17  C   UNL     1      48.798   2.420  16.344  0.00  0.00    +0.000 A 
ATOM     18  C   UNL     1      49.980   2.057  16.962  0.00  0.00    +0.000 A 
ATOM     19  N   UNL     1      50.636   2.830  17.858  0.00  0.00    +0.000 NA
ATOM     20  C   UNL     1      50.101   4.021  18.197  0.00  0.00    +0.000 A 
ATOM     21  N   UNL     1      50.764   4.834  19.097  0.00  0.00    +0.000 N 
ATOM     22  C   UNL     1      52.217   4.749  19.198  0.00  0.00    +0.000 C 
ATOM     23  C   UNL     1      52.657   4.259  20.574  0.00  0.00    +0.000 C 
ATOM     24  C   UNL     1      51.987   5.057  21.690  0.00  0.00    +0.000 C 
ATOM     25  C   UNL     1      50.472   5.013  21.533  0.00  0.00    +0.000 C 
ATOM     26  C   UNL     1      50.038   5.522  20.158  0.00  0.00    +0.000 C 
ATOM     27  C   UNL     1      48.910   4.451  17.609  0.00  0.00    +0.000 A 
ENDBRANCH  15  16
ENDBRANCH   1  15
TORSDOF 4
ENDMDL
MODEL 7
REMARK VINA RESULT:    -6.044      4.514      8.036
REMARK INTER + INTRA:          -8.100
REMARK INTER:                  -7.413
REMARK INTRA:                  -0.686
REMARK UNBOUND:                -0.642
REMARK  Name = 
REMARK  4 active torsions:
REMARK  status: ('A' for Active; 'I' for Inactive)
REMARK    1  A    between atoms: C_2  and  C_4
REMARK    2  A    between atoms: C_9  and  N_10
REMARK    3  A    between atoms: N_10  and  C_11
REMARK    4  A    between atoms: C_11  and  C_12
REMARK                            x       y       z     vdW  Elec       q    Type
REMARK                         _______ _______ _______ _____ _____    ______ ____
ROOT
ATOM      1  N   UNL     1      48.787   7.387  14.575  0.00  0.00    +0.000 N 
ATOM      2  H   UNL     1      48.757   6.646  13.878  0.00  0.00    +0.000 HD
ENDROOT
BRANCH   1   8
ATOM      3  C   UNL     1      48.247   5.194  17.561  0.00  0.00    +0.000 A 
ATOM      4  C   UNL     1      48.439   6.111  18.592  0.00  0.00    +0.000 A 
ATOM      5  C   UNL     1      48.765   7.419  18.266  0.00  0.00    +0.000 A 
ATOM      6  F   UNL     1      48.934   8.314  19.250  0.00  0.00    +0.000 F 
ATOM      7  C   UNL     1      48.907   7.824  16.939  0.00  0.00    +0.000 A 
ATOM      8  C   UNL     1      48.743   6.913  15.888  0.00  0.00    +0.000 A 
ATOM      9  C   UNL     1      48.397   5.597  16.223  0.00  0.00    +0.000 A 
BRANCH   3  11
ATOM     10  N   UNL     1      47.061   3.164  16.927  0.00  0.00    +0.000 N 
ATOM     11  C   UNL     1      47.892   3.778  17.823  0.00  0.00    +0.000 C 
ATOM     12  O   UNL     1      48.355   3.170  18.778  0.00  0.00    +0.000 OA
ATOM     13  H   UNL     1      46.925   2.169  17.056  0.00  0.00    +0.000 HD
ATOM     14  H   UNL     1      46.875   3.546  16.012  0.00  0.00    +0.000 HD
ENDBRANCH   3  11
ENDBRANCH   1   8
BRANCH   1  15
ATOM     15  C   UNL     1      48.040   8.578  14.197  0.00  0.00    +0.000 C 
BRANCH  15  16
ATOM     16  C   UNL     1      46.940   8.214  13.235  0.00  0.00    +0.000 A 
ATOM     17  C   UNL     1      46.130   9.186  12.657  0.00  0.00    +0.000 A 
ATOM     18  C   UNL     1      45.159   8.773  11.764  0.00  0.00    +0.000 A 
ATOM     19  N   UNL     1      44.958   7.484  11.405  0.00  0.00    +0.000 NA
ATOM     20  C   UNL     1      45.729   6.530  11.967  0.00  0.00    +0.000 A 
ATOM     21  N   UNL     1      45.550   5.209  11.602  0.00  0.00    +0.000 N 
ATOM     22  C   UNL     1      45.044   4.900  10.268  0.00  0.00    +0.000 C 
ATOM     23  C   UNL     1      43.684   4.209  10.331  0.00  0.00    +0.000 C 
ATOM     24  C   UNL     1      43.706   3.025  11.294  0.00  0.00    +0.000 C 
ATOM     25  C   UNL     1      44.173   3.475  12.673  0.00  0.00    +0.000 C 
ATOM     26  C   UNL     1      45.543   4.150  12.605  0.00  0.00    +0.000 C 
ATOM     27  C   UNL     1      46.729   6.877  12.876  0.00  0.00    +0.000 A 
ENDBRANCH  15  16
ENDBRANCH   1  15
TORSDOF 4
ENDMDL
MODEL 8
REMARK VINA RESULT:    -5.989      4.057      7.277
REMARK INTER + INTRA:          -8.032
REMARK INTER:                  -7.288
REMARK INTRA:                  -0.744
REMARK UNBOUND:                -0.642
REMARK  Name = 
REMARK  4 active torsions:
REMARK  status: ('A' for Active; 'I' for Inactive)
REMARK    1  A    between atoms: C_2  and  C_4
REMARK    2  A    between atoms: C_9  and  N_10
REMARK    3  A    between atoms: N_10  and  C_11
REMARK    4  A    between atoms: C_11  and  C_12
REMARK                            x       y       z     vdW  Elec       q    Type
REMARK                         _______ _______ _______ _____ _____    ______ ____
ROOT
ATOM      1  N   UNL     1      46.642   8.575  11.946  0.00  0.00    +0.000 N 
ATOM      2  H   UNL     1      46.659   8.409  10.942  0.00  0.00    +0.000 HD
ENDROOT
BRANCH   1   8
ATOM      3  C   UNL     1      50.343   8.315  12.438  0.00  0.00    +0.000 A 
ATOM      4  C   UNL     1      50.424   8.383  13.827  0.00  0.00    +0.000 A 
ATOM      5  C   UNL     1      49.253   8.537  14.554  0.00  0.00    +0.000 A 
ATOM      6  F   UNL     1      49.317   8.585  15.892  0.00  0.00    +0.000 F 
ATOM      7  C   UNL     1      48.012   8.629  13.924  0.00  0.00    +0.000 A 
ATOM      8  C   UNL     1      47.911   8.588  12.527  0.00  0.00    +0.000 A 
ATOM      9  C   UNL     1      49.096   8.416  11.799  0.00  0.00    +0.000 A 
BRANCH   3  11
ATOM     10  N   UNL     1      51.567   7.076  10.736  0.00  0.00    +0.000 N 
ATOM     11  C   UNL     1      51.546   8.146  11.587  0.00  0.00    +0.000 C 
ATOM     12  O   UNL     1      52.465   8.953  11.613  0.00  0.00    +0.000 OA
ATOM     13  H   UNL     1      52.339   7.043  10.082  0.00  0.00    +0.000 HD
ATOM     14  H   UNL     1      50.737   6.551  10.506  0.00  0.00    +0.000 HD
ENDBRANCH   3  11
ENDBRANCH   1   8
BRANCH   1  15
ATOM     15  C   UNL     1      45.527   7.931  12.627  0.00  0.00    +0.000 C 
BRANCH  15  16
ATOM     16  C   UNL     1      45.555   6.447  12.372  0.00  0.00    +0.000 A 
ATOM     17  C   UNL     1      45.771   5.537  13.403  0.00  0.00    +0.000 A 
ATOM     18  C   UNL     1      45.756   4.190  13.091  0.00  0.00    +0.000 A 
ATOM     19  N   UNL     1      45.531   3.701  11.850  0.00  0.00    +0.000 NA
ATOM     20  C   UNL     1      45.332   4.572  10.839  0.00  0.00    +0.000 A 
ATOM     21  N   UNL     1      45.084   4.092   9.567  0.00  0.00    +0.000 N 
ATOM     22  C   UNL     1      44.441   2.792   9.408  0.00  0.00    +0.000 C 
ATOM     23  C   UNL     1      45.362   1.792   8.715  0.00  0.00    +0.000 C 
ATOM     24  C   UNL     1      45.949   2.373   7.432  0.00  0.00    +0.000 C 
ATOM     25  C   UNL     1      46.662   3.687   7.726  0.00  0.00    +0.000 C 
ATOM     26  C   UNL     1      45.729   4.690   8.404  0.00  0.00    +0.000 C 
ATOM     27  C   UNL     1      45.333   5.946  11.084  0.00  0.00    +0.000 A 
ENDBRANCH  15  16
ENDBRANCH   1  15
TORSDOF 4
ENDMDL
MODEL 9
REMARK VINA RESULT:    -5.962      2.761      3.239
REMARK INTER + INTRA:          -7.998
REMARK INTER:                  -7.524
REMARK INTRA:                  -0.475
REMARK UNBOUND:                -0.642
REMARK  Name = 
REMARK  4 active torsions:
REMARK  status: ('A' for Active; 'I' for Inactive)
REMARK    1  A    between atoms: C_2  and  C_4
REMARK    2  A    between atoms: C_9  and  N_10
REMARK    3  A    between atoms: N_10  and  C_11
REMARK    4  A    between atoms: C_11  and  C_12
REMARK                            x       y       z     vdW  Elec       q    Type
REMARK                         _______ _______ _______ _____ _____    ______ ____
ROOT
ATOM      1  N   UNL     1      45.076   6.644  10.793  0.00  0.00    +0.000 N 
ATOM      2  H   UNL     1      44.414   7.234  10.295  0.00  0.00    +0.000 HD
ENDROOT
BRANCH   1   8
ATOM      3  C   UNL     1      45.454   3.430   8.911  0.00  0.00    +0.000 A 
ATOM      4  C   UNL     1      44.587   2.608   9.628  0.00  0.00    +0.000 A 
ATOM      5  C   UNL     1      43.925   3.138  10.725  0.00  0.00    +0.000 A 
ATOM      6  F   UNL     1      43.074   2.361  11.410  0.00  0.00    +0.000 F 
ATOM      7  C   UNL     1      44.114   4.462  11.120  0.00  0.00    +0.000 A 
ATOM      8  C   UNL     1      45.000   5.298  10.429  0.00  0.00    +0.000 A 
ATOM      9  C   UNL     1      45.654   4.762   9.311  0.00  0.00    +0.000 A 
BRANCH   3  11
ATOM     10  N   UNL     1      46.664   3.885   6.847  0.00  0.00    +0.000 N 
ATOM     11  C   UNL     1      46.197   2.944   7.723  0.00  0.00    +0.000 C 
ATOM     12  O   UNL     1      46.421   1.753   7.553  0.00  0.00    +0.000 OA
ATOM     13  H   UNL     1      47.267   3.544   6.109  0.00  0.00    +0.000 HD
ATOM     14  H   UNL     1      46.722   4.863   7.085  0.00  0.00    +0.000 HD
ENDBRANCH   3  11
ENDBRANCH   1   8
BRANCH   1  15
ATOM     15  C   UNL     1      45.264   7.019  12.187  0.00  0.00    +0.000 C 
BRANCH  15  16
ATOM     16  C   UNL     1      46.674   7.498  12.407  0.00  0.00    +0.000 A 
ATOM     17  C   UNL     1      47.692   7.198  11.507  0.00  0.00    +0.000 A 
ATOM     18  C   UNL     1      48.955   7.697  11.767  0.00  0.00    +0.000 A 
ATOM     19  N   UNL     1      49.260   8.471  12.834  0.00  0.00    +0.000 NA
ATOM     20  C   UNL     1      48.285   8.761  13.721  0.00  0.00    +0.000 A 
ATOM     21  N   UNL     1      48.572   9.564  14.809  0.00  0.00    +0.000 N 
ATOM     22  C   UNL     1      49.635  10.557  14.701  0.00  0.00    +0.000 C 
ATOM     23  C   UNL     1      50.782  10.258  15.661  0.00  0.00    +0.000 C 
ATOM     24  C   UNL     1      50.273  10.022  17.081  0.00  0.00    +0.000 C 
ATOM     25  C   UNL     1      49.227   8.914  17.088  0.00  0.00    +0.000 C 
ATOM     26  C   UNL     1      48.072   9.229  16.138  0.00  0.00    +0.000 C 
ATOM     27  C   UNL     1      46.986   8.290  13.519  0.00  0.00    +0.000 A 
ENDBRANCH  15  16
ENDBRANCH   1  15
TORSDOF 4
ENDMDL
