MODEL 1
REMARK VINA RESULT:    -7.817      0.000      0.000
REMARK INTER + INTRA:         -12.570
REMARK INTER:                 -11.245
REMARK INTRA:                  -1.325
REMARK UNBOUND:                -1.325
REMARK  Name = 
REMARK  9 active torsions:
REMARK  status: ('A' for Active; 'I' for Inactive)
REMARK    1  A    between atoms: C_1  and  C_2
REMARK    2  A    between atoms: C_2  and  N_3
REMARK    3  A    between atoms: C_2  and  C_25
REMARK    4  A    between atoms: N_3  and  C_4
REMARK    5  A    between atoms: C_4  and  C_5
REMARK    6  A    between atoms: C_8  and  C_9
REMARK    7  A    between atoms: C_9  and  N_10
REMARK    8  A    between atoms: C_11  and  C_13
REMARK    9  A    between atoms: C_20  and  O_21
REMARK                            x       y       z     vdW  Elec       q    Type
REMARK                         _______ _______ _______ _____ _____    ______ ____
ROOT
ATOM      1  C   UNL     1      44.729   5.962  11.243  0.00  0.00    +0.000 A 
ATOM      2  C   UNL     1      46.049   5.556  11.479  0.00  0.00    +0.000 A 
ATOM      3  C   UNL     1      46.918   6.343  12.243  0.00  0.00    +0.000 A 
ATOM      4  C   UNL     1      46.486   7.559  12.788  0.00  0.00    +0.000 A 
ATOM      5  C   UNL     1      45.178   7.988  12.522  0.00  0.00    +0.000 A 
ATOM      6  C   UNL     1      44.309   7.195  11.765  0.00  0.00    +0.000 A 
ENDROOT
BRANCH   1   7
ATOM      7  C   UNL     1      43.786   5.114  10.412  0.00  0.00    +0.000 C 
BRANCH   7   8
ATOM      8  N   UNL     1      44.414   4.630   9.178  0.00  0.00    +0.000 NA
ATOM      9  H   UNL     1      43.906   5.023   8.384  0.00  0.00    +0.000 HD
BRANCH   8  11
ATOM     10  C   UNL     1      44.398   2.425  10.389  0.00  0.00    +0.000 C 
ATOM     11  C   UNL     1      44.351   3.158   9.041  0.00  0.00    +0.000 C 
BRANCH  11  12
ATOM     12  C   UNL     1      45.492   2.619   8.176  0.00  0.00    +0.000 A 
ATOM     13  C   UNL     1      46.200   3.470   7.324  0.00  0.00    +0.000 A 
ATOM     14  C   UNL     1      47.346   2.999   6.691  0.00  0.00    +0.000 A 
ATOM     15  C   UNL     1      47.742   1.685   6.895  0.00  0.00    +0.000 A 
ATOM     16  C   UNL     1      46.960   0.887   7.712  0.00  0.00    +0.000 A 
ATOM     17  N   UNL     1      45.852   1.321   8.359  0.00  0.00    +0.000 NA
ENDBRANCH  11  12
ENDBRANCH   8  11
ENDBRANCH   7   8
ENDBRANCH   1   7
BRANCH   4  18
ATOM     18  C   UNL     1      47.407   8.406  13.628  0.00  0.00    +0.000 C 
BRANCH  18  19
ATOM     19  N   UNL     1      47.885   7.684  14.778  0.00  0.00    +0.000 N 
ATOM     20  C   UNL     1      49.174   7.235  14.852  0.00  0.00    +0.000 C 
ATOM     21  O   UNL     1      50.003   7.469  13.974  0.00  0.00    +0.000 OA
ATOM     22  H   UNL     1      47.201   7.272  15.403  0.00  0.00    +0.000 HD
BRANCH  20  23
ATOM     23  C   UNL     1      49.541   6.516  16.080  0.00  0.00    +0.000 A 
ATOM     24  C   UNL     1      50.677   6.897  16.778  0.00  0.00    +0.000 A 
ATOM     25  S   UNL     1      50.932   6.005  18.203  0.00  0.00    +0.000 S 
ATOM     26  C   UNL     1      49.564   5.043  17.904  0.00  0.00    +0.000 A 
ATOM     27  N   UNL     1      49.249   4.048  18.765  0.00  0.00    +0.000 NA
ATOM     28  C   UNL     1      48.161   3.339  18.425  0.00  0.00    +0.000 A 
ATOM     29  C   UNL     1      47.382   3.559  17.311  0.00  0.00    +0.000 A 
ATOM     30  C   UNL     1      47.746   4.600  16.457  0.00  0.00    +0.000 A 
ATOM     31  C   UNL     1      48.883   5.396  16.743  0.00  0.00    +0.000 A 
BRANCH  30  32
ATOM     32  O   UNL     1      46.988   4.838  15.333  0.00  0.00    +0.000 OA
ATOM     33  H   UNL     1      47.400   5.548  14.810  0.00  0.00    +0.000 HD
ENDBRANCH  30  32
ENDBRANCH  20  23
ENDBRANCH  18  19
ENDBRANCH   4  18
TORSDOF 8
ENDMDL
MODEL 2
REMARK VINA RESULT:    -7.488      2.016      2.314
REMARK INTER + INTRA:         -12.095
REMARK INTER:                 -10.925
REMARK INTRA:                  -1.170
REMARK UNBOUND:                -1.325
REMARK  Name = 
REMARK  9 active torsions:
REMARK  status: ('A' for Active; 'I' for Inactive)
REMARK    1  A    between atoms: C_1  and  C_2
REMARK    2  A    between atoms: C_2  and  N_3
REMARK    3  A    between atoms: C_2  and  C_25
REMARK    4  A    between atoms: N_3  and  C_4
REMARK    5  A    between atoms: C_4  and  C_5
REMARK    6  A    between atoms: C_8  and  C_9
REMARK    7  A    between atoms: C_9  and  N_10
REMARK    8  A    between atoms: C_11  and  C_13
REMARK    9  A    between atoms: C_20  and  O_21
REMARK                            x       y       z     vdW  Elec       q    Type
REMARK                         _______ _______ _______ _____ _____    ______ ____
ROOT
ATOM      1  C   UNL     1      45.397   5.555  11.695  0.00  0.00    +0.000 A 
ATOM      2  C   UNL     1      46.300   6.500  11.190  0.00  0.00    +0.000 A 
ATOM      3  C   UNL     1      47.404   6.914  11.943  0.00  0.00    +0.000 A 
ATOM      4  C   UNL     1      47.632   6.392  13.223  0.00  0.00    +0.000 A 
ATOM      5  C   UNL     1      46.711   5.475  13.747  0.00  0.00    +0.000 A 
ATOM      6  C   UNL     1      45.611   5.056  12.989  0.00  0.00    +0.000 A 
ENDROOT
BRANCH   1   7
ATOM      7  C   UNL     1      44.197   5.108  10.885  0.00  0.00    +0.000 C 
BRANCH   7   8
ATOM      8  N   UNL     1      44.553   4.775   9.501  0.00  0.00    +0.000 NA
ATOM      9  H   UNL     1      43.956   5.319   8.876  0.00  0.00    +0.000 HD
BRANCH   8  11
ATOM     10  C   UNL     1      44.211   2.460  10.423  0.00  0.00    +0.000 C 
ATOM     11  C   UNL     1      44.326   3.349   9.177  0.00  0.00    +0.000 C 
BRANCH  11  12
ATOM     12  C   UNL     1      45.444   2.781   8.300  0.00  0.00    +0.000 A 
ATOM     13  C   UNL     1      46.226   3.627   7.511  0.00  0.00    +0.000 A 
ATOM     14  C   UNL     1      47.349   3.114   6.870  0.00  0.00    +0.000 A 
ATOM     15  C   UNL     1      47.647   1.766   7.001  0.00  0.00    +0.000 A 
ATOM     16  C   UNL     1      46.795   0.979   7.757  0.00  0.00    +0.000 A 
ATOM     17  N   UNL     1      45.708   1.452   8.411  0.00  0.00    +0.000 NA
ENDBRANCH  11  12
ENDBRANCH   8  11
ENDBRANCH   7   8
ENDBRANCH   1   7
BRANCH   4  18
ATOM     18  C   UNL     1      48.828   6.816  14.035  0.00  0.00    +0.000 C 
BRANCH  18  19
ATOM     19  N   UNL     1      48.462   7.132  15.389  0.00  0.00    +0.000 N 
ATOM     20  C   UNL     1      49.045   6.500  16.452  0.00  0.00    +0.000 C 
ATOM     21  O   UNL     1      49.946   5.673  16.311  0.00  0.00    +0.000 OA
ATOM     22  H   UNL     1      47.586   7.617  15.548  0.00  0.00    +0.000 HD
BRANCH  20  23
ATOM     23  C   UNL     1      48.588   6.915  17.786  0.00  0.00    +0.000 A 
ATOM     24  C   UNL     1      48.156   8.217  17.982  0.00  0.00    +0.000 A 
ATOM     25  S   UNL     1      47.608   8.523  19.563  0.00  0.00    +0.000 S 
ATOM     26  C   UNL     1      47.984   6.939  20.051  0.00  0.00    +0.000 A 
ATOM     27  N   UNL     1      47.771   6.571  21.335  0.00  0.00    +0.000 NA
ATOM     28  C   UNL     1      48.119   5.306  21.617  0.00  0.00    +0.000 A 
ATOM     29  C   UNL     1      48.646   4.404  20.720  0.00  0.00    +0.000 A 
ATOM     30  C   UNL     1      48.841   4.831  19.407  0.00  0.00    +0.000 A 
ATOM     31  C   UNL     1      48.502   6.153  19.027  0.00  0.00    +0.000 A 
BRANCH  30  32
ATOM     32  O   UNL     1      49.371   3.951  18.491  0.00  0.00    +0.000 OA
ATOM     33  H   UNL     1      49.984   4.428  17.903  0.00  0.00    +0.000 HD
ENDBRANCH  30  32
ENDBRANCH  20  23
ENDBRANCH  18  19
ENDBRANCH   4  18
TORSDOF 8
ENDMDL
MODEL 3
REMARK VINA RESULT:    -7.450      2.385      2.889
REMARK INTER + INTRA:         -12.041
REMARK INTER:                 -10.859
REMARK INTRA:                  -1.182
REMARK UNBOUND:                -1.325
REMARK  Name = 
REMARK  9 active torsions:
REMARK  status: ('A' for Active; 'I' for Inactive)
REMARK    1  A    between atoms: C_1  and  C_2
REMARK    2  A    between atoms: C_2  and  N_3
REMARK    3  A    between atoms: C_2  and  C_25
REMARK    4  A    between atoms: N_3  and  C_4
REMARK    5  A    between atoms: C_4  and  C_5
REMARK    6  A    between atoms: C_8  and  C_9
REMARK    7  A    between atoms: C_9  and  N_10
REMARK    8  A    between atoms: C_11  and  C_13
REMARK    9  A    between atoms: C_20  and  O_21
REMARK                            x       y       z     vdW  Elec       q    Type
REMARK                         _______ _______ _______ _____ _____    ______ ____
ROOT
ATOM      1  C   UNL     1      45.375   5.530  11.611  0.00  0.00    +0.000 A 
ATOM      2  C   UNL     1      46.200   6.595  11.228  0.00  0.00    +0.000 A 
ATOM      3  C   UNL     1      47.268   7.003  12.035  0.00  0.00    +0.000 A 
ATOM      4  C   UNL     1      47.537   6.355  13.247  0.00  0.00    +0.000 A 
ATOM      5  C   UNL     1      46.691   5.313  13.652  0.00  0.00    +0.000 A 
ATOM      6  C   UNL     1      45.628   4.901  12.841  0.00  0.00    +0.000 A 
ENDROOT
BRANCH   1   7
ATOM      7  C   UNL     1      44.214   5.087  10.744  0.00  0.00    +0.000 C 
BRANCH   7   8
ATOM      8  N   UNL     1      44.642   4.707   9.393  0.00  0.00    +0.000 NA
ATOM      9  H   UNL     1      44.104   5.255   8.720  0.00  0.00    +0.000 HD
BRANCH   8  11
ATOM     10  C   UNL     1      44.248   2.413  10.347  0.00  0.00    +0.000 C 
ATOM     11  C   UNL     1      44.384   3.282   9.089  0.00  0.00    +0.000 C 
BRANCH  11  12
ATOM     12  C   UNL     1      45.491   2.677   8.222  0.00  0.00    +0.000 A 
ATOM     13  C   UNL     1      46.240   3.485   7.362  0.00  0.00    +0.000 A 
ATOM     14  C   UNL     1      47.357   2.950   6.728  0.00  0.00    +0.000 A 
ATOM     15  C   UNL     1      47.681   1.617   6.936  0.00  0.00    +0.000 A 
ATOM     16  C   UNL     1      46.861   0.867   7.762  0.00  0.00    +0.000 A 
ATOM     17  N   UNL     1      45.782   1.363   8.410  0.00  0.00    +0.000 NA
ENDBRANCH  11  12
ENDBRANCH   8  11
ENDBRANCH   7   8
ENDBRANCH   1   7
BRANCH   4  18
ATOM     18  C   UNL     1      48.696   6.773  14.113  0.00  0.00    +0.000 C 
BRANCH  18  19
ATOM     19  N   UNL     1      48.319   6.848  15.500  0.00  0.00    +0.000 N 
ATOM     20  C   UNL     1      49.134   6.368  16.487  0.00  0.00    +0.000 C 
ATOM     21  O   UNL     1      50.247   5.900  16.251  0.00  0.00    +0.000 OA
ATOM     22  H   UNL     1      47.342   7.001  15.723  0.00  0.00    +0.000 HD
BRANCH  20  23
ATOM     23  C   UNL     1      48.637   6.507  17.864  0.00  0.00    +0.000 A 
ATOM     24  C   UNL     1      48.599   5.395  18.689  0.00  0.00    +0.000 A 
ATOM     25  S   UNL     1      48.054   5.732  20.264  0.00  0.00    +0.000 S 
ATOM     26  C   UNL     1      47.798   7.367  19.877  0.00  0.00    +0.000 A 
ATOM     27  N   UNL     1      47.299   8.203  20.816  0.00  0.00    +0.000 NA
ATOM     28  C   UNL     1      47.120   9.466  20.400  0.00  0.00    +0.000 A 
ATOM     29  C   UNL     1      47.407   9.939  19.140  0.00  0.00    +0.000 A 
ATOM     30  C   UNL     1      47.926   9.039  18.209  0.00  0.00    +0.000 A 
ATOM     31  C   UNL     1      48.143   7.685  18.567  0.00  0.00    +0.000 A 
BRANCH  30  32
ATOM     32  O   UNL     1      48.218   9.485  16.940  0.00  0.00    +0.000 OA
ATOM     33  H   UNL     1      49.023  10.031  16.967  0.00  0.00    +0.000 HD
ENDBRANCH  30  32
ENDBRANCH  20  23
ENDBRANCH  18  19
ENDBRANCH   4  18
TORSDOF 8
ENDMDL
MODEL 4
REMARK VINA RESULT:    -7.321      1.849      2.376
REMARK INTER + INTRA:         -11.855
REMARK INTER:                 -10.593
REMARK INTRA:                  -1.263
REMARK UNBOUND:                -1.325
REMARK  Name = 
REMARK  9 active torsions:
REMARK  status: ('A' for Active; 'I' for Inactive)
REMARK    1  A    between atoms: C_1  and  C_2
REMARK    2  A    between atoms: C_2  and  N_3
REMARK    3  A    between atoms: C_2  and  C_25
REMARK    4  A    between atoms: N_3  and  C_4
REMARK    5  A    between atoms: C_4  and  C_5
REMARK    6  A    between atoms: C_8  and  C_9
REMARK    7  A    between atoms: C_9  and  N_10
REMARK    8  A    between atoms: C_11  and  C_13
REMARK    9  A    between atoms: C_20  and  O_21
REMARK                            x       y       z     vdW  Elec       q    Type
REMARK                         _______ _______ _______ _____ _____    ______ ____
ROOT
ATOM      1  C   UNL     1      45.344   6.154  12.278  0.00  0.00    +0.000 A 
ATOM      2  C   UNL     1      45.682   7.513  12.281  0.00  0.00    +0.000 A 
ATOM      3  C   UNL     1      46.890   7.952  12.833  0.00  0.00    +0.000 A 
ATOM      4  C   UNL     1      47.791   7.040  13.397  0.00  0.00    +0.000 A 
ATOM      5  C   UNL     1      47.440   5.683  13.431  0.00  0.00    +0.000 A 
ATOM      6  C   UNL     1      46.234   5.245  12.871  0.00  0.00    +0.000 A 
ENDROOT
BRANCH   1   7
ATOM      7  C   UNL     1      44.034   5.674  11.686  0.00  0.00    +0.000 C 
BRANCH   7   8
ATOM      8  N   UNL     1      44.126   5.453  10.239  0.00  0.00    +0.000 NA
ATOM      9  H   UNL     1      43.394   6.001   9.783  0.00  0.00    +0.000 HD
BRANCH   8  11
ATOM     10  C   UNL     1      43.728   3.111  11.069  0.00  0.00    +0.000 C 
ATOM     11  C   UNL     1      43.901   4.040   9.859  0.00  0.00    +0.000 C 
BRANCH  11  12
ATOM     12  C   UNL     1      45.051   3.491   9.010  0.00  0.00    +0.000 A 
ATOM     13  C   UNL     1      45.335   2.124   9.001  0.00  0.00    +0.000 A 
ATOM     14  C   UNL     1      46.257   1.627   8.084  0.00  0.00    +0.000 A 
ATOM     15  C   UNL     1      46.898   2.506   7.224  0.00  0.00    +0.000 A 
ATOM     16  C   UNL     1      46.601   3.855   7.328  0.00  0.00    +0.000 A 
ATOM     17  N   UNL     1      45.695   4.366   8.192  0.00  0.00    +0.000 NA
ENDBRANCH  11  12
ENDBRANCH   8  11
ENDBRANCH   7   8
ENDBRANCH   1   7
BRANCH   4  18
ATOM     18  C   UNL     1      49.104   7.500  13.976  0.00  0.00    +0.000 C 
BRANCH  18  19
ATOM     19  N   UNL     1      49.463   6.737  15.142  0.00  0.00    +0.000 N 
ATOM     20  C   UNL     1      49.208   7.199  16.403  0.00  0.00    +0.000 C 
ATOM     21  O   UNL     1      48.614   8.257  16.607  0.00  0.00    +0.000 OA
ATOM     22  H   UNL     1      50.146   5.994  15.037  0.00  0.00    +0.000 HD
BRANCH  20  23
ATOM     23  C   UNL     1      49.618   6.325  17.511  0.00  0.00    +0.000 A 
ATOM     24  C   UNL     1      50.773   5.569  17.389  0.00  0.00    +0.000 A 
ATOM     25  S   UNL     1      51.139   4.655  18.776  0.00  0.00    +0.000 S 
ATOM     26  C   UNL     1      49.735   5.198  19.563  0.00  0.00    +0.000 A 
ATOM     27  N   UNL     1      49.452   4.744  20.806  0.00  0.00    +0.000 NA
ATOM     28  C   UNL     1      48.311   5.222  21.328  0.00  0.00    +0.000 A 
ATOM     29  C   UNL     1      47.460   6.108  20.707  0.00  0.00    +0.000 A 
ATOM     30  C   UNL     1      47.800   6.550  19.429  0.00  0.00    +0.000 A 
ATOM     31  C   UNL     1      48.986   6.092  18.805  0.00  0.00    +0.000 A 
BRANCH  30  32
ATOM     32  O   UNL     1      46.963   7.433  18.783  0.00  0.00    +0.000 OA
ATOM     33  H   UNL     1      46.207   7.641  19.360  0.00  0.00    +0.000 HD
ENDBRANCH  30  32
ENDBRANCH  20  23
ENDBRANCH  18  19
ENDBRANCH   4  18
TORSDOF 8
ENDMDL
MODEL 5
REMARK VINA RESULT:    -7.111      2.598      4.110
REMARK INTER + INTRA:         -11.553
REMARK INTER:                 -10.508
REMARK INTRA:                  -1.046
REMARK UNBOUND:                -1.325
REMARK  Name = 
REMARK  9 active torsions:
REMARK  status: ('A' for Active; 'I' for Inactive)
REMARK    1  A    between atoms: C_1  and  C_2
REMARK    2  A    between atoms: C_2  and  N_3
REMARK    3  A    between atoms: C_2  and  C_25
REMARK    4  A    between atoms: N_3  and  C_4
REMARK    5  A    between atoms: C_4  and  C_5
REMARK    6  A    between atoms: C_8  and  C_9
REMARK    7  A    between atoms: C_9  and  N_10
REMARK    8  A    between atoms: C_11  and  C_13
REMARK    9  A    between atoms: C_20  and  O_21
REMARK                            x       y       z     vdW  Elec       q    Type
REMARK                         _______ _______ _______ _____ _____    ______ ____
ROOT
ATOM      1  C   UNL     1      45.399   3.314   8.321  0.00  0.00    +0.000 A 
ATOM      2  C   UNL     1      44.751   2.434   9.196  0.00  0.00    +0.000 A 
ATOM      3  C   UNL     1      44.366   2.846  10.477  0.00  0.00    +0.000 A 
ATOM      4  C   UNL     1      44.621   4.153  10.913  0.00  0.00    +0.000 A 
ATOM      5  C   UNL     1      45.304   5.026  10.054  0.00  0.00    +0.000 A 
ATOM      6  C   UNL     1      45.681   4.613   8.771  0.00  0.00    +0.000 A 
ENDROOT
BRANCH   1   7
ATOM      7  C   UNL     1      45.822   2.870   6.935  0.00  0.00    +0.000 C 
BRANCH   7   8
ATOM      8  N   UNL     1      46.637   1.651   6.966  0.00  0.00    +0.000 NA
ATOM      9  H   UNL     1      47.228   1.680   7.799  0.00  0.00    +0.000 HD
BRANCH   8  11
ATOM     10  C   UNL     1      47.944   2.897   5.215  0.00  0.00    +0.000 C 
ATOM     11  C   UNL     1      47.544   1.536   5.803  0.00  0.00    +0.000 C 
BRANCH  11  12
ATOM     12  C   UNL     1      46.921   0.707   4.677  0.00  0.00    +0.000 A 
ATOM     13  C   UNL     1      46.149   1.321   3.688  0.00  0.00    +0.000 A 
ATOM     14  C   UNL     1      45.752   0.581   2.578  0.00  0.00    +0.000 A 
ATOM     15  C   UNL     1      46.103  -0.759   2.496  0.00  0.00    +0.000 A 
ATOM     16  C   UNL     1      46.825  -1.310   3.541  0.00  0.00    +0.000 A 
ATOM     17  N   UNL     1      47.245  -0.612   4.622  0.00  0.00    +0.000 NA
ENDBRANCH  11  12
ENDBRANCH   8  11
ENDBRANCH   7   8
ENDBRANCH   1   7
BRANCH   4  18
ATOM     18  C   UNL     1      44.194   4.614  12.282  0.00  0.00    +0.000 C 
BRANCH  18  19
ATOM     19  N   UNL     1      45.265   5.281  12.973  0.00  0.00    +0.000 N 
ATOM     20  C   UNL     1      46.224   4.578  13.648  0.00  0.00    +0.000 C 
ATOM     21  O   UNL     1      46.254   3.348  13.656  0.00  0.00    +0.000 OA
ATOM     22  H   UNL     1      45.155   6.265  13.191  0.00  0.00    +0.000 HD
BRANCH  20  23
ATOM     23  C   UNL     1      47.268   5.374  14.310  0.00  0.00    +0.000 A 
ATOM     24  C   UNL     1      47.896   6.390  13.607  0.00  0.00    +0.000 A 
ATOM     25  S   UNL     1      49.037   7.252  14.528  0.00  0.00    +0.000 S 
ATOM     26  C   UNL     1      48.768   6.258  15.880  0.00  0.00    +0.000 A 
ATOM     27  N   UNL     1      49.480   6.467  17.011  0.00  0.00    +0.000 NA
ATOM     28  C   UNL     1      49.201   5.615  18.010  0.00  0.00    +0.000 A 
ATOM     29  C   UNL     1      48.276   4.597  17.957  0.00  0.00    +0.000 A 
ATOM     30  C   UNL     1      47.564   4.426  16.769  0.00  0.00    +0.000 A 
ATOM     31  C   UNL     1      47.800   5.282  15.665  0.00  0.00    +0.000 A 
BRANCH  30  32
ATOM     32  O   UNL     1      46.636   3.413  16.686  0.00  0.00    +0.000 OA
ATOM     33  H   UNL     1      47.058   2.569  16.928  0.00  0.00    +0.000 HD
ENDBRANCH  30  32
ENDBRANCH  20  23
ENDBRANCH  18  19
ENDBRANCH   4  18
TORSDOF 8
ENDMDL
MODEL 6
REMARK VINA RESULT:    -7.068      2.851      8.456
REMARK INTER + INTRA:         -11.492
REMARK INTER:                  -9.706
REMARK INTRA:                  -1.786
REMARK UNBOUND:                -1.325
REMARK  Name = 
REMARK  9 active torsions:
REMARK  status: ('A' for Active; 'I' for Inactive)
REMARK    1  A    between atoms: C_1  and  C_2
REMARK    2  A    between atoms: C_2  and  N_3
REMARK    3  A    between atoms: C_2  and  C_25
REMARK    4  A    between atoms: N_3  and  C_4
REMARK    5  A    between atoms: C_4  and  C_5
REMARK    6  A    between atoms: C_8  and  C_9
REMARK    7  A    between atoms: C_9  and  N_10
REMARK    8  A    between atoms: C_11  and  C_13
REMARK    9  A    between atoms: C_20  and  O_21
REMARK                            x       y       z     vdW  Elec       q    Type
REMARK                         _______ _______ _______ _____ _____    ______ ____
ROOT
ATOM      1  C   UNL     1      48.999   7.915  16.246  0.00  0.00    +0.000 A 
ATOM      2  C   UNL     1      49.062   6.731  15.500  0.00  0.00    +0.000 A 
ATOM      3  C   UNL     1      48.561   6.677  14.195  0.00  0.00    +0.000 A 
ATOM      4  C   UNL     1      47.983   7.807  13.603  0.00  0.00    +0.000 A 
ATOM      5  C   UNL     1      47.884   8.984  14.360  0.00  0.00    +0.000 A 
ATOM      6  C   UNL     1      48.392   9.038  15.663  0.00  0.00    +0.000 A 
ENDROOT
BRANCH   1   7
ATOM      7  C   UNL     1      49.536   7.978  17.662  0.00  0.00    +0.000 C 
BRANCH   7   8
ATOM      8  N   UNL     1      48.530   7.591  18.656  0.00  0.00    +0.000 NA
ATOM      9  H   UNL     1      48.451   8.342  19.343  0.00  0.00    +0.000 HD
BRANCH   8  11
ATOM     10  C   UNL     1      50.382   6.328  19.796  0.00  0.00    +0.000 C 
ATOM     11  C   UNL     1      48.899   6.367  19.401  0.00  0.00    +0.000 C 
BRANCH  11  12
ATOM     12  C   UNL     1      48.597   5.099  18.598  0.00  0.00    +0.000 A 
ATOM     13  C   UNL     1      47.320   4.879  18.075  0.00  0.00    +0.000 A 
ATOM     14  C   UNL     1      47.119   3.819  17.196  0.00  0.00    +0.000 A 
ATOM     15  C   UNL     1      48.183   2.985  16.887  0.00  0.00    +0.000 A 
ATOM     16  C   UNL     1      49.406   3.236  17.485  0.00  0.00    +0.000 A 
ATOM     17  N   UNL     1      49.639   4.271  18.326  0.00  0.00    +0.000 NA
ENDBRANCH  11  12
ENDBRANCH   8  11
ENDBRANCH   7   8
ENDBRANCH   1   7
BRANCH   4  18
ATOM     18  C   UNL     1      47.458   7.765  12.192  0.00  0.00    +0.000 C 
BRANCH  18  19
ATOM     19  N   UNL     1      46.779   6.527  11.918  0.00  0.00    +0.000 N 
ATOM     20  C   UNL     1      45.415   6.441  11.948  0.00  0.00    +0.000 C 
ATOM     21  O   UNL     1      44.699   7.419  12.156  0.00  0.00    +0.000 OA
ATOM     22  H   UNL     1      47.311   5.666  11.974  0.00  0.00    +0.000 HD
BRANCH  20  23
ATOM     23  C   UNL     1      44.841   5.122  11.646  0.00  0.00    +0.000 A 
ATOM     24  C   UNL     1      44.162   4.432  12.638  0.00  0.00    +0.000 A 
ATOM     25  S   UNL     1      43.511   2.950  12.115  0.00  0.00    +0.000 S 
ATOM     26  C   UNL     1      44.164   3.158  10.560  0.00  0.00    +0.000 A 
ATOM     27  N   UNL     1      43.980   2.194   9.628  0.00  0.00    +0.000 NA
ATOM     28  C   UNL     1      44.552   2.451   8.441  0.00  0.00    +0.000 A 
ATOM     29  C   UNL     1      45.272   3.582   8.130  0.00  0.00    +0.000 A 
ATOM     30  C   UNL     1      45.428   4.548   9.124  0.00  0.00    +0.000 A 
ATOM     31  C   UNL     1      44.857   4.354  10.406  0.00  0.00    +0.000 A 
BRANCH  30  32
ATOM     32  O   UNL     1      46.148   5.687   8.841  0.00  0.00    +0.000 OA
ATOM     33  H   UNL     1      46.535   6.036   9.664  0.00  0.00    +0.000 HD
ENDBRANCH  30  32
ENDBRANCH  20  23
ENDBRANCH  18  19
ENDBRANCH   4  18
TORSDOF 8
ENDMDL
MODEL 7
REMARK VINA RESULT:    -6.674      3.936      6.461
REMARK INTER + INTRA:         -10.925
REMARK INTER:                 -10.103
REMARK INTRA:                  -0.822
REMARK UNBOUND:                -1.325
REMARK  Name = 
REMARK  9 active torsions:
REMARK  status: ('A' for Active; 'I' for Inactive)
REMARK    1  A    between atoms: C_1  and  C_2
REMARK    2  A    between atoms: C_2  and  N_3
REMARK    3  A    between atoms: C_2  and  C_25
REMARK    4  A    between atoms: N_3  and  C_4
REMARK    5  A    between atoms: C_4  and  C_5
REMARK    6  A    between atoms: C_8  and  C_9
REMARK    7  A    between atoms: C_9  and  N_10
REMARK    8  A    between atoms: C_11  and  C_13
REMARK    9  A    between atoms: C_20  and  O_21
REMARK                            x       y       z     vdW  Elec       q    Type
REMARK                         _______ _______ _______ _____ _____    ______ ____
ROOT
ATOM      1  C   UNL     1      45.226   7.654  11.938  0.00  0.00    +0.000 A 
ATOM      2  C   UNL     1      46.500   7.559  12.512  0.00  0.00    +0.000 A 
ATOM      3  C   UNL     1      46.868   6.439  13.264  0.00  0.00    +0.000 A 
ATOM      4  C   UNL     1      45.969   5.383  13.462  0.00  0.00    +0.000 A 
ATOM      5  C   UNL     1      44.680   5.490  12.921  0.00  0.00    +0.000 A 
ATOM      6  C   UNL     1      44.316   6.609  12.162  0.00  0.00    +0.000 A 
ENDROOT
BRANCH   1   7
ATOM      7  C   UNL     1      44.821   8.867  11.126  0.00  0.00    +0.000 C 
BRANCH   7   8
ATOM      8  N   UNL     1      43.671   9.568  11.708  0.00  0.00    +0.000 NA
ATOM      9  H   UNL     1      43.216   8.940  12.373  0.00  0.00    +0.000 HD
BRANCH   8  11
ATOM     10  C   UNL     1      43.202  10.846   9.593  0.00  0.00    +0.000 C 
ATOM     11  C   UNL     1      42.652   9.935  10.701  0.00  0.00    +0.000 C 
BRANCH  11  12
ATOM     12  C   UNL     1      41.454  10.645  11.337  0.00  0.00    +0.000 A 
ATOM     13  C   UNL     1      40.153  10.209  11.079  0.00  0.00    +0.000 A 
ATOM     14  C   UNL     1      39.098  10.747  11.810  0.00  0.00    +0.000 A 
ATOM     15  C   UNL     1      39.359  11.729  12.754  0.00  0.00    +0.000 A 
ATOM     16  C   UNL     1      40.669  12.146  12.917  0.00  0.00    +0.000 A 
ATOM     17  N   UNL     1      41.719  11.628  12.238  0.00  0.00    +0.000 NA
ENDBRANCH  11  12
ENDBRANCH   8  11
ENDBRANCH   7   8
ENDBRANCH   1   7
BRANCH   4  18
ATOM     18  C   UNL     1      46.361   4.163  14.253  0.00  0.00    +0.000 C 
BRANCH  18  19
ATOM     19  N   UNL     1      47.458   4.441  15.142  0.00  0.00    +0.000 N 
ATOM     20  C   UNL     1      47.423   4.066  16.456  0.00  0.00    +0.000 C 
ATOM     21  O   UNL     1      46.485   3.429  16.933  0.00  0.00    +0.000 OA
ATOM     22  H   UNL     1      48.129   5.150  14.868  0.00  0.00    +0.000 HD
BRANCH  20  23
ATOM     23  C   UNL     1      48.607   4.403  17.260  0.00  0.00    +0.000 A 
ATOM     24  C   UNL     1      48.640   5.604  17.952  0.00  0.00    +0.000 A 
ATOM     25  S   UNL     1      50.051   5.819  18.876  0.00  0.00    +0.000 S 
ATOM     26  C   UNL     1      50.688   4.339  18.337  0.00  0.00    +0.000 A 
ATOM     27  N   UNL     1      51.915   3.952  18.754  0.00  0.00    +0.000 NA
ATOM     28  C   UNL     1      52.329   2.777  18.254  0.00  0.00    +0.000 A 
ATOM     29  C   UNL     1      51.612   1.980  17.391  0.00  0.00    +0.000 A 
ATOM     30  C   UNL     1      50.349   2.422  16.995  0.00  0.00    +0.000 A 
ATOM     31  C   UNL     1      49.838   3.653  17.475  0.00  0.00    +0.000 A 
BRANCH  30  32
ATOM     32  O   UNL     1      49.613   1.646  16.128  0.00  0.00    +0.000 OA
ATOM     33  H   UNL     1      50.184   0.954  15.750  0.00  0.00    +0.000 HD
ENDBRANCH  30  32
ENDBRANCH  20  23
ENDBRANCH  18  19
ENDBRANCH   4  18
TORSDOF 8
ENDMDL
MODEL 8
REMARK VINA RESULT:    -6.658      3.850      7.028
REMARK INTER + INTRA:         -10.902
REMARK INTER:                  -9.787
REMARK INTRA:                  -1.115
REMARK UNBOUND:                -1.325
REMARK  Name = 
REMARK  9 active torsions:
REMARK  status: ('A' for Active; 'I' for Inactive)
REMARK    1  A    between atoms: C_1  and  C_2
REMARK    2  A    between atoms: C_2  and  N_3
REMARK    3  A    between atoms: C_2  and  C_25
REMARK    4  A    between atoms: N_3  and  C_4
REMARK    5  A    between atoms: C_4  and  C_5
REMARK    6  A    between atoms: C_8  and  C_9
REMARK    7  A    between atoms: C_9  and  N_10
REMARK    8  A    between atoms: C_11  and  C_13
REMARK    9  A    between atoms: C_20  and  O_21
REMARK                            x       y       z     vdW  Elec       q    Type
REMARK                         _______ _______ _______ _____ _____    ______ ____
ROOT
ATOM      1  C   UNL     1      44.726   9.069  11.674  0.00  0.00    +0.000 A 
ATOM      2  C   UNL     1      44.191   7.884  11.152  0.00  0.00    +0.000 A 
ATOM      3  C   UNL     1      44.662   6.636  11.573  0.00  0.00    +0.000 A 
ATOM      4  C   UNL     1      45.683   6.543  12.527  0.00  0.00    +0.000 A 
ATOM      5  C   UNL     1      46.248   7.726  13.024  0.00  0.00    +0.000 A 
ATOM      6  C   UNL     1      45.769   8.974  12.608  0.00  0.00    +0.000 A 
ENDROOT
BRANCH   1   7
ATOM      7  C   UNL     1      44.221  10.423  11.217  0.00  0.00    +0.000 C 
BRANCH   7   8
ATOM      8  N   UNL     1      43.078  10.888  12.011  0.00  0.00    +0.000 NA
ATOM      9  H   UNL     1      43.028  10.325  12.862  0.00  0.00    +0.000 HD
BRANCH   8  11
ATOM     10  C   UNL     1      41.769  11.363   9.916  0.00  0.00    +0.000 C 
ATOM     11  C   UNL     1      41.786  10.719  11.310  0.00  0.00    +0.000 C 
BRANCH  11  12
ATOM     12  C   UNL     1      40.624  11.310  12.111  0.00  0.00    +0.000 A 
ATOM     13  C   UNL     1      39.304  10.985  11.790  0.00  0.00    +0.000 A 
ATOM     14  C   UNL     1      38.279  11.383  12.644  0.00  0.00    +0.000 A 
ATOM     15  C   UNL     1      38.589  12.122  13.776  0.00  0.00    +0.000 A 
ATOM     16  C   UNL     1      39.915  12.449  14.000  0.00  0.00    +0.000 A 
ATOM     17  N   UNL     1      40.936  12.060  13.202  0.00  0.00    +0.000 NA
ENDBRANCH  11  12
ENDBRANCH   8  11
ENDBRANCH   7   8
ENDBRANCH   1   7
BRANCH   4  18
ATOM     18  C   UNL     1      46.185   5.204  13.003  0.00  0.00    +0.000 C 
BRANCH  18  19
ATOM     19  N   UNL     1      46.751   5.291  14.322  0.00  0.00    +0.000 N 
ATOM     20  C   UNL     1      47.290   4.196  14.940  0.00  0.00    +0.000 C 
ATOM     21  O   UNL     1      47.368   3.101  14.386  0.00  0.00    +0.000 OA
ATOM     22  H   UNL     1      46.505   6.088  14.898  0.00  0.00    +0.000 HD
BRANCH  20  23
ATOM     23  C   UNL     1      47.841   4.416  16.286  0.00  0.00    +0.000 A 
ATOM     24  C   UNL     1      47.416   3.614  17.333  0.00  0.00    +0.000 A 
ATOM     25  S   UNL     1      48.188   3.956  18.810  0.00  0.00    +0.000 S 
ATOM     26  C   UNL     1      49.073   5.225  18.108  0.00  0.00    +0.000 A 
ATOM     27  N   UNL     1      49.916   5.953  18.876  0.00  0.00    +0.000 NA
ATOM     28  C   UNL     1      50.551   6.941  18.226  0.00  0.00    +0.000 A 
ATOM     29  C   UNL     1      50.409   7.237  16.889  0.00  0.00    +0.000 A 
ATOM     30  C   UNL     1      49.532   6.453  16.139  0.00  0.00    +0.000 A 
ATOM     31  C   UNL     1      48.820   5.392  16.750  0.00  0.00    +0.000 A 
BRANCH  30  32
ATOM     32  O   UNL     1      49.367   6.731  14.801  0.00  0.00    +0.000 OA
ATOM     33  H   UNL     1      49.301   7.695  14.678  0.00  0.00    +0.000 HD
ENDBRANCH  30  32
ENDBRANCH  20  23
ENDBRANCH  18  19
ENDBRANCH   4  18
TORSDOF 8
ENDMDL
MODEL 9
REMARK VINA RESULT:    -6.493      4.025      5.773
REMARK INTER + INTRA:         -10.665
REMARK INTER:                  -9.511
REMARK INTRA:                  -1.153
REMARK UNBOUND:                -1.325
REMARK  Name = 
REMARK  9 active torsions:
REMARK  status: ('A' for Active; 'I' for Inactive)
REMARK    1  A    between atoms: C_1  and  C_2
REMARK    2  A    between atoms: C_2  and  N_3
REMARK    3  A    between atoms: C_2  and  C_25
REMARK    4  A    between atoms: N_3  and  C_4
REMARK    5  A    between atoms: C_4  and  C_5
REMARK    6  A    between atoms: C_8  and  C_9
REMARK    7  A    between atoms: C_9  and  N_10
REMARK    8  A    between atoms: C_11  and  C_13
REMARK    9  A    between atoms: C_20  and  O_21
REMARK                            x       y       z     vdW  Elec       q    Type
REMARK                         _______ _______ _______ _____ _____    ______ ____
ROOT
ATOM      1  C   UNL     1      44.942   6.317  12.245  0.00  0.00    +0.000 A 
ATOM      2  C   UNL     1      45.946   5.533  12.827  0.00  0.00    +0.000 A 
ATOM      3  C   UNL     1      47.076   6.123  13.403  0.00  0.00    +0.000 A 
ATOM      4  C   UNL     1      47.230   7.515  13.411  0.00  0.00    +0.000 A 
ATOM      5  C   UNL     1      46.246   8.302  12.796  0.00  0.00    +0.000 A 
ATOM      6  C   UNL     1      45.112   7.711  12.227  0.00  0.00    +0.000 A 
ENDROOT
BRANCH   1   7
ATOM      7  C   UNL     1      43.719   5.682  11.615  0.00  0.00    +0.000 C 
BRANCH   7   8
ATOM      8  N   UNL     1      43.920   5.376  10.195  0.00  0.00    +0.000 NA
ATOM      9  H   UNL     1      43.185   5.841   9.658  0.00  0.00    +0.000 HD
BRANCH   8  11
ATOM     10  C   UNL     1      43.758   3.060  11.161  0.00  0.00    +0.000 C 
ATOM     11  C   UNL     1      43.816   3.931   9.898  0.00  0.00    +0.000 C 
BRANCH  11  12
ATOM     12  C   UNL     1      44.989   3.439   9.046  0.00  0.00    +0.000 A 
ATOM     13  C   UNL     1      45.313   2.081   9.001  0.00  0.00    +0.000 A 
ATOM     14  C   UNL     1      46.258   1.638   8.081  0.00  0.00    +0.000 A 
ATOM     15  C   UNL     1      46.881   2.559   7.253  0.00  0.00    +0.000 A 
ATOM     16  C   UNL     1      46.545   3.895   7.392  0.00  0.00    +0.000 A 
ATOM     17  N   UNL     1      45.615   4.355   8.261  0.00  0.00    +0.000 NA
ENDBRANCH  11  12
ENDBRANCH   8  11
ENDBRANCH   7   8
ENDBRANCH   1   7
BRANCH   4  18
ATOM     18  C   UNL     1      48.433   8.163  14.047  0.00  0.00    +0.000 C 
BRANCH  18  19
ATOM     19  N   UNL     1      49.127   9.013  13.117  0.00  0.00    +0.000 N 
ATOM     20  C   UNL     1      49.959   8.496  12.163  0.00  0.00    +0.000 C 
ATOM     21  O   UNL     1      50.114   7.285  12.013  0.00  0.00    +0.000 OA
ATOM     22  H   UNL     1      49.218   9.997  13.343  0.00  0.00    +0.000 HD
BRANCH  20  23
ATOM     23  C   UNL     1      50.607   9.468  11.270  0.00  0.00    +0.000 A 
ATOM     24  C   UNL     1      50.036  10.719  11.098  0.00  0.00    +0.000 A 
ATOM     25  S   UNL     1      50.935  11.744  10.082  0.00  0.00    +0.000 S 
ATOM     26  C   UNL     1      52.086  10.529   9.794  0.00  0.00    +0.000 A 
ATOM     27  N   UNL     1      53.122  10.778   8.959  0.00  0.00    +0.000 NA
ATOM     28  C   UNL     1      53.962   9.745   8.788  0.00  0.00    +0.000 A 
ATOM     29  C   UNL     1      53.841   8.511   9.388  0.00  0.00    +0.000 A 
ATOM     30  C   UNL     1      52.760   8.307  10.245  0.00  0.00    +0.000 A 
ATOM     31  C   UNL     1      51.825   9.346  10.477  0.00  0.00    +0.000 A 
BRANCH  30  32
ATOM     32  O   UNL     1      52.613   7.081  10.854  0.00  0.00    +0.000 OA
ATOM     33  H   UNL     1      52.115   6.486  10.265  0.00  0.00    +0.000 HD
ENDBRANCH  30  32
ENDBRANCH  20  23
ENDBRANCH  18  19
ENDBRANCH   4  18
TORSDOF 8
ENDMDL
