MODEL 1
REMARK VINA RESULT:    -8.272      0.000      0.000
REMARK INTER + INTRA:         -12.576
REMARK INTER:                 -11.657
REMARK INTRA:                  -0.919
REMARK UNBOUND:                -0.919
REMARK  Name = 
REMARK  8 active torsions:
REMARK  status: ('A' for Active; 'I' for Inactive)
REMARK    1  A    between atoms: C_1  and  O_2
REMARK    2  A    between atoms: O_2  and  C_3
REMARK    3  A    between atoms: C_6  and  C_7
REMARK    4  A    between atoms: C_7  and  C_8
REMARK    5  A    between atoms: C_8  and  N_9
REMARK    6  A    between atoms: C_13  and  C_14
REMARK    7  A    between atoms: C_20  and  O_21
REMARK    8  A    between atoms: O_21  and  C_22
REMARK                            x       y       z     vdW  Elec       q    Type
REMARK                         _______ _______ _______ _____ _____    ______ ____
ROOT
ATOM      1  C   UNL     1      43.320   5.255  12.575  0.00  0.00    +0.000 C 
ENDROOT
BRANCH   1   5
ATOM      2  C   UNL     1      47.523   6.057  13.363  0.00  0.00    +0.000 A 
ATOM      3  C   UNL     1      46.703   7.008  12.736  0.00  0.00    +0.000 A 
ATOM      4  C   UNL     1      45.352   6.748  12.480  0.00  0.00    +0.000 A 
ATOM      5  C   UNL     1      44.783   5.526  12.840  0.00  0.00    +0.000 A 
ATOM      6  C   UNL     1      45.593   4.581  13.483  0.00  0.00    +0.000 A 
ATOM      7  C   UNL     1      46.956   4.828  13.731  0.00  0.00    +0.000 A 
BRANCH   2   9
ATOM      8  C   UNL     1      49.187   7.239  14.599  0.00  0.00    +0.000 C 
ATOM      9  O   UNL     1      48.852   6.268  13.612  0.00  0.00    +0.000 OA
ENDBRANCH   2   9
BRANCH   7  10
ATOM     10  O   UNL     1      47.568   3.798  14.412  0.00  0.00    +0.000 OA
BRANCH  10  11
ATOM     11  C   UNL     1      47.325   3.585  15.819  0.00  0.00    +0.000 C 
ATOM     12  C   UNL     1      47.789   4.682  16.806  0.00  0.00    +0.000 C 
ATOM     13  C   UNL     1      48.477   3.608  17.659  0.00  0.00    +0.000 C 
ATOM     14  C   UNL     1      48.360   2.637  16.480  0.00  0.00    +0.000 C 
ENDBRANCH  10  11
ENDBRANCH   7  10
ENDBRANCH   1   5
BRANCH   1  15
ATOM     15  C   UNL     1      43.118   4.426  11.303  0.00  0.00    +0.000 C 
BRANCH  15  16
ATOM     16  N   UNL     1      43.879   4.986  10.175  0.00  0.00    +0.000 N 
ATOM     17  C   UNL     1      44.627   4.007   9.491  0.00  0.00    +0.000 A 
ATOM     18  C   UNL     1      45.422   4.389   8.415  0.00  0.00    +0.000 A 
ATOM     19  C   UNL     1      46.180   3.425   7.741  0.00  0.00    +0.000 A 
ATOM     20  C   UNL     1      46.126   2.093   8.152  0.00  0.00    +0.000 A 
ATOM     21  C   UNL     1      45.288   1.797   9.210  0.00  0.00    +0.000 A 
ATOM     22  N   UNL     1      44.546   2.717   9.874  0.00  0.00    +0.000 NA
ATOM     23  H   UNL     1      44.513   5.726  10.468  0.00  0.00    +0.000 HD
BRANCH  20  24
ATOM     24  C   UNL     1      46.950   1.073   7.460  0.00  0.00    +0.000 C 
ATOM     25  N   UNL     1      47.896   1.480   6.559  0.00  0.00    +0.000 N 
ATOM     26  O   UNL     1      46.783  -0.121   7.675  0.00  0.00    +0.000 OA
ATOM     27  H   UNL     1      48.087   2.433   6.284  0.00  0.00    +0.000 HD
ATOM     28  H   UNL     1      48.418   0.750   6.091  0.00  0.00    +0.000 HD
ENDBRANCH  20  24
ENDBRANCH  15  16
ENDBRANCH   1  15
TORSDOF 7
ENDMDL
MODEL 2
REMARK VINA RESULT:    -7.340      1.853      3.907
REMARK INTER + INTRA:         -11.263
REMARK INTER:                 -10.461
REMARK INTRA:                  -0.802
REMARK UNBOUND:                -0.919
REMARK  Name = 
REMARK  8 active torsions:
REMARK  status: ('A' for Active; 'I' for Inactive)
REMARK    1  A    between atoms: C_1  and  O_2
REMARK    2  A    between atoms: O_2  and  C_3
REMARK    3  A    between atoms: C_6  and  C_7
REMARK    4  A    between atoms: C_7  and  C_8
REMARK    5  A    between atoms: C_8  and  N_9
REMARK    6  A    between atoms: C_13  and  C_14
REMARK    7  A    between atoms: C_20  and  O_21
REMARK    8  A    between atoms: O_21  and  C_22
REMARK                            x       y       z     vdW  Elec       q    Type
REMARK                         _______ _______ _______ _____ _____    ______ ____
ROOT
ATOM      1  C   UNL     1      43.393   5.104  12.513  0.00  0.00    +0.000 C 
ENDROOT
BRANCH   1   5
ATOM      2  C   UNL     1      47.509   6.071  13.544  0.00  0.00    +0.000 A 
ATOM      3  C   UNL     1      46.904   4.884  13.987  0.00  0.00    +0.000 A 
ATOM      4  C   UNL     1      45.579   4.576  13.658  0.00  0.00    +0.000 A 
ATOM      5  C   UNL     1      44.819   5.448  12.879  0.00  0.00    +0.000 A 
ATOM      6  C   UNL     1      45.425   6.625  12.419  0.00  0.00    +0.000 A 
ATOM      7  C   UNL     1      46.751   6.950  12.757  0.00  0.00    +0.000 A 
BRANCH   2   9
ATOM      8  C   UNL     1      49.044   6.854  15.194  0.00  0.00    +0.000 C 
ATOM      9  O   UNL     1      48.794   6.415  13.862  0.00  0.00    +0.000 OA
ENDBRANCH   2   9
BRANCH   7  10
ATOM     10  O   UNL     1      47.178   8.122  12.171  0.00  0.00    +0.000 OA
BRANCH  10  11
ATOM     11  C   UNL     1      46.664   9.401  12.601  0.00  0.00    +0.000 C 
ATOM     12  C   UNL     1      45.370   9.922  11.933  0.00  0.00    +0.000 C 
ATOM     13  C   UNL     1      46.057  11.270  11.677  0.00  0.00    +0.000 C 
ATOM     14  C   UNL     1      47.407  10.603  11.960  0.00  0.00    +0.000 C 
ENDBRANCH  10  11
ENDBRANCH   7  10
ENDBRANCH   1   5
BRANCH   1  15
ATOM     15  C   UNL     1      43.262   4.727  11.035  0.00  0.00    +0.000 C 
BRANCH  15  16
ATOM     16  N   UNL     1      43.679   3.336  10.801  0.00  0.00    +0.000 N 
ATOM     17  C   UNL     1      44.565   3.215   9.712  0.00  0.00    +0.000 A 
ATOM     18  C   UNL     1      45.027   1.954   9.349  0.00  0.00    +0.000 A 
ATOM     19  C   UNL     1      45.894   1.824   8.258  0.00  0.00    +0.000 A 
ATOM     20  C   UNL     1      46.289   2.961   7.551  0.00  0.00    +0.000 A 
ATOM     21  C   UNL     1      45.806   4.176   7.999  0.00  0.00    +0.000 A 
ATOM     22  N   UNL     1      44.967   4.320   9.053  0.00  0.00    +0.000 NA
ATOM     23  H   UNL     1      42.886   2.719  10.639  0.00  0.00    +0.000 HD
BRANCH  20  24
ATOM     24  C   UNL     1      47.184   2.825   6.378  0.00  0.00    +0.000 C 
ATOM     25  N   UNL     1      48.511   2.558   6.578  0.00  0.00    +0.000 N 
ATOM     26  O   UNL     1      46.752   2.965   5.239  0.00  0.00    +0.000 OA
ATOM     27  H   UNL     1      48.972   2.461   7.472  0.00  0.00    +0.000 HD
ATOM     28  H   UNL     1      49.090   2.498   5.750  0.00  0.00    +0.000 HD
ENDBRANCH  20  24
ENDBRANCH  15  16
ENDBRANCH   1  15
TORSDOF 7
ENDMDL
MODEL 3
REMARK VINA RESULT:    -7.242      1.803      3.560
REMARK INTER + INTRA:         -11.124
REMARK INTER:                 -10.377
REMARK INTRA:                  -0.747
REMARK UNBOUND:                -0.919
REMARK  Name = 
REMARK  8 active torsions:
REMARK  status: ('A' for Active; 'I' for Inactive)
REMARK    1  A    between atoms: C_1  and  O_2
REMARK    2  A    between atoms: O_2  and  C_3
REMARK    3  A    between atoms: C_6  and  C_7
REMARK    4  A    between atoms: C_7  and  C_8
REMARK    5  A    between atoms: C_8  and  N_9
REMARK    6  A    between atoms: C_13  and  C_14
REMARK    7  A    between atoms: C_20  and  O_21
REMARK    8  A    between atoms: O_21  and  C_22
REMARK                            x       y       z     vdW  Elec       q    Type
REMARK                         _______ _______ _______ _____ _____    ______ ____
ROOT
ATOM      1  C   UNL     1      43.419   5.594  12.018  0.00  0.00    +0.000 C 
ENDROOT
BRANCH   1   5
ATOM      2  C   UNL     1      47.352   5.747  13.874  0.00  0.00    +0.000 A 
ATOM      3  C   UNL     1      46.543   4.604  13.970  0.00  0.00    +0.000 A 
ATOM      4  C   UNL     1      45.277   4.557  13.375  0.00  0.00    +0.000 A 
ATOM      5  C   UNL     1      44.781   5.654  12.671  0.00  0.00    +0.000 A 
ATOM      6  C   UNL     1      45.593   6.790  12.557  0.00  0.00    +0.000 A 
ATOM      7  C   UNL     1      46.861   6.852  13.164  0.00  0.00    +0.000 A 
BRANCH   2   9
ATOM      8  C   UNL     1      48.699   6.642  15.628  0.00  0.00    +0.000 C 
ATOM      9  O   UNL     1      48.586   5.836  14.458  0.00  0.00    +0.000 OA
ENDBRANCH   2   9
BRANCH   7  10
ATOM     10  O   UNL     1      47.521   8.032  12.898  0.00  0.00    +0.000 OA
BRANCH  10  11
ATOM     11  C   UNL     1      48.339   8.180  11.717  0.00  0.00    +0.000 C 
ATOM     12  C   UNL     1      49.776   7.610  11.757  0.00  0.00    +0.000 C 
ATOM     13  C   UNL     1      50.309   8.948  11.226  0.00  0.00    +0.000 C 
ATOM     14  C   UNL     1      48.967   9.593  11.584  0.00  0.00    +0.000 C 
ENDBRANCH  10  11
ENDBRANCH   7  10
ENDBRANCH   1   5
BRANCH   1  15
ATOM     15  C   UNL     1      43.506   5.100  10.571  0.00  0.00    +0.000 C 
BRANCH  15  16
ATOM     16  N   UNL     1      43.892   3.681  10.514  0.00  0.00    +0.000 N 
ATOM     17  C   UNL     1      44.771   3.405   9.447  0.00  0.00    +0.000 A 
ATOM     18  C   UNL     1      45.205   2.098   9.246  0.00  0.00    +0.000 A 
ATOM     19  C   UNL     1      46.064   1.814   8.179  0.00  0.00    +0.000 A 
ATOM     20  C   UNL     1      46.481   2.843   7.334  0.00  0.00    +0.000 A 
ATOM     21  C   UNL     1      46.025   4.115   7.625  0.00  0.00    +0.000 A 
ATOM     22  N   UNL     1      45.193   4.410   8.653  0.00  0.00    +0.000 NA
ATOM     23  H   UNL     1      43.086   3.066  10.432  0.00  0.00    +0.000 HD
BRANCH  20  24
ATOM     24  C   UNL     1      47.367   2.541   6.185  0.00  0.00    +0.000 C 
ATOM     25  N   UNL     1      48.570   1.930   6.414  0.00  0.00    +0.000 N 
ATOM     26  O   UNL     1      47.042   2.845   5.043  0.00  0.00    +0.000 OA
ATOM     27  H   UNL     1      48.947   1.673   7.315  0.00  0.00    +0.000 HD
ATOM     28  H   UNL     1      49.155   1.766   5.604  0.00  0.00    +0.000 HD
ENDBRANCH  20  24
ENDBRANCH  15  16
ENDBRANCH   1  15
TORSDOF 7
ENDMDL
MODEL 4
REMARK VINA RESULT:    -6.713      3.301      7.557
REMARK INTER + INTRA:         -10.379
REMARK INTER:                  -9.561
REMARK INTRA:                  -0.819
REMARK UNBOUND:                -0.919
REMARK  Name = 
REMARK  8 active torsions:
REMARK  status: ('A' for Active; 'I' for Inactive)
REMARK    1  A    between atoms: C_1  and  O_2
REMARK    2  A    between atoms: O_2  and  C_3
REMARK    3  A    between atoms: C_6  and  C_7
REMARK    4  A    between atoms: C_7  and  C_8
REMARK    5  A    between atoms: C_8  and  N_9
REMARK    6  A    between atoms: C_13  and  C_14
REMARK    7  A    between atoms: C_20  and  O_21
REMARK    8  A    between atoms: O_21  and  C_22
REMARK                            x       y       z     vdW  Elec       q    Type
REMARK                         _______ _______ _______ _____ _____    ______ ____
ROOT
ATOM      1  C   UNL     1      47.092   7.750  12.082  0.00  0.00    +0.000 C 
ENDROOT
BRANCH   1   5
ATOM      2  C   UNL     1      44.128   4.719  11.105  0.00  0.00    +0.000 A 
ATOM      3  C   UNL     1      44.169   5.318  12.374  0.00  0.00    +0.000 A 
ATOM      4  C   UNL     1      45.125   6.291  12.688  0.00  0.00    +0.000 A 
ATOM      5  C   UNL     1      46.071   6.689  11.743  0.00  0.00    +0.000 A 
ATOM      6  C   UNL     1      46.021   6.106  10.470  0.00  0.00    +0.000 A 
ATOM      7  C   UNL     1      45.074   5.117  10.149  0.00  0.00    +0.000 A 
BRANCH   2   9
ATOM      8  C   UNL     1      43.204   2.566  11.559  0.00  0.00    +0.000 C 
ATOM      9  O   UNL     1      43.221   3.751  10.769  0.00  0.00    +0.000 OA
ENDBRANCH   2   9
BRANCH   7  10
ATOM     10  O   UNL     1      45.158   4.703   8.838  0.00  0.00    +0.000 OA
BRANCH  10  11
ATOM     11  C   UNL     1      46.172   3.765   8.416  0.00  0.00    +0.000 C 
ATOM     12  C   UNL     1      46.302   3.476   6.902  0.00  0.00    +0.000 C 
ATOM     13  C   UNL     1      46.278   1.970   7.199  0.00  0.00    +0.000 C 
ATOM     14  C   UNL     1      45.747   2.284   8.601  0.00  0.00    +0.000 C 
ENDBRANCH  10  11
ENDBRANCH   7  10
ENDBRANCH   1   5
BRANCH   1  15
ATOM     15  C   UNL     1      48.465   7.141  12.382  0.00  0.00    +0.000 C 
BRANCH  15  16
ATOM     16  N   UNL     1      48.935   7.521  13.723  0.00  0.00    +0.000 N 
ATOM     17  C   UNL     1      48.584   6.573  14.705  0.00  0.00    +0.000 A 
ATOM     18  C   UNL     1      48.937   6.807  16.032  0.00  0.00    +0.000 A 
ATOM     19  C   UNL     1      48.578   5.878  17.014  0.00  0.00    +0.000 A 
ATOM     20  C   UNL     1      47.877   4.726  16.654  0.00  0.00    +0.000 A 
ATOM     21  C   UNL     1      47.595   4.560  15.311  0.00  0.00    +0.000 A 
ATOM     22  N   UNL     1      47.935   5.448  14.346  0.00  0.00    +0.000 NA
ATOM     23  H   UNL     1      48.578   8.429  14.013  0.00  0.00    +0.000 HD
BRANCH  20  24
ATOM     24  C   UNL     1      47.470   3.754  17.696  0.00  0.00    +0.000 C 
ATOM     25  N   UNL     1      48.087   3.787  18.917  0.00  0.00    +0.000 N 
ATOM     26  O   UNL     1      46.602   2.919  17.471  0.00  0.00    +0.000 OA
ATOM     27  H   UNL     1      48.835   4.408  19.190  0.00  0.00    +0.000 HD
ATOM     28  H   UNL     1      47.796   3.089  19.589  0.00  0.00    +0.000 HD
ENDBRANCH  20  24
ENDBRANCH  15  16
ENDBRANCH   1  15
TORSDOF 7
ENDMDL
MODEL 5
REMARK VINA RESULT:    -6.513      2.967      3.955
REMARK INTER + INTRA:         -10.097
REMARK INTER:                  -9.342
REMARK INTRA:                  -0.755
REMARK UNBOUND:                -0.919
REMARK  Name = 
REMARK  8 active torsions:
REMARK  status: ('A' for Active; 'I' for Inactive)
REMARK    1  A    between atoms: C_1  and  O_2
REMARK    2  A    between atoms: O_2  and  C_3
REMARK    3  A    between atoms: C_6  and  C_7
REMARK    4  A    between atoms: C_7  and  C_8
REMARK    5  A    between atoms: C_8  and  N_9
REMARK    6  A    between atoms: C_13  and  C_14
REMARK    7  A    between atoms: C_20  and  O_21
REMARK    8  A    between atoms: O_21  and  C_22
REMARK                            x       y       z     vdW  Elec       q    Type
REMARK                         _______ _______ _______ _____ _____    ______ ____
ROOT
ATOM      1  C   UNL     1      44.048   5.370  11.982  0.00  0.00    +0.000 C 
ENDROOT
BRANCH   1   5
ATOM      2  C   UNL     1      45.290   9.539  11.870  0.00  0.00    +0.000 A 
ATOM      3  C   UNL     1      44.173   9.090  11.149  0.00  0.00    +0.000 A 
ATOM      4  C   UNL     1      43.776   7.748  11.183  0.00  0.00    +0.000 A 
ATOM      5  C   UNL     1      44.489   6.815  11.936  0.00  0.00    +0.000 A 
ATOM      6  C   UNL     1      45.594   7.263  12.672  0.00  0.00    +0.000 A 
ATOM      7  C   UNL     1      46.010   8.606  12.632  0.00  0.00    +0.000 A 
BRANCH   2   9
ATOM      8  C   UNL     1      44.787  11.827  11.419  0.00  0.00    +0.000 C 
ATOM      9  O   UNL     1      45.719  10.838  11.845  0.00  0.00    +0.000 OA
ENDBRANCH   2   9
BRANCH   7  10
ATOM     10  O   UNL     1      47.085   8.856  13.457  0.00  0.00    +0.000 OA
BRANCH  10  11
ATOM     11  C   UNL     1      48.409   9.051  12.917  0.00  0.00    +0.000 C 
ATOM     12  C   UNL     1      48.862   8.127  11.763  0.00  0.00    +0.000 C 
ATOM     13  C   UNL     1      50.166   7.838  12.520  0.00  0.00    +0.000 C 
ATOM     14  C   UNL     1      49.523   8.410  13.787  0.00  0.00    +0.000 C 
ENDBRANCH  10  11
ENDBRANCH   7  10
ENDBRANCH   1   5
BRANCH   1  15
ATOM     15  C   UNL     1      43.595   4.871  10.607  0.00  0.00    +0.000 C 
BRANCH  15  16
ATOM     16  N   UNL     1      43.909   3.446  10.426  0.00  0.00    +0.000 N 
ATOM     17  C   UNL     1      44.803   3.222   9.360  0.00  0.00    +0.000 A 
ATOM     18  C   UNL     1      45.175   1.918   9.048  0.00  0.00    +0.000 A 
ATOM     19  C   UNL     1      46.049   1.687   7.980  0.00  0.00    +0.000 A 
ATOM     20  C   UNL     1      46.543   2.765   7.245  0.00  0.00    +0.000 A 
ATOM     21  C   UNL     1      46.145   4.028   7.643  0.00  0.00    +0.000 A 
ATOM     22  N   UNL     1      45.300   4.271   8.674  0.00  0.00    +0.000 NA
ATOM     23  H   UNL     1      43.075   2.885  10.267  0.00  0.00    +0.000 HD
BRANCH  20  24
ATOM     24  C   UNL     1      47.446   2.524   6.095  0.00  0.00    +0.000 C 
ATOM     25  N   UNL     1      48.797   2.472   6.308  0.00  0.00    +0.000 N 
ATOM     26  O   UNL     1      46.998   2.386   4.963  0.00  0.00    +0.000 OA
ATOM     27  H   UNL     1      49.268   2.609   7.191  0.00  0.00    +0.000 HD
ATOM     28  H   UNL     1      49.378   2.330   5.491  0.00  0.00    +0.000 HD
ENDBRANCH  20  24
ENDBRANCH  15  16
ENDBRANCH   1  15
TORSDOF 7
ENDMDL
MODEL 6
REMARK VINA RESULT:    -6.388      4.132      7.688
REMARK INTER + INTRA:          -9.922
REMARK INTER:                  -8.454
REMARK INTRA:                  -1.468
REMARK UNBOUND:                -0.919
REMARK  Name = 
REMARK  8 active torsions:
REMARK  status: ('A' for Active; 'I' for Inactive)
REMARK    1  A    between atoms: C_1  and  O_2
REMARK    2  A    between atoms: O_2  and  C_3
REMARK    3  A    between atoms: C_6  and  C_7
REMARK    4  A    between atoms: C_7  and  C_8
REMARK    5  A    between atoms: C_8  and  N_9
REMARK    6  A    between atoms: C_13  and  C_14
REMARK    7  A    between atoms: C_20  and  O_21
REMARK    8  A    between atoms: O_21  and  C_22
REMARK                            x       y       z     vdW  Elec       q    Type
REMARK                         _______ _______ _______ _____ _____    ______ ____
ROOT
ATOM      1  C   UNL     1      48.091   7.608  12.850  0.00  0.00    +0.000 C 
ENDROOT
BRANCH   1   5
ATOM      2  C   UNL     1      45.547   4.080  12.747  0.00  0.00    +0.000 A 
ATOM      3  C   UNL     1      45.367   5.137  11.841  0.00  0.00    +0.000 A 
ATOM      4  C   UNL     1      46.184   6.273  11.877  0.00  0.00    +0.000 A 
ATOM      5  C   UNL     1      47.202   6.386  12.824  0.00  0.00    +0.000 A 
ATOM      6  C   UNL     1      47.397   5.325  13.718  0.00  0.00    +0.000 A 
ATOM      7  C   UNL     1      46.571   4.186  13.699  0.00  0.00    +0.000 A 
BRANCH   2   9
ATOM      8  C   UNL     1      43.509   3.039  12.070  0.00  0.00    +0.000 C 
ATOM      9  O   UNL     1      44.756   2.963  12.754  0.00  0.00    +0.000 OA
ENDBRANCH   2   9
BRANCH   7  10
ATOM     10  O   UNL     1      46.952   3.237  14.623  0.00  0.00    +0.000 OA
BRANCH  10  11
ATOM     11  C   UNL     1      47.774   3.588  15.756  0.00  0.00    +0.000 C 
ATOM     12  C   UNL     1      48.498   2.444  16.506  0.00  0.00    +0.000 C 
ATOM     13  C   UNL     1      47.964   2.994  17.836  0.00  0.00    +0.000 C 
ATOM     14  C   UNL     1      46.955   3.837  17.050  0.00  0.00    +0.000 C 
ENDBRANCH  10  11
ENDBRANCH   7  10
ENDBRANCH   1   5
BRANCH   1  15
ATOM     15  C   UNL     1      49.120   7.537  13.981  0.00  0.00    +0.000 C 
BRANCH  15  16
ATOM     16  N   UNL     1      48.510   7.866  15.279  0.00  0.00    +0.000 N 
ATOM     17  C   UNL     1      49.083   7.139  16.342  0.00  0.00    +0.000 A 
ATOM     18  C   UNL     1      48.591   7.322  17.632  0.00  0.00    +0.000 A 
ATOM     19  C   UNL     1      49.144   6.593  18.690  0.00  0.00    +0.000 A 
ATOM     20  C   UNL     1      50.184   5.696  18.443  0.00  0.00    +0.000 A 
ATOM     21  C   UNL     1      50.630   5.600  17.138  0.00  0.00    +0.000 A 
ATOM     22  N   UNL     1      50.108   6.298  16.101  0.00  0.00    +0.000 NA
ATOM     23  H   UNL     1      47.506   7.702  15.284  0.00  0.00    +0.000 HD
BRANCH  20  24
ATOM     24  C   UNL     1      50.752   4.900  19.556  0.00  0.00    +0.000 C 
ATOM     25  N   UNL     1      49.911   4.386  20.506  0.00  0.00    +0.000 N 
ATOM     26  O   UNL     1      51.960   4.711  19.641  0.00  0.00    +0.000 OA
ATOM     27  H   UNL     1      48.910   4.514  20.547  0.00  0.00    +0.000 HD
ATOM     28  H   UNL     1      50.344   3.870  21.261  0.00  0.00    +0.000 HD
ENDBRANCH  20  24
ENDBRANCH  15  16
ENDBRANCH   1  15
TORSDOF 7
ENDMDL
MODEL 7
REMARK VINA RESULT:    -5.985      2.036      2.808
REMARK INTER + INTRA:          -9.353
REMARK INTER:                  -8.610
REMARK INTRA:                  -0.743
REMARK UNBOUND:                -0.919
REMARK  Name = 
REMARK  8 active torsions:
REMARK  status: ('A' for Active; 'I' for Inactive)
REMARK    1  A    between atoms: C_1  and  O_2
REMARK    2  A    between atoms: O_2  and  C_3
REMARK    3  A    between atoms: C_6  and  C_7
REMARK    4  A    between atoms: C_7  and  C_8
REMARK    5  A    between atoms: C_8  and  N_9
REMARK    6  A    between atoms: C_13  and  C_14
REMARK    7  A    between atoms: C_20  and  O_21
REMARK    8  A    between atoms: O_21  and  C_22
REMARK                            x       y       z     vdW  Elec       q    Type
REMARK                         _______ _______ _______ _____ _____    ______ ____
ROOT
ATOM      1  C   UNL     1      44.875   5.665  13.053  0.00  0.00    +0.000 C 
ENDROOT
BRANCH   1   5
ATOM      2  C   UNL     1      48.870   7.265  12.411  0.00  0.00    +0.000 A 
ATOM      3  C   UNL     1      47.878   7.360  11.423  0.00  0.00    +0.000 A 
ATOM      4  C   UNL     1      46.594   6.842  11.629  0.00  0.00    +0.000 A 
ATOM      5  C   UNL     1      46.267   6.210  12.829  0.00  0.00    +0.000 A 
ATOM      6  C   UNL     1      47.250   6.129  13.824  0.00  0.00    +0.000 A 
ATOM      7  C   UNL     1      48.547   6.633  13.621  0.00  0.00    +0.000 A 
BRANCH   2   9
ATOM      8  C   UNL     1      50.285   9.122  11.914  0.00  0.00    +0.000 C 
ATOM      9  O   UNL     1      50.141   7.742  12.237  0.00  0.00    +0.000 OA
ENDBRANCH   2   9
BRANCH   7  10
ATOM     10  O   UNL     1      49.351   6.500  14.732  0.00  0.00    +0.000 OA
BRANCH  10  11
ATOM     11  C   UNL     1      49.542   7.597  15.651  0.00  0.00    +0.000 C 
ATOM     12  C   UNL     1      48.832   7.522  17.023  0.00  0.00    +0.000 C 
ATOM     13  C   UNL     1      48.294   8.944  16.810  0.00  0.00    +0.000 C 
ATOM     14  C   UNL     1      48.653   8.826  15.325  0.00  0.00    +0.000 C 
ENDBRANCH  10  11
ENDBRANCH   7  10
ENDBRANCH   1   5
BRANCH   1  15
ATOM     15  C   UNL     1      44.141   5.423  11.731  0.00  0.00    +0.000 C 
BRANCH  15  16
ATOM     16  N   UNL     1      44.076   3.988  11.413  0.00  0.00    +0.000 N 
ATOM     17  C   UNL     1      44.737   3.673  10.209  0.00  0.00    +0.000 A 
ATOM     18  C   UNL     1      44.738   2.356   9.759  0.00  0.00    +0.000 A 
ATOM     19  C   UNL     1      45.379   2.039   8.556  0.00  0.00    +0.000 A 
ATOM     20  C   UNL     1      46.013   3.043   7.825  0.00  0.00    +0.000 A 
ATOM     21  C   UNL     1      45.989   4.318   8.360  0.00  0.00    +0.000 A 
ATOM     22  N   UNL     1      45.374   4.643   9.524  0.00  0.00    +0.000 NA
ATOM     23  H   UNL     1      43.118   3.651  11.349  0.00  0.00    +0.000 HD
BRANCH  20  24
ATOM     24  C   UNL     1      46.667   2.717   6.536  0.00  0.00    +0.000 C 
ATOM     25  N   UNL     1      46.995   3.732   5.678  0.00  0.00    +0.000 N 
ATOM     26  O   UNL     1      46.903   1.555   6.227  0.00  0.00    +0.000 OA
ATOM     27  H   UNL     1      46.812   4.715   5.821  0.00  0.00    +0.000 HD
ATOM     28  H   UNL     1      47.417   3.462   4.799  0.00  0.00    +0.000 HD
ENDBRANCH  20  24
ENDBRANCH  15  16
ENDBRANCH   1  15
TORSDOF 7
ENDMDL
MODEL 8
REMARK VINA RESULT:    -5.915      3.131      4.882
REMARK INTER + INTRA:          -9.255
REMARK INTER:                  -8.348
REMARK INTRA:                  -0.907
REMARK UNBOUND:                -0.919
REMARK  Name = 
REMARK  8 active torsions:
REMARK  status: ('A' for Active; 'I' for Inactive)
REMARK    1  A    between atoms: C_1  and  O_2
REMARK    2  A    between atoms: O_2  and  C_3
REMARK    3  A    between atoms: C_6  and  C_7
REMARK    4  A    between atoms: C_7  and  C_8
REMARK    5  A    between atoms: C_8  and  N_9
REMARK    6  A    between atoms: C_13  and  C_14
REMARK    7  A    between atoms: C_20  and  O_21
REMARK    8  A    between atoms: O_21  and  C_22
REMARK                            x       y       z     vdW  Elec       q    Type
REMARK                         _______ _______ _______ _____ _____    ______ ____
ROOT
ATOM      1  C   UNL     1      49.000   7.319  14.076  0.00  0.00    +0.000 C 
ENDROOT
BRANCH   1   5
ATOM      2  C   UNL     1      48.817   6.487  18.343  0.00  0.00    +0.000 A 
ATOM      3  C   UNL     1      49.267   7.725  17.859  0.00  0.00    +0.000 A 
ATOM      4  C   UNL     1      49.328   7.991  16.486  0.00  0.00    +0.000 A 
ATOM      5  C   UNL     1      48.946   7.023  15.557  0.00  0.00    +0.000 A 
ATOM      6  C   UNL     1      48.480   5.792  16.037  0.00  0.00    +0.000 A 
ATOM      7  C   UNL     1      48.428   5.510  17.414  0.00  0.00    +0.000 A 
BRANCH   2   9
ATOM      8  C   UNL     1      47.783   6.858  20.461  0.00  0.00    +0.000 C 
ATOM      9  O   UNL     1      48.763   6.184  19.676  0.00  0.00    +0.000 OA
ENDBRANCH   2   9
BRANCH   7  10
ATOM     10  O   UNL     1      47.898   4.267  17.684  0.00  0.00    +0.000 OA
BRANCH  10  11
ATOM     11  C   UNL     1      48.753   3.133  17.946  0.00  0.00    +0.000 C 
ATOM     12  C   UNL     1      50.283   3.349  17.872  0.00  0.00    +0.000 C 
ATOM     13  C   UNL     1      50.402   2.117  16.964  0.00  0.00    +0.000 C 
ATOM     14  C   UNL     1      48.890   2.180  16.729  0.00  0.00    +0.000 C 
ENDBRANCH  10  11
ENDBRANCH   7  10
ENDBRANCH   1   5
BRANCH   1  15
ATOM     15  C   UNL     1      47.740   8.045  13.596  0.00  0.00    +0.000 C 
BRANCH  15  16
ATOM     16  N   UNL     1      47.434   7.713  12.196  0.00  0.00    +0.000 N 
ATOM     17  C   UNL     1      46.525   6.641  12.083  0.00  0.00    +0.000 A 
ATOM     18  C   UNL     1      46.159   6.192  10.818  0.00  0.00    +0.000 A 
ATOM     19  C   UNL     1      45.270   5.118  10.698  0.00  0.00    +0.000 A 
ATOM     20  C   UNL     1      44.757   4.513  11.846  0.00  0.00    +0.000 A 
ATOM     21  C   UNL     1      45.152   5.042  13.061  0.00  0.00    +0.000 A 
ATOM     22  N   UNL     1      46.010   6.082  13.196  0.00  0.00    +0.000 NA
ATOM     23  H   UNL     1      48.269   7.481  11.664  0.00  0.00    +0.000 HD
BRANCH  20  24
ATOM     24  C   UNL     1      43.839   3.357  11.724  0.00  0.00    +0.000 C 
ATOM     25  N   UNL     1      43.789   2.436  12.735  0.00  0.00    +0.000 N 
ATOM     26  O   UNL     1      43.142   3.211  10.727  0.00  0.00    +0.000 OA
ATOM     27  H   UNL     1      44.346   2.444  13.578  0.00  0.00    +0.000 HD
ATOM     28  H   UNL     1      43.167   1.649  12.599  0.00  0.00    +0.000 HD
ENDBRANCH  20  24
ENDBRANCH  15  16
ENDBRANCH   1  15
TORSDOF 7
ENDMDL
