MODEL 1
REMARK VINA RESULT:    -7.855      0.000      0.000
REMARK INTER + INTRA:         -10.967
REMARK INTER:                 -10.151
REMARK INTRA:                  -0.816
REMARK UNBOUND:                -0.816
REMARK  Name = 
REMARK  5 active torsions:
REMARK  status: ('A' for Active; 'I' for Inactive)
REMARK    1  A    between atoms: C_2  and  C_4
REMARK    2  A    between atoms: C_8  and  O_9
REMARK    3  A    between atoms: O_9  and  C_10
REMARK    4  A    between atoms: C_10  and  C_11
REMARK    5  A    between atoms: C_16  and  N_17
REMARK                            x       y       z     vdW  Elec       q    Type
REMARK                         _______ _______ _______ _____ _____    ______ ____
ROOT
ATOM      1  C   UNL     1      46.968   4.402  13.670  0.00  0.00    +0.000 C 
ENDROOT
BRANCH   1   2
ATOM      2  C   UNL     1      45.714   4.378  12.834  0.00  0.00    +0.000 A 
ATOM      3  C   UNL     1      44.509   4.874  13.331  0.00  0.00    +0.000 A 
ATOM      4  C   UNL     1      43.388   4.889  12.511  0.00  0.00    +0.000 A 
ATOM      5  F   UNL     1      42.233   5.372  12.988  0.00  0.00    +0.000 F 
ATOM      6  C   UNL     1      43.442   4.411  11.204  0.00  0.00    +0.000 A 
ATOM      7  C   UNL     1      44.630   3.891  10.672  0.00  0.00    +0.000 A 
ATOM      8  C   UNL     1      45.753   3.885  11.516  0.00  0.00    +0.000 A 
BRANCH   7   9
ATOM      9  N   UNL     1      44.686   3.396   9.382  0.00  0.00    +0.000 N 
ATOM     10  C   UNL     1      44.687   1.959   9.100  0.00  0.00    +0.000 C 
ATOM     11  C   UNL     1      46.023   1.531   8.496  0.00  0.00    +0.000 C 
ATOM     12  C   UNL     1      46.396   2.403   7.297  0.00  0.00    +0.000 C 
ATOM     13  C   UNL     1      46.353   3.885   7.660  0.00  0.00    +0.000 C 
ATOM     14  C   UNL     1      44.997   4.277   8.253  0.00  0.00    +0.000 C 
ENDBRANCH   7   9
ENDBRANCH   1   2
BRANCH   1  15
ATOM     15  O   UNL     1      47.205   3.126  14.278  0.00  0.00    +0.000 OA
BRANCH  15  20
ATOM     16  C   UNL     1      49.338   2.811  17.126  0.00  0.00    +0.000 A 
ATOM     17  C   UNL     1      48.683   3.548  18.104  0.00  0.00    +0.000 A 
ATOM     18  C   UNL     1      47.483   4.163  17.764  0.00  0.00    +0.000 A 
ATOM     19  C   UNL     1      46.984   4.017  16.466  0.00  0.00    +0.000 A 
ATOM     20  C   UNL     1      47.712   3.261  15.557  0.00  0.00    +0.000 A 
ATOM     21  N   UNL     1      48.881   2.657  15.858  0.00  0.00    +0.000 NA
BRANCH  16  23
ATOM     22  N   UNL     1      51.521   2.854  18.195  0.00  0.00    +0.000 N 
ATOM     23  C   UNL     1      50.629   2.129  17.446  0.00  0.00    +0.000 C 
ATOM     24  O   UNL     1      50.880   0.993  17.078  0.00  0.00    +0.000 OA
ATOM     25  H   UNL     1      52.382   2.412  18.480  0.00  0.00    +0.000 HD
ATOM     26  H   UNL     1      51.253   3.751  18.580  0.00  0.00    +0.000 HD
ENDBRANCH  16  23
ENDBRANCH  15  20
ENDBRANCH   1  15
TORSDOF 5
ENDMDL
MODEL 2
REMARK VINA RESULT:    -7.527      3.981      7.586
REMARK INTER + INTRA:         -10.544
REMARK INTER:                  -9.901
REMARK INTRA:                  -0.643
REMARK UNBOUND:                -0.816
REMARK  Name = 
REMARK  5 active torsions:
REMARK  status: ('A' for Active; 'I' for Inactive)
REMARK    1  A    between atoms: C_2  and  C_4
REMARK    2  A    between atoms: C_8  and  O_9
REMARK    3  A    between atoms: O_9  and  C_10
REMARK    4  A    between atoms: C_10  and  C_11
REMARK    5  A    between atoms: C_16  and  N_17
REMARK                            x       y       z     vdW  Elec       q    Type
REMARK                         _______ _______ _______ _____ _____    ______ ____
ROOT
ATOM      1  C   UNL     1      43.909   4.240  11.118  0.00  0.00    +0.000 C 
ENDROOT
BRANCH   1   2
ATOM      2  C   UNL     1      45.087   4.585  11.992  0.00  0.00    +0.000 A 
ATOM      3  C   UNL     1      45.642   3.641  12.857  0.00  0.00    +0.000 A 
ATOM      4  C   UNL     1      46.763   3.977  13.604  0.00  0.00    +0.000 A 
ATOM      5  F   UNL     1      47.299   3.067  14.429  0.00  0.00    +0.000 F 
ATOM      6  C   UNL     1      47.341   5.241  13.512  0.00  0.00    +0.000 A 
ATOM      7  C   UNL     1      46.806   6.222  12.666  0.00  0.00    +0.000 A 
ATOM      8  C   UNL     1      45.672   5.863  11.918  0.00  0.00    +0.000 A 
BRANCH   7   9
ATOM      9  N   UNL     1      47.362   7.486  12.586  0.00  0.00    +0.000 N 
ATOM     10  C   UNL     1      48.540   7.766  11.762  0.00  0.00    +0.000 C 
ATOM     11  C   UNL     1      49.732   8.140  12.641  0.00  0.00    +0.000 C 
ATOM     12  C   UNL     1      49.374   9.259  13.618  0.00  0.00    +0.000 C 
ATOM     13  C   UNL     1      48.126   8.906  14.424  0.00  0.00    +0.000 C 
ATOM     14  C   UNL     1      46.952   8.546  13.510  0.00  0.00    +0.000 C 
ENDBRANCH   7   9
ENDBRANCH   1   2
BRANCH   1  15
ATOM     15  O   UNL     1      44.094   2.969  10.484  0.00  0.00    +0.000 OA
BRANCH  15  20
ATOM     16  C   UNL     1      46.345   2.082   7.855  0.00  0.00    +0.000 A 
ATOM     17  C   UNL     1      46.610   3.295   7.235  0.00  0.00    +0.000 A 
ATOM     18  C   UNL     1      45.996   4.435   7.739  0.00  0.00    +0.000 A 
ATOM     19  C   UNL     1      45.144   4.322   8.842  0.00  0.00    +0.000 A 
ATOM     20  C   UNL     1      44.938   3.065   9.394  0.00  0.00    +0.000 A 
ATOM     21  N   UNL     1      45.519   1.941   8.922  0.00  0.00    +0.000 NA
BRANCH  16  23
ATOM     22  N   UNL     1      47.873   0.985   6.316  0.00  0.00    +0.000 N 
ATOM     23  C   UNL     1      46.986   0.830   7.351  0.00  0.00    +0.000 C 
ATOM     24  O   UNL     1      46.751  -0.267   7.831  0.00  0.00    +0.000 OA
ATOM     25  H   UNL     1      48.370   0.173   5.981  0.00  0.00    +0.000 HD
ATOM     26  H   UNL     1      48.134   1.911   6.004  0.00  0.00    +0.000 HD
ENDBRANCH  16  23
ENDBRANCH  15  20
ENDBRANCH   1  15
TORSDOF 5
ENDMDL
MODEL 3
REMARK VINA RESULT:    -7.325      1.880      2.453
REMARK INTER + INTRA:         -10.281
REMARK INTER:                  -9.347
REMARK INTRA:                  -0.935
REMARK UNBOUND:                -0.816
REMARK  Name = 
REMARK  5 active torsions:
REMARK  status: ('A' for Active; 'I' for Inactive)
REMARK    1  A    between atoms: C_2  and  C_4
REMARK    2  A    between atoms: C_8  and  O_9
REMARK    3  A    between atoms: O_9  and  C_10
REMARK    4  A    between atoms: C_10  and  C_11
REMARK    5  A    between atoms: C_16  and  N_17
REMARK                            x       y       z     vdW  Elec       q    Type
REMARK                         _______ _______ _______ _____ _____    ______ ____
ROOT
ATOM      1  C   UNL     1      46.633   6.990  12.352  0.00  0.00    +0.000 C 
ENDROOT
BRANCH   1   2
ATOM      2  C   UNL     1      45.563   5.977  12.034  0.00  0.00    +0.000 A 
ATOM      3  C   UNL     1      44.503   5.752  12.913  0.00  0.00    +0.000 A 
ATOM      4  C   UNL     1      43.505   4.853  12.559  0.00  0.00    +0.000 A 
ATOM      5  F   UNL     1      42.484   4.642  13.401  0.00  0.00    +0.000 F 
ATOM      6  C   UNL     1      43.546   4.167  11.348  0.00  0.00    +0.000 A 
ATOM      7  C   UNL     1      44.601   4.355  10.445  0.00  0.00    +0.000 A 
ATOM      8  C   UNL     1      45.600   5.268  10.819  0.00  0.00    +0.000 A 
BRANCH   7   9
ATOM      9  N   UNL     1      44.658   3.661   9.249  0.00  0.00    +0.000 N 
ATOM     10  C   UNL     1      44.495   2.207   9.185  0.00  0.00    +0.000 C 
ATOM     11  C   UNL     1      45.796   1.541   8.743  0.00  0.00    +0.000 C 
ATOM     12  C   UNL     1      46.333   2.166   7.456  0.00  0.00    +0.000 C 
ATOM     13  C   UNL     1      46.455   3.682   7.590  0.00  0.00    +0.000 C 
ATOM     14  C   UNL     1      45.131   4.313   8.026  0.00  0.00    +0.000 C 
ENDBRANCH   7   9
ENDBRANCH   1   2
BRANCH   1  15
ATOM     15  O   UNL     1      47.887   6.348  12.614  0.00  0.00    +0.000 OA
BRANCH  15  20
ATOM     16  C   UNL     1      47.952   4.819  15.842  0.00  0.00    +0.000 A 
ATOM     17  C   UNL     1      48.481   5.809  16.658  0.00  0.00    +0.000 A 
ATOM     18  C   UNL     1      48.820   7.024  16.074  0.00  0.00    +0.000 A 
ATOM     19  C   UNL     1      48.617   7.205  14.703  0.00  0.00    +0.000 A 
ATOM     20  C   UNL     1      48.083   6.155  13.968  0.00  0.00    +0.000 A 
ATOM     21  N   UNL     1      47.749   4.963  14.508  0.00  0.00    +0.000 NA
BRANCH  16  23
ATOM     22  N   UNL     1      48.331   2.426  16.037  0.00  0.00    +0.000 N 
ATOM     23  C   UNL     1      47.568   3.497  16.425  0.00  0.00    +0.000 C 
ATOM     24  O   UNL     1      46.641   3.370  17.209  0.00  0.00    +0.000 OA
ATOM     25  H   UNL     1      48.142   1.524  16.448  0.00  0.00    +0.000 HD
ATOM     26  H   UNL     1      49.158   2.568  15.471  0.00  0.00    +0.000 HD
ENDBRANCH  16  23
ENDBRANCH  15  20
ENDBRANCH   1  15
TORSDOF 5
ENDMDL
MODEL 4
REMARK VINA RESULT:    -7.250      3.338      5.039
REMARK INTER + INTRA:         -10.185
REMARK INTER:                  -9.173
REMARK INTRA:                  -1.012
REMARK UNBOUND:                -0.816
REMARK  Name = 
REMARK  5 active torsions:
REMARK  status: ('A' for Active; 'I' for Inactive)
REMARK    1  A    between atoms: C_2  and  C_4
REMARK    2  A    between atoms: C_8  and  O_9
REMARK    3  A    between atoms: O_9  and  C_10
REMARK    4  A    between atoms: C_10  and  C_11
REMARK    5  A    between atoms: C_16  and  N_17
REMARK                            x       y       z     vdW  Elec       q    Type
REMARK                         _______ _______ _______ _____ _____    ______ ____
ROOT
ATOM      1  C   UNL     1      46.716   4.217  13.642  0.00  0.00    +0.000 C 
ENDROOT
BRANCH   1   2
ATOM      2  C   UNL     1      45.513   4.249  12.734  0.00  0.00    +0.000 A 
ATOM      3  C   UNL     1      44.311   4.822  13.151  0.00  0.00    +0.000 A 
ATOM      4  C   UNL     1      43.243   4.885  12.266  0.00  0.00    +0.000 A 
ATOM      5  F   UNL     1      42.092   5.442  12.666  0.00  0.00    +0.000 F 
ATOM      6  C   UNL     1      43.346   4.380  10.972  0.00  0.00    +0.000 A 
ATOM      7  C   UNL     1      44.531   3.784  10.519  0.00  0.00    +0.000 A 
ATOM      8  C   UNL     1      45.600   3.730  11.429  0.00  0.00    +0.000 A 
BRANCH   7   9
ATOM      9  N   UNL     1      44.633   3.262   9.243  0.00  0.00    +0.000 N 
ATOM     10  C   UNL     1      44.729   1.821   8.996  0.00  0.00    +0.000 C 
ATOM     11  C   UNL     1      46.096   1.466   8.417  0.00  0.00    +0.000 C 
ATOM     12  C   UNL     1      46.427   2.330   7.201  0.00  0.00    +0.000 C 
ATOM     13  C   UNL     1      46.285   3.815   7.526  0.00  0.00    +0.000 C 
ATOM     14  C   UNL     1      44.901   4.133   8.095  0.00  0.00    +0.000 C 
ENDBRANCH   7   9
ENDBRANCH   1   2
BRANCH   1  15
ATOM     15  O   UNL     1      46.860   5.457  14.346  0.00  0.00    +0.000 OA
BRANCH  15  20
ATOM     16  C   UNL     1      47.022   8.476  12.443  0.00  0.00    +0.000 A 
ATOM     17  C   UNL     1      48.281   8.424  11.861  0.00  0.00    +0.000 A 
ATOM     18  C   UNL     1      49.083   7.322  12.137  0.00  0.00    +0.000 A 
ATOM     19  C   UNL     1      48.599   6.317  12.979  0.00  0.00    +0.000 A 
ATOM     20  C   UNL     1      47.326   6.459  13.516  0.00  0.00    +0.000 A 
ATOM     21  N   UNL     1      46.528   7.519  13.268  0.00  0.00    +0.000 NA
BRANCH  16  23
ATOM     22  N   UNL     1      44.893   9.600  12.780  0.00  0.00    +0.000 N 
ATOM     23  C   UNL     1      46.122   9.639  12.173  0.00  0.00    +0.000 C 
ATOM     24  O   UNL     1      46.456  10.575  11.465  0.00  0.00    +0.000 OA
ATOM     25  H   UNL     1      44.275  10.389  12.669  0.00  0.00    +0.000 HD
ATOM     26  H   UNL     1      44.677   8.869  13.445  0.00  0.00    +0.000 HD
ENDBRANCH  16  23
ENDBRANCH  15  20
ENDBRANCH   1  15
TORSDOF 5
ENDMDL
MODEL 5
REMARK VINA RESULT:    -7.220      4.064      7.843
REMARK INTER + INTRA:         -10.146
REMARK INTER:                  -9.235
REMARK INTRA:                  -0.911
REMARK UNBOUND:                -0.816
REMARK  Name = 
REMARK  5 active torsions:
REMARK  status: ('A' for Active; 'I' for Inactive)
REMARK    1  A    between atoms: C_2  and  C_4
REMARK    2  A    between atoms: C_8  and  O_9
REMARK    3  A    between atoms: O_9  and  C_10
REMARK    4  A    between atoms: C_10  and  C_11
REMARK    5  A    between atoms: C_16  and  N_17
REMARK                            x       y       z     vdW  Elec       q    Type
REMARK                         _______ _______ _______ _____ _____    ______ ____
ROOT
ATOM      1  C   UNL     1      44.652   5.501  10.928  0.00  0.00    +0.000 C 
ENDROOT
BRANCH   1   2
ATOM      2  C   UNL     1      45.675   5.639  12.026  0.00  0.00    +0.000 A 
ATOM      3  C   UNL     1      45.796   4.672  13.024  0.00  0.00    +0.000 A 
ATOM      4  C   UNL     1      46.788   4.804  13.985  0.00  0.00    +0.000 A 
ATOM      5  F   UNL     1      46.907   3.870  14.939  0.00  0.00    +0.000 F 
ATOM      6  C   UNL     1      47.663   5.888  13.977  0.00  0.00    +0.000 A 
ATOM      7  C   UNL     1      47.566   6.889  13.001  0.00  0.00    +0.000 A 
ATOM      8  C   UNL     1      46.556   6.738  12.037  0.00  0.00    +0.000 A 
BRANCH   7   9
ATOM      9  N   UNL     1      48.418   7.979  12.999  0.00  0.00    +0.000 N 
ATOM     10  C   UNL     1      47.921   9.354  12.915  0.00  0.00    +0.000 C 
ATOM     11  C   UNL     1      48.345   9.998  11.596  0.00  0.00    +0.000 C 
ATOM     12  C   UNL     1      49.851   9.863  11.370  0.00  0.00    +0.000 C 
ATOM     13  C   UNL     1      50.298   8.409  11.495  0.00  0.00    +0.000 C 
ATOM     14  C   UNL     1      49.862   7.802  12.830  0.00  0.00    +0.000 C 
ENDBRANCH   7   9
ENDBRANCH   1   2
BRANCH   1  15
ATOM     15  O   UNL     1      45.267   5.595   9.638  0.00  0.00    +0.000 OA
BRANCH  15  20
ATOM     16  C   UNL     1      46.410   3.000   7.464  0.00  0.00    +0.000 A 
ATOM     17  C   UNL     1      45.850   1.853   8.008  0.00  0.00    +0.000 A 
ATOM     18  C   UNL     1      45.065   1.986   9.147  0.00  0.00    +0.000 A 
ATOM     19  C   UNL     1      44.868   3.256   9.697  0.00  0.00    +0.000 A 
ATOM     20  C   UNL     1      45.471   4.345   9.083  0.00  0.00    +0.000 A 
ATOM     21  N   UNL     1      46.242   4.244   7.978  0.00  0.00    +0.000 NA
BRANCH  16  23
ATOM     22  N   UNL     1      48.559   2.520   6.434  0.00  0.00    +0.000 N 
ATOM     23  C   UNL     1      47.258   2.907   6.236  0.00  0.00    +0.000 C 
ATOM     24  O   UNL     1      46.826   3.147   5.121  0.00  0.00    +0.000 OA
ATOM     25  H   UNL     1      49.152   2.391   5.628  0.00  0.00    +0.000 HD
ATOM     26  H   UNL     1      48.869   2.224   7.351  0.00  0.00    +0.000 HD
ENDBRANCH  16  23
ENDBRANCH  15  20
ENDBRANCH   1  15
TORSDOF 5
ENDMDL
MODEL 6
REMARK VINA RESULT:    -7.147      1.895      2.170
REMARK INTER + INTRA:         -10.052
REMARK INTER:                  -9.271
REMARK INTRA:                  -0.781
REMARK UNBOUND:                -0.816
REMARK  Name = 
REMARK  5 active torsions:
REMARK  status: ('A' for Active; 'I' for Inactive)
REMARK    1  A    between atoms: C_2  and  C_4
REMARK    2  A    between atoms: C_8  and  O_9
REMARK    3  A    between atoms: O_9  and  C_10
REMARK    4  A    between atoms: C_10  and  C_11
REMARK    5  A    between atoms: C_16  and  N_17
REMARK                            x       y       z     vdW  Elec       q    Type
REMARK                         _______ _______ _______ _____ _____    ______ ____
ROOT
ATOM      1  C   UNL     1      46.922   4.286  13.601  0.00  0.00    +0.000 C 
ENDROOT
BRANCH   1   2
ATOM      2  C   UNL     1      45.673   4.284  12.757  0.00  0.00    +0.000 A 
ATOM      3  C   UNL     1      44.477   4.813  13.242  0.00  0.00    +0.000 A 
ATOM      4  C   UNL     1      43.362   4.846  12.414  0.00  0.00    +0.000 A 
ATOM      5  F   UNL     1      42.215   5.361  12.879  0.00  0.00    +0.000 F 
ATOM      6  C   UNL     1      43.413   4.354  11.113  0.00  0.00    +0.000 A 
ATOM      7  C   UNL     1      44.591   3.801  10.594  0.00  0.00    +0.000 A 
ATOM      8  C   UNL     1      45.708   3.776  11.445  0.00  0.00    +0.000 A 
BRANCH   7   9
ATOM      9  N   UNL     1      44.643   3.291   9.309  0.00  0.00    +0.000 N 
ATOM     10  C   UNL     1      44.726   1.852   9.045  0.00  0.00    +0.000 C 
ATOM     11  C   UNL     1      46.070   1.500   8.410  0.00  0.00    +0.000 C 
ATOM     12  C   UNL     1      46.355   2.376   7.190  0.00  0.00    +0.000 C 
ATOM     13  C   UNL     1      46.229   3.858   7.535  0.00  0.00    +0.000 C 
ATOM     14  C   UNL     1      44.868   4.172   8.160  0.00  0.00    +0.000 C 
ENDBRANCH   7   9
ENDBRANCH   1   2
BRANCH   1  15
ATOM     15  O   UNL     1      46.695   3.638  14.858  0.00  0.00    +0.000 OA
BRANCH  15  20
ATOM     16  C   UNL     1      48.914   5.817  16.615  0.00  0.00    +0.000 A 
ATOM     17  C   UNL     1      48.666   5.524  17.949  0.00  0.00    +0.000 A 
ATOM     18  C   UNL     1      47.712   4.555  18.238  0.00  0.00    +0.000 A 
ATOM     19  C   UNL     1      47.046   3.916  17.188  0.00  0.00    +0.000 A 
ATOM     20  C   UNL     1      47.361   4.278  15.885  0.00  0.00    +0.000 A 
ATOM     21  N   UNL     1      48.280   5.218  15.576  0.00  0.00    +0.000 NA
BRANCH  16  23
ATOM     22  N   UNL     1      50.318   7.691  17.267  0.00  0.00    +0.000 N 
ATOM     23  C   UNL     1      49.934   6.849  16.255  0.00  0.00    +0.000 C 
ATOM     24  O   UNL     1      50.411   6.937  15.135  0.00  0.00    +0.000 OA
ATOM     25  H   UNL     1      51.044   8.367  17.082  0.00  0.00    +0.000 HD
ATOM     26  H   UNL     1      49.991   7.534  18.212  0.00  0.00    +0.000 HD
ENDBRANCH  16  23
ENDBRANCH  15  20
ENDBRANCH   1  15
TORSDOF 5
ENDMDL
MODEL 7
REMARK VINA RESULT:    -7.090      2.896      3.863
REMARK INTER + INTRA:          -9.979
REMARK INTER:                  -8.975
REMARK INTRA:                  -1.004
REMARK UNBOUND:                -0.816
REMARK  Name = 
REMARK  5 active torsions:
REMARK  status: ('A' for Active; 'I' for Inactive)
REMARK    1  A    between atoms: C_2  and  C_4
REMARK    2  A    between atoms: C_8  and  O_9
REMARK    3  A    between atoms: O_9  and  C_10
REMARK    4  A    between atoms: C_10  and  C_11
REMARK    5  A    between atoms: C_16  and  N_17
REMARK                            x       y       z     vdW  Elec       q    Type
REMARK                         _______ _______ _______ _____ _____    ______ ____
ROOT
ATOM      1  C   UNL     1      48.953   7.814  14.094  0.00  0.00    +0.000 C 
ENDROOT
BRANCH   1   2
ATOM      2  C   UNL     1      47.596   7.678  13.452  0.00  0.00    +0.000 A 
ATOM      3  C   UNL     1      46.730   8.768  13.362  0.00  0.00    +0.000 A 
ATOM      4  C   UNL     1      45.512   8.618  12.712  0.00  0.00    +0.000 A 
ATOM      5  F   UNL     1      44.684   9.668  12.620  0.00  0.00    +0.000 F 
ATOM      6  C   UNL     1      45.135   7.399  12.154  0.00  0.00    +0.000 A 
ATOM      7  C   UNL     1      45.970   6.277  12.236  0.00  0.00    +0.000 A 
ATOM      8  C   UNL     1      47.198   6.447  12.897  0.00  0.00    +0.000 A 
BRANCH   7   9
ATOM      9  N   UNL     1      45.593   5.058  11.703  0.00  0.00    +0.000 N 
ATOM     10  C   UNL     1      45.085   4.931  10.335  0.00  0.00    +0.000 C 
ATOM     11  C   UNL     1      43.618   4.507  10.344  0.00  0.00    +0.000 C 
ATOM     12  C   UNL     1      43.403   3.264  11.207  0.00  0.00    +0.000 C 
ATOM     13  C   UNL     1      43.975   3.462  12.608  0.00  0.00    +0.000 C 
ATOM     14  C   UNL     1      45.447   3.877  12.558  0.00  0.00    +0.000 C 
ENDBRANCH   7   9
ENDBRANCH   1   2
BRANCH   1  15
ATOM     15  O   UNL     1      49.400   6.559  14.621  0.00  0.00    +0.000 OA
BRANCH  15  20
ATOM     16  C   UNL     1      48.065   4.983  17.536  0.00  0.00    +0.000 A 
ATOM     17  C   UNL     1      48.045   6.005  18.475  0.00  0.00    +0.000 A 
ATOM     18  C   UNL     1      48.504   7.258  18.086  0.00  0.00    +0.000 A 
ATOM     19  C   UNL     1      48.962   7.444  16.778  0.00  0.00    +0.000 A 
ATOM     20  C   UNL     1      48.945   6.360  15.910  0.00  0.00    +0.000 A 
ATOM     21  N   UNL     1      48.509   5.132  16.262  0.00  0.00    +0.000 NA
BRANCH  16  23
ATOM     22  N   UNL     1      48.215   3.022  18.964  0.00  0.00    +0.000 N 
ATOM     23  C   UNL     1      47.578   3.619  17.906  0.00  0.00    +0.000 C 
ATOM     24  O   UNL     1      46.663   3.068  17.317  0.00  0.00    +0.000 OA
ATOM     25  H   UNL     1      47.882   2.124  19.283  0.00  0.00    +0.000 HD
ATOM     26  H   UNL     1      48.897   3.537  19.505  0.00  0.00    +0.000 HD
ENDBRANCH  16  23
ENDBRANCH  15  20
ENDBRANCH   1  15
TORSDOF 5
ENDMDL
MODEL 8
REMARK VINA RESULT:    -6.791      3.273      7.876
REMARK INTER + INTRA:          -9.592
REMARK INTER:                  -8.676
REMARK INTRA:                  -0.917
REMARK UNBOUND:                -0.816
REMARK  Name = 
REMARK  5 active torsions:
REMARK  status: ('A' for Active; 'I' for Inactive)
REMARK    1  A    between atoms: C_2  and  C_4
REMARK    2  A    between atoms: C_8  and  O_9
REMARK    3  A    between atoms: O_9  and  C_10
REMARK    4  A    between atoms: C_10  and  C_11
REMARK    5  A    between atoms: C_16  and  N_17
REMARK                            x       y       z     vdW  Elec       q    Type
REMARK                         _______ _______ _______ _____ _____    ______ ____
ROOT
ATOM      1  C   UNL     1      46.927   6.522  11.731  0.00  0.00    +0.000 C 
ENDROOT
BRANCH   1   2
ATOM      2  C   UNL     1      47.866   6.701  12.896  0.00  0.00    +0.000 A 
ATOM      3  C   UNL     1      48.909   7.626  12.845  0.00  0.00    +0.000 A 
ATOM      4  C   UNL     1      49.717   7.804  13.960  0.00  0.00    +0.000 A 
ATOM      5  F   UNL     1      50.714   8.698  13.912  0.00  0.00    +0.000 F 
ATOM      6  C   UNL     1      49.511   7.072  15.127  0.00  0.00    +0.000 A 
ATOM      7  C   UNL     1      48.483   6.123  15.214  0.00  0.00    +0.000 A 
ATOM      8  C   UNL     1      47.676   5.957  14.076  0.00  0.00    +0.000 A 
BRANCH   7   9
ATOM      9  N   UNL     1      48.286   5.377  16.362  0.00  0.00    +0.000 N 
ATOM     10  C   UNL     1      49.177   5.483  17.520  0.00  0.00    +0.000 C 
ATOM     11  C   UNL     1      49.940   4.177  17.731  0.00  0.00    +0.000 C 
ATOM     12  C   UNL     1      48.993   2.979  17.780  0.00  0.00    +0.000 C 
ATOM     13  C   UNL     1      48.083   2.947  16.554  0.00  0.00    +0.000 C 
ATOM     14  C   UNL     1      47.329   4.268  16.381  0.00  0.00    +0.000 C 
ENDBRANCH   7   9
ENDBRANCH   1   2
BRANCH   1  15
ATOM     15  O   UNL     1      45.561   6.572  12.159  0.00  0.00    +0.000 OA
BRANCH  15  20
ATOM     16  C   UNL     1      44.456   3.589  10.532  0.00  0.00    +0.000 A 
ATOM     17  C   UNL     1      43.599   3.014  11.461  0.00  0.00    +0.000 A 
ATOM     18  C   UNL     1      43.405   3.674  12.668  0.00  0.00    +0.000 A 
ATOM     19  C   UNL     1      44.071   4.881  12.902  0.00  0.00    +0.000 A 
ATOM     20  C   UNL     1      44.910   5.378  11.913  0.00  0.00    +0.000 A 
ATOM     21  N   UNL     1      45.119   4.755  10.734  0.00  0.00    +0.000 NA
BRANCH  16  23
ATOM     22  N   UNL     1      44.318   3.629   8.106  0.00  0.00    +0.000 N 
ATOM     23  C   UNL     1      44.691   2.918   9.218  0.00  0.00    +0.000 C 
ATOM     24  O   UNL     1      45.195   1.810   9.128  0.00  0.00    +0.000 OA
ATOM     25  H   UNL     1      44.510   3.238   7.196  0.00  0.00    +0.000 HD
ATOM     26  H   UNL     1      44.002   4.587   8.196  0.00  0.00    +0.000 HD
ENDBRANCH  16  23
ENDBRANCH  15  20
ENDBRANCH   1  15
TORSDOF 5
ENDMDL
MODEL 9
REMARK VINA RESULT:    -6.754      3.391      9.235
REMARK INTER + INTRA:          -9.544
REMARK INTER:                  -8.759
REMARK INTRA:                  -0.785
REMARK UNBOUND:                -0.816
REMARK  Name = 
REMARK  5 active torsions:
REMARK  status: ('A' for Active; 'I' for Inactive)
REMARK    1  A    between atoms: C_2  and  C_4
REMARK    2  A    between atoms: C_8  and  O_9
REMARK    3  A    between atoms: O_9  and  C_10
REMARK    4  A    between atoms: C_10  and  C_11
REMARK    5  A    between atoms: C_16  and  N_17
REMARK                            x       y       z     vdW  Elec       q    Type
REMARK                         _______ _______ _______ _____ _____    ______ ____
ROOT
ATOM      1  C   UNL     1      47.290   3.790  15.866  0.00  0.00    +0.000 C 
ENDROOT
BRANCH   1   2
ATOM      2  C   UNL     1      48.541   3.591  16.683  0.00  0.00    +0.000 A 
ATOM      3  C   UNL     1      49.276   2.408  16.598  0.00  0.00    +0.000 A 
ATOM      4  C   UNL     1      50.454   2.285  17.322  0.00  0.00    +0.000 A 
ATOM      5  F   UNL     1      51.162   1.151  17.233  0.00  0.00    +0.000 F 
ATOM      6  C   UNL     1      50.913   3.316  18.138  0.00  0.00    +0.000 A 
ATOM      7  C   UNL     1      50.196   4.514  18.263  0.00  0.00    +0.000 A 
ATOM      8  C   UNL     1      49.007   4.621  17.522  0.00  0.00    +0.000 A 
BRANCH   7   9
ATOM      9  N   UNL     1      50.635   5.534  19.087  0.00  0.00    +0.000 N 
ATOM     10  C   UNL     1      51.326   5.269  20.351  0.00  0.00    +0.000 C 
ATOM     11  C   UNL     1      50.474   5.724  21.534  0.00  0.00    +0.000 C 
ATOM     12  C   UNL     1      50.015   7.171  21.366  0.00  0.00    +0.000 C 
ATOM     13  C   UNL     1      49.324   7.376  20.020  0.00  0.00    +0.000 C 
ATOM     14  C   UNL     1      50.211   6.917  18.860  0.00  0.00    +0.000 C 
ENDBRANCH   7   9
ENDBRANCH   1   2
BRANCH   1  15
ATOM     15  O   UNL     1      47.391   3.124  14.601  0.00  0.00    +0.000 OA
BRANCH  15  20
ATOM     16  C   UNL     1      45.155   3.843  11.910  0.00  0.00    +0.000 A 
ATOM     17  C   UNL     1      45.369   5.192  11.663  0.00  0.00    +0.000 A 
ATOM     18  C   UNL     1      46.305   5.858  12.445  0.00  0.00    +0.000 A 
ATOM     19  C   UNL     1      46.990   5.155  13.441  0.00  0.00    +0.000 A 
ATOM     20  C   UNL     1      46.706   3.807  13.614  0.00  0.00    +0.000 A 
ATOM     21  N   UNL     1      45.799   3.136  12.871  0.00  0.00    +0.000 NA
BRANCH  16  23
ATOM     22  N   UNL     1      44.678   2.336  10.063  0.00  0.00    +0.000 N 
ATOM     23  C   UNL     1      44.161   3.083  11.091  0.00  0.00    +0.000 C 
ATOM     24  O   UNL     1      42.963   3.111  11.321  0.00  0.00    +0.000 OA
ATOM     25  H   UNL     1      44.049   1.765   9.519  0.00  0.00    +0.000 HD
ATOM     26  H   UNL     1      45.680   2.243   9.955  0.00  0.00    +0.000 HD
ENDBRANCH  16  23
ENDBRANCH  15  20
ENDBRANCH   1  15
TORSDOF 5
ENDMDL
