MODEL 1
REMARK VINA RESULT:    -7.998      0.000      0.000
REMARK INTER + INTRA:         -11.894
REMARK INTER:                 -11.270
REMARK INTRA:                  -0.623
REMARK UNBOUND:                -0.623
REMARK  Name = 
REMARK  10 active torsions:
REMARK  status: ('A' for Active; 'I' for Inactive)
REMARK    1  A    between atoms: C_1  and  C_2
REMARK    2  A    between atoms: C_5  and  C_6
REMARK    3  A    between atoms: N_8  and  C_9
REMARK    4  A    between atoms: C_9  and  C_10
REMARK    5  A    between atoms: C_13  and  C_14
REMARK    6  A    between atoms: C_14  and  N_15
REMARK    7  A    between atoms: N_15  and  C_16
REMARK    8  A    between atoms: N_15  and  C_17
REMARK    9  A    between atoms: C_17  and  C_18
REMARK   10  A    between atoms: C_30  and  C_31
REMARK                            x       y       z     vdW  Elec       q    Type
REMARK                         _______ _______ _______ _____ _____    ______ ____
ROOT
ATOM      1  C   UNL     1      48.700   6.977  14.141  0.00  0.00    +0.000 C 
ENDROOT
BRANCH   1   2
ATOM      2  C   UNL     1      47.588   6.449  13.272  0.00  0.00    +0.000 A 
ATOM      3  C   UNL     1      47.272   7.087  12.066  0.00  0.00    +0.000 A 
ATOM      4  C   UNL     1      46.266   6.584  11.240  0.00  0.00    +0.000 A 
ATOM      5  C   UNL     1      45.557   5.430  11.603  0.00  0.00    +0.000 A 
ATOM      6  C   UNL     1      45.841   4.819  12.830  0.00  0.00    +0.000 A 
ATOM      7  C   UNL     1      46.846   5.325  13.659  0.00  0.00    +0.000 A 
BRANCH   5   8
ATOM      8  C   UNL     1      44.526   4.830  10.663  0.00  0.00    +0.000 C 
BRANCH   8   9
ATOM      9  N   UNL     1      44.599   3.353  10.586  0.00  0.00    +0.000 NA
ATOM     10  C   UNL     1      43.642   2.730  11.511  0.00  0.00    +0.000 C 
BRANCH   9  11
ATOM     11  C   UNL     1      44.287   2.896   9.212  0.00  0.00    +0.000 C 
BRANCH  11  12
ATOM     12  C   UNL     1      45.487   2.487   8.377  0.00  0.00    +0.000 A 
ATOM     13  C   UNL     1      46.186   3.435   7.630  0.00  0.00    +0.000 A 
ATOM     14  C   UNL     1      47.307   3.029   6.911  0.00  0.00    +0.000 A 
ATOM     15  C   UNL     1      47.699   1.698   6.954  0.00  0.00    +0.000 A 
ATOM     16  C   UNL     1      46.941   0.817   7.707  0.00  0.00    +0.000 A 
ATOM     17  N   UNL     1      45.850   1.179   8.416  0.00  0.00    +0.000 NA
ENDBRANCH  11  12
ENDBRANCH   9  11
ENDBRANCH   8   9
ENDBRANCH   5   8
ENDBRANCH   1   2
BRANCH   1  20
ATOM     18  C   UNL     1      49.432   6.391  16.401  0.00  0.00    +0.000 C 
ATOM     19  O   UNL     1      50.594   6.245  16.038  0.00  0.00    +0.000 OA
ATOM     20  N   UNL     1      48.423   6.750  15.537  0.00  0.00    +0.000 N 
ATOM     21  H   UNL     1      47.570   7.132  15.922  0.00  0.00    +0.000 HD
BRANCH  18  26
ATOM     22  C   UNL     1      47.169  10.764  19.379  0.00  0.00    +0.000 C 
ATOM     23  C   UNL     1      47.519   9.315  19.561  0.00  0.00    +0.000 A 
ATOM     24  C   UNL     1      48.083   8.598  18.497  0.00  0.00    +0.000 A 
ATOM     25  C   UNL     1      48.443   7.243  18.676  0.00  0.00    +0.000 A 
ATOM     26  C   UNL     1      49.028   6.245  17.799  0.00  0.00    +0.000 A 
ATOM     27  C   UNL     1      49.138   5.024  18.446  0.00  0.00    +0.000 A 
ATOM     28  S   UNL     1      48.601   5.070  20.064  0.00  0.00    +0.000 S 
ATOM     29  C   UNL     1      48.170   6.710  19.931  0.00  0.00    +0.000 A 
ATOM     30  N   UNL     1      47.617   7.349  20.979  0.00  0.00    +0.000 NA
ATOM     31  C   UNL     1      47.299   8.643  20.768  0.00  0.00    +0.000 A 
ATOM     32  C   UNL     1      46.664   9.347  21.937  0.00  0.00    +0.000 C 
ENDBRANCH  18  26
ENDBRANCH   1  20
TORSDOF 7
ENDMDL
MODEL 2
REMARK VINA RESULT:    -7.631      2.055      2.612
REMARK INTER + INTRA:         -11.378
REMARK INTER:                 -10.416
REMARK INTRA:                  -0.962
REMARK UNBOUND:                -0.623
REMARK  Name = 
REMARK  10 active torsions:
REMARK  status: ('A' for Active; 'I' for Inactive)
REMARK    1  A    between atoms: C_1  and  C_2
REMARK    2  A    between atoms: C_5  and  C_6
REMARK    3  A    between atoms: N_8  and  C_9
REMARK    4  A    between atoms: C_9  and  C_10
REMARK    5  A    between atoms: C_13  and  C_14
REMARK    6  A    between atoms: C_14  and  N_15
REMARK    7  A    between atoms: N_15  and  C_16
REMARK    8  A    between atoms: N_15  and  C_17
REMARK    9  A    between atoms: C_17  and  C_18
REMARK   10  A    between atoms: C_30  and  C_31
REMARK                            x       y       z     vdW  Elec       q    Type
REMARK                         _______ _______ _______ _____ _____    ______ ____
ROOT
ATOM      1  C   UNL     1      49.261   7.528  13.343  0.00  0.00    +0.000 C 
ENDROOT
BRANCH   1   2
ATOM      2  C   UNL     1      48.041   6.821  12.813  0.00  0.00    +0.000 A 
ATOM      3  C   UNL     1      47.409   5.834  13.579  0.00  0.00    +0.000 A 
ATOM      4  C   UNL     1      46.259   5.198  13.109  0.00  0.00    +0.000 A 
ATOM      5  C   UNL     1      45.716   5.539  11.862  0.00  0.00    +0.000 A 
ATOM      6  C   UNL     1      46.374   6.492  11.075  0.00  0.00    +0.000 A 
ATOM      7  C   UNL     1      47.528   7.126  11.544  0.00  0.00    +0.000 A 
BRANCH   5   8
ATOM      8  C   UNL     1      44.415   4.915  11.389  0.00  0.00    +0.000 C 
BRANCH   8   9
ATOM      9  N   UNL     1      44.517   3.455  11.168  0.00  0.00    +0.000 NA
ATOM     10  C   UNL     1      43.686   2.718  12.129  0.00  0.00    +0.000 C 
BRANCH   9  11
ATOM     11  C   UNL     1      44.066   3.111   9.799  0.00  0.00    +0.000 C 
BRANCH  11  12
ATOM     12  C   UNL     1      45.177   2.839   8.801  0.00  0.00    +0.000 A 
ATOM     13  C   UNL     1      45.699   3.872   8.023  0.00  0.00    +0.000 A 
ATOM     14  C   UNL     1      46.746   3.591   7.149  0.00  0.00    +0.000 A 
ATOM     15  C   UNL     1      47.241   2.296   7.073  0.00  0.00    +0.000 A 
ATOM     16  C   UNL     1      46.657   1.324   7.868  0.00  0.00    +0.000 A 
ATOM     17  N   UNL     1      45.641   1.565   8.725  0.00  0.00    +0.000 NA
ENDBRANCH  11  12
ENDBRANCH   9  11
ENDBRANCH   8   9
ENDBRANCH   5   8
ENDBRANCH   1   2
BRANCH   1  20
ATOM     18  C   UNL     1      50.827   7.413  15.219  0.00  0.00    +0.000 C 
ATOM     19  O   UNL     1      51.381   8.453  14.882  0.00  0.00    +0.000 OA
ATOM     20  N   UNL     1      49.771   6.873  14.521  0.00  0.00    +0.000 N 
ATOM     21  H   UNL     1      49.179   6.199  14.986  0.00  0.00    +0.000 HD
BRANCH  18  26
ATOM     22  C   UNL     1      46.983   5.988  19.257  0.00  0.00    +0.000 C 
ATOM     23  C   UNL     1      48.447   5.828  18.964  0.00  0.00    +0.000 A 
ATOM     24  C   UNL     1      48.982   6.369  17.787  0.00  0.00    +0.000 A 
ATOM     25  C   UNL     1      50.366   6.248  17.524  0.00  0.00    +0.000 A 
ATOM     26  C   UNL     1      51.211   6.680  16.426  0.00  0.00    +0.000 A 
ATOM     27  C   UNL     1      52.519   6.263  16.617  0.00  0.00    +0.000 A 
ATOM     28  S   UNL     1      52.748   5.418  18.080  0.00  0.00    +0.000 S 
ATOM     29  C   UNL     1      51.099   5.551  18.477  0.00  0.00    +0.000 A 
ATOM     30  N   UNL     1      50.633   4.999  19.614  0.00  0.00    +0.000 NA
ATOM     31  C   UNL     1      49.309   5.149  19.830  0.00  0.00    +0.000 A 
ATOM     32  C   UNL     1      48.790   4.514  21.093  0.00  0.00    +0.000 C 
ENDBRANCH  18  26
ENDBRANCH   1  20
TORSDOF 7
ENDMDL
MODEL 3
REMARK VINA RESULT:    -7.501      1.710      2.780
REMARK INTER + INTRA:         -11.193
REMARK INTER:                 -10.366
REMARK INTRA:                  -0.827
REMARK UNBOUND:                -0.623
REMARK  Name = 
REMARK  10 active torsions:
REMARK  status: ('A' for Active; 'I' for Inactive)
REMARK    1  A    between atoms: C_1  and  C_2
REMARK    2  A    between atoms: C_5  and  C_6
REMARK    3  A    between atoms: N_8  and  C_9
REMARK    4  A    between atoms: C_9  and  C_10
REMARK    5  A    between atoms: C_13  and  C_14
REMARK    6  A    between atoms: C_14  and  N_15
REMARK    7  A    between atoms: N_15  and  C_16
REMARK    8  A    between atoms: N_15  and  C_17
REMARK    9  A    between atoms: C_17  and  C_18
REMARK   10  A    between atoms: C_30  and  C_31
REMARK                            x       y       z     vdW  Elec       q    Type
REMARK                         _______ _______ _______ _____ _____    ______ ____
ROOT
ATOM      1  C   UNL     1      47.403   8.847  13.275  0.00  0.00    +0.000 C 
ENDROOT
BRANCH   1   2
ATOM      2  C   UNL     1      46.443   7.845  12.690  0.00  0.00    +0.000 A 
ATOM      3  C   UNL     1      45.287   8.279  12.027  0.00  0.00    +0.000 A 
ATOM      4  C   UNL     1      44.411   7.358  11.452  0.00  0.00    +0.000 A 
ATOM      5  C   UNL     1      44.673   5.983  11.527  0.00  0.00    +0.000 A 
ATOM      6  C   UNL     1      45.803   5.546  12.229  0.00  0.00    +0.000 A 
ATOM      7  C   UNL     1      46.679   6.469  12.808  0.00  0.00    +0.000 A 
BRANCH   5   8
ATOM      8  C   UNL     1      43.769   4.985  10.825  0.00  0.00    +0.000 C 
BRANCH   8   9
ATOM      9  N   UNL     1      44.324   3.613  10.800  0.00  0.00    +0.000 NA
ATOM     10  C   UNL     1      43.701   2.774  11.833  0.00  0.00    +0.000 C 
BRANCH   9  11
ATOM     11  C   UNL     1      44.084   2.986   9.480  0.00  0.00    +0.000 C 
BRANCH  11  12
ATOM     12  C   UNL     1      45.305   2.874   8.584  0.00  0.00    +0.000 A 
ATOM     13  C   UNL     1      45.936   1.645   8.398  0.00  0.00    +0.000 A 
ATOM     14  C   UNL     1      47.027   1.574   7.536  0.00  0.00    +0.000 A 
ATOM     15  C   UNL     1      47.458   2.724   6.887  0.00  0.00    +0.000 A 
ATOM     16  C   UNL     1      46.786   3.908   7.138  0.00  0.00    +0.000 A 
ATOM     17  N   UNL     1      45.725   4.009   7.968  0.00  0.00    +0.000 NA
ENDBRANCH  11  12
ENDBRANCH   9  11
ENDBRANCH   8   9
ENDBRANCH   5   8
ENDBRANCH   1   2
BRANCH   1  20
ATOM     18  C   UNL     1      48.544   8.327  15.376  0.00  0.00    +0.000 C 
ATOM     19  O   UNL     1      49.562   7.977  14.792  0.00  0.00    +0.000 OA
ATOM     20  N   UNL     1      47.422   8.770  14.714  0.00  0.00    +0.000 N 
ATOM     21  H   UNL     1      46.737   9.307  15.229  0.00  0.00    +0.000 HD
BRANCH  18  26
ATOM     22  C   UNL     1      48.637   3.497  18.503  0.00  0.00    +0.000 C 
ATOM     23  C   UNL     1      48.559   4.984  18.696  0.00  0.00    +0.000 A 
ATOM     24  C   UNL     1      48.571   5.831  17.579  0.00  0.00    +0.000 A 
ATOM     25  C   UNL     1      48.465   7.229  17.757  0.00  0.00    +0.000 A 
ATOM     26  C   UNL     1      48.451   8.350  16.836  0.00  0.00    +0.000 A 
ATOM     27  C   UNL     1      48.381   9.553  17.523  0.00  0.00    +0.000 A 
ATOM     28  S   UNL     1      48.292   9.355  19.215  0.00  0.00    +0.000 S 
ATOM     29  C   UNL     1      48.385   7.663  19.076  0.00  0.00    +0.000 A 
ATOM     30  N   UNL     1      48.386   6.894  20.182  0.00  0.00    +0.000 NA
ATOM     31  C   UNL     1      48.477   5.565  19.966  0.00  0.00    +0.000 A 
ATOM     32  C   UNL     1      48.496   4.714  21.206  0.00  0.00    +0.000 C 
ENDBRANCH  18  26
ENDBRANCH   1  20
TORSDOF 7
ENDMDL
MODEL 4
REMARK VINA RESULT:    -7.381      4.640      7.545
REMARK INTER + INTRA:         -11.024
REMARK INTER:                 -10.102
REMARK INTRA:                  -0.922
REMARK UNBOUND:                -0.623
REMARK  Name = 
REMARK  10 active torsions:
REMARK  status: ('A' for Active; 'I' for Inactive)
REMARK    1  A    between atoms: C_1  and  C_2
REMARK    2  A    between atoms: C_5  and  C_6
REMARK    3  A    between atoms: N_8  and  C_9
REMARK    4  A    between atoms: C_9  and  C_10
REMARK    5  A    between atoms: C_13  and  C_14
REMARK    6  A    between atoms: C_14  and  N_15
REMARK    7  A    between atoms: N_15  and  C_16
REMARK    8  A    between atoms: N_15  and  C_17
REMARK    9  A    between atoms: C_17  and  C_18
REMARK   10  A    between atoms: C_30  and  C_31
REMARK                            x       y       z     vdW  Elec       q    Type
REMARK                         _______ _______ _______ _____ _____    ______ ____
ROOT
ATOM      1  C   UNL     1      49.231   7.292  13.647  0.00  0.00    +0.000 C 
ENDROOT
BRANCH   1   2
ATOM      2  C   UNL     1      47.956   6.627  13.203  0.00  0.00    +0.000 A 
ATOM      3  C   UNL     1      47.367   5.631  13.994  0.00  0.00    +0.000 A 
ATOM      4  C   UNL     1      46.168   5.033  13.605  0.00  0.00    +0.000 A 
ATOM      5  C   UNL     1      45.530   5.421  12.418  0.00  0.00    +0.000 A 
ATOM      6  C   UNL     1      46.141   6.383  11.605  0.00  0.00    +0.000 A 
ATOM      7  C   UNL     1      47.345   6.979  11.991  0.00  0.00    +0.000 A 
BRANCH   5   8
ATOM      8  C   UNL     1      44.180   4.838  12.041  0.00  0.00    +0.000 C 
BRANCH   8   9
ATOM      9  N   UNL     1      44.285   3.575  11.274  0.00  0.00    +0.000 NA
ATOM     10  C   UNL     1      43.310   2.586  11.753  0.00  0.00    +0.000 C 
BRANCH   9  11
ATOM     11  C   UNL     1      44.029   3.827   9.836  0.00  0.00    +0.000 C 
BRANCH  11  12
ATOM     12  C   UNL     1      45.117   3.346   8.892  0.00  0.00    +0.000 A 
ATOM     13  C   UNL     1      45.466   1.998   8.842  0.00  0.00    +0.000 A 
ATOM     14  C   UNL     1      46.437   1.589   7.932  0.00  0.00    +0.000 A 
ATOM     15  C   UNL     1      47.033   2.530   7.103  0.00  0.00    +0.000 A 
ATOM     16  C   UNL     1      46.641   3.852   7.226  0.00  0.00    +0.000 A 
ATOM     17  N   UNL     1      45.702   4.280   8.098  0.00  0.00    +0.000 NA
ENDBRANCH  11  12
ENDBRANCH   9  11
ENDBRANCH   8   9
ENDBRANCH   5   8
ENDBRANCH   1   2
BRANCH   1  20
ATOM     18  C   UNL     1      51.148   8.456  12.669  0.00  0.00    +0.000 C 
ATOM     19  O   UNL     1      51.826   8.286  13.676  0.00  0.00    +0.000 OA
ATOM     20  N   UNL     1      49.853   8.005  12.560  0.00  0.00    +0.000 N 
ATOM     21  H   UNL     1      49.450   7.913  11.637  0.00  0.00    +0.000 HD
BRANCH  18  26
ATOM     22  C   UNL     1      53.673   5.487   8.436  0.00  0.00    +0.000 C 
ATOM     23  C   UNL     1      53.299   6.901   8.777  0.00  0.00    +0.000 A 
ATOM     24  C   UNL     1      52.655   7.175   9.991  0.00  0.00    +0.000 A 
ATOM     25  C   UNL     1      52.332   8.509  10.329  0.00  0.00    +0.000 A 
ATOM     26  C   UNL     1      51.678   9.114  11.475  0.00  0.00    +0.000 A 
ATOM     27  C   UNL     1      51.548  10.484  11.302  0.00  0.00    +0.000 A 
ATOM     28  S   UNL     1      52.223  11.044   9.840  0.00  0.00    +0.000 S 
ATOM     29  C   UNL     1      52.668   9.468   9.379  0.00  0.00    +0.000 A 
ATOM     30  N   UNL     1      53.272   9.257   8.194  0.00  0.00    +0.000 NA
ATOM     31  C   UNL     1      53.573   7.970   7.917  0.00  0.00    +0.000 A 
ATOM     32  C   UNL     1      54.230   7.739   6.584  0.00  0.00    +0.000 C 
ENDBRANCH  18  26
ENDBRANCH   1  20
TORSDOF 7
ENDMDL
MODEL 5
REMARK VINA RESULT:    -7.260      2.060      2.879
REMARK INTER + INTRA:         -10.854
REMARK INTER:                  -9.929
REMARK INTRA:                  -0.925
REMARK UNBOUND:                -0.623
REMARK  Name = 
REMARK  10 active torsions:
REMARK  status: ('A' for Active; 'I' for Inactive)
REMARK    1  A    between atoms: C_1  and  C_2
REMARK    2  A    between atoms: C_5  and  C_6
REMARK    3  A    between atoms: N_8  and  C_9
REMARK    4  A    between atoms: C_9  and  C_10
REMARK    5  A    between atoms: C_13  and  C_14
REMARK    6  A    between atoms: C_14  and  N_15
REMARK    7  A    between atoms: N_15  and  C_16
REMARK    8  A    between atoms: N_15  and  C_17
REMARK    9  A    between atoms: C_17  and  C_18
REMARK   10  A    between atoms: C_30  and  C_31
REMARK                            x       y       z     vdW  Elec       q    Type
REMARK                         _______ _______ _______ _____ _____    ______ ____
ROOT
ATOM      1  C   UNL     1      49.565   7.509  13.416  0.00  0.00    +0.000 C 
ENDROOT
BRANCH   1   2
ATOM      2  C   UNL     1      48.263   6.874  13.007  0.00  0.00    +0.000 A 
ATOM      3  C   UNL     1      47.614   5.978  13.866  0.00  0.00    +0.000 A 
ATOM      4  C   UNL     1      46.389   5.412  13.507  0.00  0.00    +0.000 A 
ATOM      5  C   UNL     1      45.788   5.732  12.282  0.00  0.00    +0.000 A 
ATOM      6  C   UNL     1      46.459   6.592  11.403  0.00  0.00    +0.000 A 
ATOM      7  C   UNL     1      47.687   7.156  11.760  0.00  0.00    +0.000 A 
BRANCH   5   8
ATOM      8  C   UNL     1      44.414   5.189  11.930  0.00  0.00    +0.000 C 
BRANCH   8   9
ATOM      9  N   UNL     1      44.458   3.831  11.342  0.00  0.00    +0.000 NA
ATOM     10  C   UNL     1      43.525   2.929  12.029  0.00  0.00    +0.000 C 
BRANCH   9  11
ATOM     11  C   UNL     1      44.090   3.883   9.908  0.00  0.00    +0.000 C 
BRANCH  11  12
ATOM     12  C   UNL     1      45.141   3.351   8.950  0.00  0.00    +0.000 A 
ATOM     13  C   UNL     1      45.438   1.989   8.910  0.00  0.00    +0.000 A 
ATOM     14  C   UNL     1      46.377   1.534   7.988  0.00  0.00    +0.000 A 
ATOM     15  C   UNL     1      46.993   2.442   7.137  0.00  0.00    +0.000 A 
ATOM     16  C   UNL     1      46.653   3.780   7.251  0.00  0.00    +0.000 A 
ATOM     17  N   UNL     1      45.746   4.252   8.134  0.00  0.00    +0.000 NA
ENDBRANCH  11  12
ENDBRANCH   9  11
ENDBRANCH   8   9
ENDBRANCH   5   8
ENDBRANCH   1   2
BRANCH   1  20
ATOM     18  C   UNL     1      48.978   9.380  14.880  0.00  0.00    +0.000 C 
ATOM     19  O   UNL     1      48.612  10.067  13.934  0.00  0.00    +0.000 OA
ATOM     20  N   UNL     1      49.467   8.103  14.726  0.00  0.00    +0.000 N 
ATOM     21  H   UNL     1      49.478   7.489  15.529  0.00  0.00    +0.000 HD
BRANCH  18  26
ATOM     22  C   UNL     1      47.285   5.890  19.131  0.00  0.00    +0.000 C 
ATOM     23  C   UNL     1      47.744   7.305  18.926  0.00  0.00    +0.000 A 
ATOM     24  C   UNL     1      48.075   7.748  17.638  0.00  0.00    +0.000 A 
ATOM     25  C   UNL     1      48.475   9.089  17.438  0.00  0.00    +0.000 A 
ATOM     26  C   UNL     1      48.878   9.842  16.265  0.00  0.00    +0.000 A 
ATOM     27  C   UNL     1      49.234  11.137  16.608  0.00  0.00    +0.000 A 
ATOM     28  S   UNL     1      49.054  11.465  18.271  0.00  0.00    +0.000 S 
ATOM     29  C   UNL     1      48.536   9.875  18.584  0.00  0.00    +0.000 A 
ATOM     30  N   UNL     1      48.244   9.496  19.842  0.00  0.00    +0.000 NA
ATOM     31  C   UNL     1      47.856   8.211  19.986  0.00  0.00    +0.000 A 
ATOM     32  C   UNL     1      47.550   7.788  21.398  0.00  0.00    +0.000 C 
ENDBRANCH  18  26
ENDBRANCH   1  20
TORSDOF 7
ENDMDL
MODEL 6
REMARK VINA RESULT:    -7.258      4.003      5.563
REMARK INTER + INTRA:         -10.851
REMARK INTER:                  -9.735
REMARK INTRA:                  -1.116
REMARK UNBOUND:                -0.623
REMARK  Name = 
REMARK  10 active torsions:
REMARK  status: ('A' for Active; 'I' for Inactive)
REMARK    1  A    between atoms: C_1  and  C_2
REMARK    2  A    between atoms: C_5  and  C_6
REMARK    3  A    between atoms: N_8  and  C_9
REMARK    4  A    between atoms: C_9  and  C_10
REMARK    5  A    between atoms: C_13  and  C_14
REMARK    6  A    between atoms: C_14  and  N_15
REMARK    7  A    between atoms: N_15  and  C_16
REMARK    8  A    between atoms: N_15  and  C_17
REMARK    9  A    between atoms: C_17  and  C_18
REMARK   10  A    between atoms: C_30  and  C_31
REMARK                            x       y       z     vdW  Elec       q    Type
REMARK                         _______ _______ _______ _____ _____    ______ ____
ROOT
ATOM      1  C   UNL     1      47.675   3.321  17.132  0.00  0.00    +0.000 C 
ENDROOT
BRANCH   1   2
ATOM      2  C   UNL     1      47.589   4.198  15.911  0.00  0.00    +0.000 A 
ATOM      3  C   UNL     1      46.977   3.724  14.744  0.00  0.00    +0.000 A 
ATOM      4  C   UNL     1      46.862   4.543  13.620  0.00  0.00    +0.000 A 
ATOM      5  C   UNL     1      47.357   5.855  13.640  0.00  0.00    +0.000 A 
ATOM      6  C   UNL     1      48.010   6.313  14.791  0.00  0.00    +0.000 A 
ATOM      7  C   UNL     1      48.128   5.492  15.916  0.00  0.00    +0.000 A 
BRANCH   5   8
ATOM      8  C   UNL     1      47.152   6.776  12.451  0.00  0.00    +0.000 C 
BRANCH   8   9
ATOM      9  N   UNL     1      45.924   7.596  12.554  0.00  0.00    +0.000 NA
ATOM     10  C   UNL     1      46.234   9.027  12.434  0.00  0.00    +0.000 C 
BRANCH   9  11
ATOM     11  C   UNL     1      44.973   7.231  11.478  0.00  0.00    +0.000 C 
BRANCH  11  12
ATOM     12  C   UNL     1      44.369   5.843  11.591  0.00  0.00    +0.000 A 
ATOM     13  C   UNL     1      44.540   4.911  10.569  0.00  0.00    +0.000 A 
ATOM     14  C   UNL     1      44.008   3.634  10.728  0.00  0.00    +0.000 A 
ATOM     15  C   UNL     1      43.320   3.323  11.893  0.00  0.00    +0.000 A 
ATOM     16  C   UNL     1      43.180   4.311  12.854  0.00  0.00    +0.000 A 
ATOM     17  N   UNL     1      43.686   5.557  12.730  0.00  0.00    +0.000 NA
ENDBRANCH  11  12
ENDBRANCH   9  11
ENDBRANCH   8   9
ENDBRANCH   5   8
ENDBRANCH   1   2
BRANCH   1  20
ATOM     18  C   UNL     1      49.875   2.273  16.905  0.00  0.00    +0.000 C 
ATOM     19  O   UNL     1      49.507   1.596  15.951  0.00  0.00    +0.000 OA
ATOM     20  N   UNL     1      49.042   3.153  17.557  0.00  0.00    +0.000 N 
ATOM     21  H   UNL     1      49.456   3.878  18.127  0.00  0.00    +0.000 HD
BRANCH  18  26
ATOM     22  C   UNL     1      52.681   7.067  18.406  0.00  0.00    +0.000 C 
ATOM     23  C   UNL     1      52.897   5.582  18.359  0.00  0.00    +0.000 A 
ATOM     24  C   UNL     1      51.872   4.746  17.895  0.00  0.00    +0.000 A 
ATOM     25  C   UNL     1      52.084   3.350  17.820  0.00  0.00    +0.000 A 
ATOM     26  C   UNL     1      51.251   2.239  17.400  0.00  0.00    +0.000 A 
ATOM     27  C   UNL     1      51.915   1.034  17.567  0.00  0.00    +0.000 A 
ATOM     28  S   UNL     1      53.501   1.218  18.165  0.00  0.00    +0.000 S 
ATOM     29  C   UNL     1      53.328   2.908  18.256  0.00  0.00    +0.000 A 
ATOM     30  N   UNL     1      54.339   3.665  18.724  0.00  0.00    +0.000 NA
ATOM     31  C   UNL     1      54.097   4.992  18.768  0.00  0.00    +0.000 A 
ATOM     32  C   UNL     1      55.223   5.831  19.310  0.00  0.00    +0.000 C 
ENDBRANCH  18  26
ENDBRANCH   1  20
TORSDOF 7
ENDMDL
MODEL 7
REMARK VINA RESULT:    -7.226      3.260      4.072
REMARK INTER + INTRA:         -10.806
REMARK INTER:                  -9.797
REMARK INTRA:                  -1.008
REMARK UNBOUND:                -0.623
REMARK  Name = 
REMARK  10 active torsions:
REMARK  status: ('A' for Active; 'I' for Inactive)
REMARK    1  A    between atoms: C_1  and  C_2
REMARK    2  A    between atoms: C_5  and  C_6
REMARK    3  A    between atoms: N_8  and  C_9
REMARK    4  A    between atoms: C_9  and  C_10
REMARK    5  A    between atoms: C_13  and  C_14
REMARK    6  A    between atoms: C_14  and  N_15
REMARK    7  A    between atoms: N_15  and  C_16
REMARK    8  A    between atoms: N_15  and  C_17
REMARK    9  A    between atoms: C_17  and  C_18
REMARK   10  A    between atoms: C_30  and  C_31
REMARK                            x       y       z     vdW  Elec       q    Type
REMARK                         _______ _______ _______ _____ _____    ______ ____
ROOT
ATOM      1  C   UNL     1      49.078   9.093  12.247  0.00  0.00    +0.000 C 
ENDROOT
BRANCH   1   2
ATOM      2  C   UNL     1      47.793   8.312  12.168  0.00  0.00    +0.000 A 
ATOM      3  C   UNL     1      46.561   8.967  12.299  0.00  0.00    +0.000 A 
ATOM      4  C   UNL     1      45.365   8.255  12.194  0.00  0.00    +0.000 A 
ATOM      5  C   UNL     1      45.377   6.874  11.953  0.00  0.00    +0.000 A 
ATOM      6  C   UNL     1      46.608   6.212  11.869  0.00  0.00    +0.000 A 
ATOM      7  C   UNL     1      47.806   6.923  11.978  0.00  0.00    +0.000 A 
BRANCH   5   8
ATOM      8  C   UNL     1      44.078   6.115  11.748  0.00  0.00    +0.000 C 
BRANCH   8   9
ATOM      9  N   UNL     1      44.284   4.684  11.426  0.00  0.00    +0.000 NA
ATOM     10  C   UNL     1      43.539   3.823  12.355  0.00  0.00    +0.000 C 
BRANCH   9  11
ATOM     11  C   UNL     1      43.822   4.397  10.048  0.00  0.00    +0.000 C 
BRANCH  11  12
ATOM     12  C   UNL     1      44.821   3.667   9.169  0.00  0.00    +0.000 A 
ATOM     13  C   UNL     1      44.986   2.287   9.280  0.00  0.00    +0.000 A 
ATOM     14  C   UNL     1      45.881   1.648   8.426  0.00  0.00    +0.000 A 
ATOM     15  C   UNL     1      46.585   2.396   7.492  0.00  0.00    +0.000 A 
ATOM     16  C   UNL     1      46.375   3.764   7.457  0.00  0.00    +0.000 A 
ATOM     17  N   UNL     1      45.514   4.414   8.271  0.00  0.00    +0.000 NA
ENDBRANCH  11  12
ENDBRANCH   9  11
ENDBRANCH   8   9
ENDBRANCH   5   8
ENDBRANCH   1   2
BRANCH   1  20
ATOM     18  C   UNL     1      50.654   8.998  14.117  0.00  0.00    +0.000 C 
ATOM     19  O   UNL     1      50.379  10.139  14.469  0.00  0.00    +0.000 OA
ATOM     20  N   UNL     1      50.066   8.393  13.029  0.00  0.00    +0.000 N 
ATOM     21  H   UNL     1      50.106   7.386  12.957  0.00  0.00    +0.000 HD
BRANCH  18  26
ATOM     22  C   UNL     1      48.878   4.856  17.695  0.00  0.00    +0.000 C 
ATOM     23  C   UNL     1      50.156   5.444  17.169  0.00  0.00    +0.000 A 
ATOM     24  C   UNL     1      50.107   6.505  16.255  0.00  0.00    +0.000 A 
ATOM     25  C   UNL     1      51.309   7.082  15.783  0.00  0.00    +0.000 A 
ATOM     26  C   UNL     1      51.598   8.160  14.856  0.00  0.00    +0.000 A 
ATOM     27  C   UNL     1      52.965   8.309  14.683  0.00  0.00    +0.000 A 
ATOM     28  S   UNL     1      53.884   7.227  15.629  0.00  0.00    +0.000 S 
ATOM     29  C   UNL     1      52.480   6.504  16.262  0.00  0.00    +0.000 A 
ATOM     30  N   UNL     1      52.582   5.476  17.126  0.00  0.00    +0.000 NA
ATOM     31  C   UNL     1      51.410   4.964  17.559  0.00  0.00    +0.000 A 
ATOM     32  C   UNL     1      51.531   3.803  18.509  0.00  0.00    +0.000 C 
ENDBRANCH  18  26
ENDBRANCH   1  20
TORSDOF 7
ENDMDL
MODEL 8
REMARK VINA RESULT:    -7.138      1.652      2.287
REMARK INTER + INTRA:         -10.682
REMARK INTER:                  -9.733
REMARK INTRA:                  -0.949
REMARK UNBOUND:                -0.623
REMARK  Name = 
REMARK  10 active torsions:
REMARK  status: ('A' for Active; 'I' for Inactive)
REMARK    1  A    between atoms: C_1  and  C_2
REMARK    2  A    between atoms: C_5  and  C_6
REMARK    3  A    between atoms: N_8  and  C_9
REMARK    4  A    between atoms: C_9  and  C_10
REMARK    5  A    between atoms: C_13  and  C_14
REMARK    6  A    between atoms: C_14  and  N_15
REMARK    7  A    between atoms: N_15  and  C_16
REMARK    8  A    between atoms: N_15  and  C_17
REMARK    9  A    between atoms: C_17  and  C_18
REMARK   10  A    between atoms: C_30  and  C_31
REMARK                            x       y       z     vdW  Elec       q    Type
REMARK                         _______ _______ _______ _____ _____    ______ ____
ROOT
ATOM      1  C   UNL     1      48.013   4.221  16.189  0.00  0.00    +0.000 C 
ENDROOT
BRANCH   1   2
ATOM      2  C   UNL     1      47.295   4.565  14.911  0.00  0.00    +0.000 A 
ATOM      3  C   UNL     1      47.300   5.881  14.431  0.00  0.00    +0.000 A 
ATOM      4  C   UNL     1      46.666   6.201  13.230  0.00  0.00    +0.000 A 
ATOM      5  C   UNL     1      46.014   5.211  12.482  0.00  0.00    +0.000 A 
ATOM      6  C   UNL     1      45.969   3.904  12.984  0.00  0.00    +0.000 A 
ATOM      7  C   UNL     1      46.600   3.584  14.189  0.00  0.00    +0.000 A 
BRANCH   5   8
ATOM      8  C   UNL     1      45.403   5.539  11.132  0.00  0.00    +0.000 C 
BRANCH   8   9
ATOM      9  N   UNL     1      44.208   4.722  10.820  0.00  0.00    +0.000 NA
ATOM     10  C   UNL     1      42.991   5.342  11.360  0.00  0.00    +0.000 C 
BRANCH   9  11
ATOM     11  C   UNL     1      44.051   4.583   9.353  0.00  0.00    +0.000 C 
BRANCH  11  12
ATOM     12  C   UNL     1      45.075   3.691   8.674  0.00  0.00    +0.000 A 
ATOM     13  C   UNL     1      45.153   2.336   8.990  0.00  0.00    +0.000 A 
ATOM     14  C   UNL     1      46.076   1.541   8.315  0.00  0.00    +0.000 A 
ATOM     15  C   UNL     1      46.893   2.116   7.350  0.00  0.00    +0.000 A 
ATOM     16  C   UNL     1      46.763   3.473   7.106  0.00  0.00    +0.000 A 
ATOM     17  N   UNL     1      45.877   4.269   7.743  0.00  0.00    +0.000 NA
ENDBRANCH  11  12
ENDBRANCH   9  11
ENDBRANCH   8   9
ENDBRANCH   5   8
ENDBRANCH   1   2
BRANCH   1  20
ATOM     18  C   UNL     1      48.521   5.262  18.344  0.00  0.00    +0.000 C 
ATOM     19  O   UNL     1      49.487   4.529  18.524  0.00  0.00    +0.000 OA
ATOM     20  N   UNL     1      47.729   5.185  17.222  0.00  0.00    +0.000 N 
ATOM     21  H   UNL     1      47.144   5.976  16.988  0.00  0.00    +0.000 HD
BRANCH  18  26
ATOM     22  C   UNL     1      48.427  10.806  16.805  0.00  0.00    +0.000 C 
ATOM     23  C   UNL     1      48.149   9.946  18.005  0.00  0.00    +0.000 A 
ATOM     24  C   UNL     1      48.313   8.557  17.916  0.00  0.00    +0.000 A 
ATOM     25  C   UNL     1      48.083   7.749  19.053  0.00  0.00    +0.000 A 
ATOM     26  C   UNL     1      48.158   6.319  19.288  0.00  0.00    +0.000 A 
ATOM     27  C   UNL     1      47.777   6.012  20.585  0.00  0.00    +0.000 A 
ATOM     28  S   UNL     1      47.384   7.387  21.514  0.00  0.00    +0.000 S 
ATOM     29  C   UNL     1      47.671   8.425  20.196  0.00  0.00    +0.000 A 
ATOM     30  N   UNL     1      47.483   9.752  20.330  0.00  0.00    +0.000 NA
ATOM     31  C   UNL     1      47.725  10.486  19.223  0.00  0.00    +0.000 A 
ATOM     32  C   UNL     1      47.496  11.966  19.373  0.00  0.00    +0.000 C 
ENDBRANCH  18  26
ENDBRANCH   1  20
TORSDOF 7
ENDMDL
MODEL 9
REMARK VINA RESULT:    -7.054      2.187      2.859
REMARK INTER + INTRA:         -10.564
REMARK INTER:                 -10.004
REMARK INTRA:                  -0.559
REMARK UNBOUND:                -0.623
REMARK  Name = 
REMARK  10 active torsions:
REMARK  status: ('A' for Active; 'I' for Inactive)
REMARK    1  A    between atoms: C_1  and  C_2
REMARK    2  A    between atoms: C_5  and  C_6
REMARK    3  A    between atoms: N_8  and  C_9
REMARK    4  A    between atoms: C_9  and  C_10
REMARK    5  A    between atoms: C_13  and  C_14
REMARK    6  A    between atoms: C_14  and  N_15
REMARK    7  A    between atoms: N_15  and  C_16
REMARK    8  A    between atoms: N_15  and  C_17
REMARK    9  A    between atoms: C_17  and  C_18
REMARK   10  A    between atoms: C_30  and  C_31
REMARK                            x       y       z     vdW  Elec       q    Type
REMARK                         _______ _______ _______ _____ _____    ______ ____
ROOT
ATOM      1  C   UNL     1      48.574   6.435  15.057  0.00  0.00    +0.000 C 
ENDROOT
BRANCH   1   2
ATOM      2  C   UNL     1      47.592   6.056  13.979  0.00  0.00    +0.000 A 
ATOM      3  C   UNL     1      46.762   4.940  14.142  0.00  0.00    +0.000 A 
ATOM      4  C   UNL     1      45.827   4.602  13.163  0.00  0.00    +0.000 A 
ATOM      5  C   UNL     1      45.702   5.376  12.000  0.00  0.00    +0.000 A 
ATOM      6  C   UNL     1      46.564   6.464  11.815  0.00  0.00    +0.000 A 
ATOM      7  C   UNL     1      47.503   6.800  12.794  0.00  0.00    +0.000 A 
BRANCH   5   8
ATOM      8  C   UNL     1      44.624   5.064  10.977  0.00  0.00    +0.000 C 
BRANCH   8   9
ATOM      9  N   UNL     1      44.741   3.703  10.404  0.00  0.00    +0.000 NA
ATOM     10  C   UNL     1      43.711   2.811  10.954  0.00  0.00    +0.000 C 
BRANCH   9  11
ATOM     11  C   UNL     1      44.583   3.751   8.932  0.00  0.00    +0.000 C 
BRANCH  11  12
ATOM     12  C   UNL     1      45.604   2.951   8.144  0.00  0.00    +0.000 A 
ATOM     13  C   UNL     1      46.338   3.551   7.122  0.00  0.00    +0.000 A 
ATOM     14  C   UNL     1      47.296   2.796   6.451  0.00  0.00    +0.000 A 
ATOM     15  C   UNL     1      47.495   1.470   6.813  0.00  0.00    +0.000 A 
ATOM     16  C   UNL     1      46.714   0.945   7.829  0.00  0.00    +0.000 A 
ATOM     17  N   UNL     1      45.777   1.651   8.499  0.00  0.00    +0.000 NA
ENDBRANCH  11  12
ENDBRANCH   9  11
ENDBRANCH   8   9
ENDBRANCH   5   8
ENDBRANCH   1   2
BRANCH   1  20
ATOM     18  C   UNL     1      48.819   8.212  16.721  0.00  0.00    +0.000 C 
ATOM     19  O   UNL     1      49.389   7.463  17.506  0.00  0.00    +0.000 OA
ATOM     20  N   UNL     1      48.376   7.797  15.486  0.00  0.00    +0.000 N 
ATOM     21  H   UNL     1      48.183   8.495  14.782  0.00  0.00    +0.000 HD
BRANCH  18  26
ATOM     22  C   UNL     1      46.100   9.961  21.481  0.00  0.00    +0.000 C 
ATOM     23  C   UNL     1      46.779  10.539  20.273  0.00  0.00    +0.000 A 
ATOM     24  C   UNL     1      47.336   9.683  19.314  0.00  0.00    +0.000 A 
ATOM     25  C   UNL     1      47.948  10.225  18.159  0.00  0.00    +0.000 A 
ATOM     26  C   UNL     1      48.605   9.630  17.011  0.00  0.00    +0.000 A 
ATOM     27  C   UNL     1      49.094  10.610  16.160  0.00  0.00    +0.000 A 
ATOM     28  S   UNL     1      48.745  12.193  16.689  0.00  0.00    +0.000 S 
ATOM     29  C   UNL     1      47.969  11.613  18.087  0.00  0.00    +0.000 A 
ATOM     30  N   UNL     1      47.463  12.479  18.985  0.00  0.00    +0.000 NA
ATOM     31  C   UNL     1      46.879  11.919  20.066  0.00  0.00    +0.000 A 
ATOM     32  C   UNL     1      46.332  12.892  21.075  0.00  0.00    +0.000 C 
ENDBRANCH  18  26
ENDBRANCH   1  20
TORSDOF 7
ENDMDL
