MODEL 1
REMARK VINA RESULT:    -7.633      0.000      0.000
REMARK INTER + INTRA:         -10.816
REMARK INTER:                  -9.864
REMARK INTRA:                  -0.952
REMARK UNBOUND:                -0.952
REMARK  Name = 
REMARK  5 active torsions:
REMARK  status: ('A' for Active; 'I' for Inactive)
REMARK    1  A    between atoms: C_2  and  C_4
REMARK    2  A    between atoms: C_8  and  O_9
REMARK    3  A    between atoms: O_9  and  C_10
REMARK    4  A    between atoms: C_10  and  C_11
REMARK    5  A    between atoms: C_15  and  C_16
REMARK                            x       y       z     vdW  Elec       q    Type
REMARK                         _______ _______ _______ _____ _____    ______ ____
ROOT
ATOM      1  C   UNL     1      44.468   6.479  10.812  0.00  0.00    +0.000 C 
ENDROOT
BRANCH   1   2
ATOM      2  C   UNL     1      44.507   4.997  10.532  0.00  0.00    +0.000 A 
ATOM      3  C   UNL     1      43.620   4.129  11.175  0.00  0.00    +0.000 A 
ATOM      4  C   UNL     1      43.590   2.781  10.830  0.00  0.00    +0.000 A 
ATOM      5  C   UNL     1      44.439   2.296   9.831  0.00  0.00    +0.000 A 
ATOM      6  C   UNL     1      45.330   3.142   9.146  0.00  0.00    +0.000 A 
ATOM      7  C   UNL     1      45.374   4.489   9.550  0.00  0.00    +0.000 A 
BRANCH   6   8
ATOM      8  C   UNL     1      46.101   2.668   7.971  0.00  0.00    +0.000 A 
ATOM      9  C   UNL     1      46.585   1.347   7.918  0.00  0.00    +0.000 A 
ATOM     10  C   UNL     1      47.227   0.844   6.784  0.00  0.00    +0.000 A 
ATOM     11  C   UNL     1      47.392   1.650   5.665  0.00  0.00    +0.000 A 
ATOM     12  C   UNL     1      46.937   2.966   5.690  0.00  0.00    +0.000 A 
ATOM     13  C   UNL     1      46.307   3.471   6.834  0.00  0.00    +0.000 A 
ENDBRANCH   6   8
ENDBRANCH   1   2
BRANCH   1  14
ATOM     14  O   UNL     1      44.459   6.739  12.214  0.00  0.00    +0.000 OA
BRANCH  14  19
ATOM     15  C   UNL     1      47.126   5.342  14.254  0.00  0.00    +0.000 A 
ATOM     16  C   UNL     1      48.121   6.325  14.175  0.00  0.00    +0.000 A 
ATOM     17  C   UNL     1      47.904   7.473  13.418  0.00  0.00    +0.000 A 
ATOM     18  C   UNL     1      46.692   7.645  12.745  0.00  0.00    +0.000 A 
ATOM     19  C   UNL     1      45.685   6.679  12.828  0.00  0.00    +0.000 A 
ATOM     20  C   UNL     1      45.903   5.531  13.593  0.00  0.00    +0.000 A 
BRANCH  15  22
ATOM     21  N   UNL     1      47.651   4.300  16.380  0.00  0.00    +0.000 N 
ATOM     22  C   UNL     1      47.398   4.122  15.050  0.00  0.00    +0.000 C 
ATOM     23  O   UNL     1      47.358   2.999  14.553  0.00  0.00    +0.000 OA
ATOM     24  H   UNL     1      47.747   3.464  16.946  0.00  0.00    +0.000 HD
ATOM     25  H   UNL     1      47.465   5.173  16.856  0.00  0.00    +0.000 HD
ENDBRANCH  15  22
ENDBRANCH  14  19
ENDBRANCH   1  14
TORSDOF 5
ENDMDL
MODEL 2
REMARK VINA RESULT:    -7.330      1.524      2.391
REMARK INTER + INTRA:         -10.425
REMARK INTER:                  -9.526
REMARK INTRA:                  -0.899
REMARK UNBOUND:                -0.952
REMARK  Name = 
REMARK  5 active torsions:
REMARK  status: ('A' for Active; 'I' for Inactive)
REMARK    1  A    between atoms: C_2  and  C_4
REMARK    2  A    between atoms: C_8  and  O_9
REMARK    3  A    between atoms: O_9  and  C_10
REMARK    4  A    between atoms: C_10  and  C_11
REMARK    5  A    between atoms: C_15  and  C_16
REMARK                            x       y       z     vdW  Elec       q    Type
REMARK                         _______ _______ _______ _____ _____    ______ ____
ROOT
ATOM      1  C   UNL     1      45.858   6.851  12.865  0.00  0.00    +0.000 C 
ENDROOT
BRANCH   1   2
ATOM      2  C   UNL     1      44.998   5.874  12.103  0.00  0.00    +0.000 A 
ATOM      3  C   UNL     1      43.613   5.856  12.283  0.00  0.00    +0.000 A 
ATOM      4  C   UNL     1      42.817   5.028  11.497  0.00  0.00    +0.000 A 
ATOM      5  C   UNL     1      43.402   4.221  10.517  0.00  0.00    +0.000 A 
ATOM      6  C   UNL     1      44.791   4.228  10.290  0.00  0.00    +0.000 A 
ATOM      7  C   UNL     1      45.575   5.036  11.133  0.00  0.00    +0.000 A 
BRANCH   6   8
ATOM      8  C   UNL     1      45.391   3.510   9.140  0.00  0.00    +0.000 A 
ATOM      9  C   UNL     1      45.959   4.224   8.067  0.00  0.00    +0.000 A 
ATOM     10  C   UNL     1      46.619   3.576   7.020  0.00  0.00    +0.000 A 
ATOM     11  C   UNL     1      46.740   2.192   7.026  0.00  0.00    +0.000 A 
ATOM     12  C   UNL     1      46.178   1.456   8.066  0.00  0.00    +0.000 A 
ATOM     13  C   UNL     1      45.504   2.108   9.106  0.00  0.00    +0.000 A 
ENDBRANCH   6   8
ENDBRANCH   1   2
BRANCH   1  14
ATOM     14  O   UNL     1      47.218   6.425  12.897  0.00  0.00    +0.000 OA
BRANCH  14  19
ATOM     15  C   UNL     1      47.893   4.671  16.010  0.00  0.00    +0.000 A 
ATOM     16  C   UNL     1      48.695   5.584  16.710  0.00  0.00    +0.000 A 
ATOM     17  C   UNL     1      49.025   6.804  16.129  0.00  0.00    +0.000 A 
ATOM     18  C   UNL     1      48.552   7.120  14.853  0.00  0.00    +0.000 A 
ATOM     19  C   UNL     1      47.740   6.225  14.150  0.00  0.00    +0.000 A 
ATOM     20  C   UNL     1      47.404   5.004  14.738  0.00  0.00    +0.000 A 
BRANCH  15  22
ATOM     21  N   UNL     1      48.505   2.379  16.512  0.00  0.00    +0.000 N 
ATOM     22  C   UNL     1      47.578   3.372  16.649  0.00  0.00    +0.000 C 
ATOM     23  O   UNL     1      46.553   3.202  17.306  0.00  0.00    +0.000 OA
ATOM     24  H   UNL     1      48.336   1.519  17.022  0.00  0.00    +0.000 HD
ATOM     25  H   UNL     1      49.445   2.556  16.182  0.00  0.00    +0.000 HD
ENDBRANCH  15  22
ENDBRANCH  14  19
ENDBRANCH   1  14
TORSDOF 5
ENDMDL
MODEL 3
REMARK VINA RESULT:    -7.222      2.280      3.271
REMARK INTER + INTRA:         -10.285
REMARK INTER:                  -9.211
REMARK INTRA:                  -1.074
REMARK UNBOUND:                -0.952
REMARK  Name = 
REMARK  5 active torsions:
REMARK  status: ('A' for Active; 'I' for Inactive)
REMARK    1  A    between atoms: C_2  and  C_4
REMARK    2  A    between atoms: C_8  and  O_9
REMARK    3  A    between atoms: O_9  and  C_10
REMARK    4  A    between atoms: C_10  and  C_11
REMARK    5  A    between atoms: C_15  and  C_16
REMARK                            x       y       z     vdW  Elec       q    Type
REMARK                         _______ _______ _______ _____ _____    ______ ____
ROOT
ATOM      1  C   UNL     1      44.467   6.952  11.317  0.00  0.00    +0.000 C 
ENDROOT
BRANCH   1   2
ATOM      2  C   UNL     1      44.369   5.468  11.068  0.00  0.00    +0.000 A 
ATOM      3  C   UNL     1      43.434   4.692  11.758  0.00  0.00    +0.000 A 
ATOM      4  C   UNL     1      43.275   3.346  11.443  0.00  0.00    +0.000 A 
ATOM      5  C   UNL     1      44.043   2.770  10.428  0.00  0.00    +0.000 A 
ATOM      6  C   UNL     1      44.980   3.522   9.695  0.00  0.00    +0.000 A 
ATOM      7  C   UNL     1      45.154   4.867  10.068  0.00  0.00    +0.000 A 
BRANCH   6   8
ATOM      8  C   UNL     1      45.666   2.961   8.506  0.00  0.00    +0.000 A 
ATOM      9  C   UNL     1      46.038   3.795   7.434  0.00  0.00    +0.000 A 
ATOM     10  C   UNL     1      46.773   3.312   6.348  0.00  0.00    +0.000 A 
ATOM     11  C   UNL     1      47.165   1.981   6.313  0.00  0.00    +0.000 A 
ATOM     12  C   UNL     1      46.801   1.127   7.351  0.00  0.00    +0.000 A 
ATOM     13  C   UNL     1      46.053   1.611   8.430  0.00  0.00    +0.000 A 
ENDBRANCH   6   8
ENDBRANCH   1   2
BRANCH   1  14
ATOM     14  O   UNL     1      45.036   7.224  12.595  0.00  0.00    +0.000 OA
BRANCH  14  19
ATOM     15  C   UNL     1      48.418   8.458  12.084  0.00  0.00    +0.000 A 
ATOM     16  C   UNL     1      49.206   7.430  12.619  0.00  0.00    +0.000 A 
ATOM     17  C   UNL     1      48.598   6.306  13.171  0.00  0.00    +0.000 A 
ATOM     18  C   UNL     1      47.204   6.203  13.184  0.00  0.00    +0.000 A 
ATOM     19  C   UNL     1      46.408   7.215  12.640  0.00  0.00    +0.000 A 
ATOM     20  C   UNL     1      47.021   8.338  12.081  0.00  0.00    +0.000 A 
BRANCH  15  22
ATOM     21  N   UNL     1      50.463   9.638  11.525  0.00  0.00    +0.000 N 
ATOM     22  C   UNL     1      49.097   9.650  11.524  0.00  0.00    +0.000 C 
ATOM     23  O   UNL     1      48.468  10.591  11.042  0.00  0.00    +0.000 OA
ATOM     24  H   UNL     1      50.930  10.410  11.061  0.00  0.00    +0.000 HD
ATOM     25  H   UNL     1      50.997   8.797  11.698  0.00  0.00    +0.000 HD
ENDBRANCH  15  22
ENDBRANCH  14  19
ENDBRANCH   1  14
TORSDOF 5
ENDMDL
MODEL 4
REMARK VINA RESULT:    -7.217      3.247      7.160
REMARK INTER + INTRA:         -10.279
REMARK INTER:                  -9.326
REMARK INTRA:                  -0.953
REMARK UNBOUND:                -0.952
REMARK  Name = 
REMARK  5 active torsions:
REMARK  status: ('A' for Active; 'I' for Inactive)
REMARK    1  A    between atoms: C_2  and  C_4
REMARK    2  A    between atoms: C_8  and  O_9
REMARK    3  A    between atoms: O_9  and  C_10
REMARK    4  A    between atoms: C_10  and  C_11
REMARK    5  A    between atoms: C_15  and  C_16
REMARK                            x       y       z     vdW  Elec       q    Type
REMARK                         _______ _______ _______ _____ _____    ______ ____
ROOT
ATOM      1  C   UNL     1      44.113   5.021  10.588  0.00  0.00    +0.000 C 
ENDROOT
BRANCH   1   2
ATOM      2  C   UNL     1      45.131   5.240  11.679  0.00  0.00    +0.000 A 
ATOM      3  C   UNL     1      45.414   4.228  12.600  0.00  0.00    +0.000 A 
ATOM      4  C   UNL     1      46.432   4.399  13.534  0.00  0.00    +0.000 A 
ATOM      5  C   UNL     1      47.180   5.579  13.544  0.00  0.00    +0.000 A 
ATOM      6  C   UNL     1      46.941   6.612  12.619  0.00  0.00    +0.000 A 
ATOM      7  C   UNL     1      45.874   6.433  11.720  0.00  0.00    +0.000 A 
BRANCH   6   8
ATOM      8  C   UNL     1      47.843   7.784  12.514  0.00  0.00    +0.000 A 
ATOM      9  C   UNL     1      48.900   7.793  11.584  0.00  0.00    +0.000 A 
ATOM     10  C   UNL     1      49.703   8.921  11.394  0.00  0.00    +0.000 A 
ATOM     11  C   UNL     1      49.460  10.076  12.125  0.00  0.00    +0.000 A 
ATOM     12  C   UNL     1      48.432  10.095  13.063  0.00  0.00    +0.000 A 
ATOM     13  C   UNL     1      47.638   8.959  13.261  0.00  0.00    +0.000 A 
ENDBRANCH   6   8
ENDBRANCH   1   2
BRANCH   1  14
ATOM     14  O   UNL     1      44.726   5.028   9.301  0.00  0.00    +0.000 OA
BRANCH  14  19
ATOM     15  C   UNL     1      46.553   2.670   7.222  0.00  0.00    +0.000 A 
ATOM     16  C   UNL     1      46.175   1.430   7.756  0.00  0.00    +0.000 A 
ATOM     17  C   UNL     1      45.301   1.379   8.838  0.00  0.00    +0.000 A 
ATOM     18  C   UNL     1      44.798   2.563   9.385  0.00  0.00    +0.000 A 
ATOM     19  C   UNL     1      45.155   3.804   8.851  0.00  0.00    +0.000 A 
ATOM     20  C   UNL     1      46.027   3.853   7.761  0.00  0.00    +0.000 A 
BRANCH  15  22
ATOM     21  N   UNL     1      48.827   2.549   6.385  0.00  0.00    +0.000 N 
ATOM     22  C   UNL     1      47.502   2.689   6.084  0.00  0.00    +0.000 C 
ATOM     23  O   UNL     1      47.120   2.786   4.920  0.00  0.00    +0.000 OA
ATOM     24  H   UNL     1      49.470   2.471   5.605  0.00  0.00    +0.000 HD
ATOM     25  H   UNL     1      49.146   2.240   7.294  0.00  0.00    +0.000 HD
ENDBRANCH  15  22
ENDBRANCH  14  19
ENDBRANCH   1  14
TORSDOF 5
ENDMDL
MODEL 5
REMARK VINA RESULT:    -7.163      3.119      7.514
REMARK INTER + INTRA:         -10.209
REMARK INTER:                  -9.188
REMARK INTRA:                  -1.022
REMARK UNBOUND:                -0.952
REMARK  Name = 
REMARK  5 active torsions:
REMARK  status: ('A' for Active; 'I' for Inactive)
REMARK    1  A    between atoms: C_2  and  C_4
REMARK    2  A    between atoms: C_8  and  O_9
REMARK    3  A    between atoms: O_9  and  C_10
REMARK    4  A    between atoms: C_10  and  C_11
REMARK    5  A    between atoms: C_15  and  C_16
REMARK                            x       y       z     vdW  Elec       q    Type
REMARK                         _______ _______ _______ _____ _____    ______ ____
ROOT
ATOM      1  C   UNL     1      44.711   5.691  11.364  0.00  0.00    +0.000 C 
ENDROOT
BRANCH   1   2
ATOM      2  C   UNL     1      46.046   5.941  12.020  0.00  0.00    +0.000 A 
ATOM      3  C   UNL     1      46.936   6.878  11.487  0.00  0.00    +0.000 A 
ATOM      4  C   UNL     1      48.116   7.180  12.159  0.00  0.00    +0.000 A 
ATOM      5  C   UNL     1      48.409   6.556  13.375  0.00  0.00    +0.000 A 
ATOM      6  C   UNL     1      47.528   5.624  13.955  0.00  0.00    +0.000 A 
ATOM      7  C   UNL     1      46.367   5.300  13.229  0.00  0.00    +0.000 A 
BRANCH   6   8
ATOM      8  C   UNL     1      47.750   5.095  15.322  0.00  0.00    +0.000 A 
ATOM      9  C   UNL     1      47.287   3.814  15.678  0.00  0.00    +0.000 A 
ATOM     10  C   UNL     1      47.569   3.250  16.926  0.00  0.00    +0.000 A 
ATOM     11  C   UNL     1      48.334   3.953  17.847  0.00  0.00    +0.000 A 
ATOM     12  C   UNL     1      48.796   5.228  17.531  0.00  0.00    +0.000 A 
ATOM     13  C   UNL     1      48.500   5.795  16.286  0.00  0.00    +0.000 A 
ENDBRANCH   6   8
ENDBRANCH   1   2
BRANCH   1  14
ATOM     14  O   UNL     1      44.844   5.584   9.949  0.00  0.00    +0.000 OA
BRANCH  14  19
ATOM     15  C   UNL     1      46.287   2.960   7.885  0.00  0.00    +0.000 A 
ATOM     16  C   UNL     1      45.629   1.811   8.344  0.00  0.00    +0.000 A 
ATOM     17  C   UNL     1      44.692   1.911   9.368  0.00  0.00    +0.000 A 
ATOM     18  C   UNL     1      44.405   3.156   9.933  0.00  0.00    +0.000 A 
ATOM     19  C   UNL     1      45.044   4.312   9.474  0.00  0.00    +0.000 A 
ATOM     20  C   UNL     1      45.978   4.210   8.442  0.00  0.00    +0.000 A 
BRANCH  15  22
ATOM     21  N   UNL     1      47.122   3.592   5.697  0.00  0.00    +0.000 N 
ATOM     22  C   UNL     1      47.294   2.816   6.808  0.00  0.00    +0.000 C 
ATOM     23  O   UNL     1      48.263   2.068   6.919  0.00  0.00    +0.000 OA
ATOM     24  H   UNL     1      47.857   3.564   4.999  0.00  0.00    +0.000 HD
ATOM     25  H   UNL     1      46.478   4.371   5.675  0.00  0.00    +0.000 HD
ENDBRANCH  15  22
ENDBRANCH  14  19
ENDBRANCH   1  14
TORSDOF 5
ENDMDL
MODEL 6
REMARK VINA RESULT:    -7.066      2.857      4.171
REMARK INTER + INTRA:         -10.084
REMARK INTER:                  -9.332
REMARK INTRA:                  -0.752
REMARK UNBOUND:                -0.952
REMARK  Name = 
REMARK  5 active torsions:
REMARK  status: ('A' for Active; 'I' for Inactive)
REMARK    1  A    between atoms: C_2  and  C_4
REMARK    2  A    between atoms: C_8  and  O_9
REMARK    3  A    between atoms: O_9  and  C_10
REMARK    4  A    between atoms: C_10  and  C_11
REMARK    5  A    between atoms: C_15  and  C_16
REMARK                            x       y       z     vdW  Elec       q    Type
REMARK                         _______ _______ _______ _____ _____    ______ ____
ROOT
ATOM      1  C   UNL     1      44.474   6.466  11.429  0.00  0.00    +0.000 C 
ENDROOT
BRANCH   1   2
ATOM      2  C   UNL     1      44.421   4.999  11.083  0.00  0.00    +0.000 A 
ATOM      3  C   UNL     1      43.523   4.148  11.734  0.00  0.00    +0.000 A 
ATOM      4  C   UNL     1      43.404   2.821  11.332  0.00  0.00    +0.000 A 
ATOM      5  C   UNL     1      44.174   2.340  10.270  0.00  0.00    +0.000 A 
ATOM      6  C   UNL     1      45.072   3.171   9.575  0.00  0.00    +0.000 A 
ATOM      7  C   UNL     1      45.209   4.493  10.035  0.00  0.00    +0.000 A 
BRANCH   6   8
ATOM      8  C   UNL     1      45.757   2.713   8.342  0.00  0.00    +0.000 A 
ATOM      9  C   UNL     1      45.995   3.607   7.281  0.00  0.00    +0.000 A 
ATOM     10  C   UNL     1      46.725   3.230   6.151  0.00  0.00    +0.000 A 
ATOM     11  C   UNL     1      47.247   1.946   6.059  0.00  0.00    +0.000 A 
ATOM     12  C   UNL     1      47.017   1.033   7.085  0.00  0.00    +0.000 A 
ATOM     13  C   UNL     1      46.273   1.411   8.209  0.00  0.00    +0.000 A 
ENDBRANCH   6   8
ENDBRANCH   1   2
BRANCH   1  14
ATOM     14  O   UNL     1      45.738   6.819  11.986  0.00  0.00    +0.000 OA
BRANCH  14  19
ATOM     15  C   UNL     1      45.116  10.388  11.670  0.00  0.00    +0.000 A 
ATOM     16  C   UNL     1      46.386  10.942  11.883  0.00  0.00    +0.000 A 
ATOM     17  C   UNL     1      47.470  10.110  12.146  0.00  0.00    +0.000 A 
ATOM     18  C   UNL     1      47.292   8.725  12.192  0.00  0.00    +0.000 A 
ATOM     19  C   UNL     1      46.033   8.159  11.967  0.00  0.00    +0.000 A 
ATOM     20  C   UNL     1      44.949   8.995  11.696  0.00  0.00    +0.000 A 
BRANCH  15  22
ATOM     21  N   UNL     1      42.793  10.994  12.016  0.00  0.00    +0.000 N 
ATOM     22  C   UNL     1      43.979  11.303  11.414  0.00  0.00    +0.000 C 
ATOM     23  O   UNL     1      44.101  12.315  10.727  0.00  0.00    +0.000 OA
ATOM     24  H   UNL     1      42.039  11.665  11.917  0.00  0.00    +0.000 HD
ATOM     25  H   UNL     1      42.724  10.311  12.759  0.00  0.00    +0.000 HD
ENDBRANCH  15  22
ENDBRANCH  14  19
ENDBRANCH   1  14
TORSDOF 5
ENDMDL
MODEL 7
REMARK VINA RESULT:    -6.972      1.695      2.339
REMARK INTER + INTRA:          -9.962
REMARK INTER:                  -9.064
REMARK INTRA:                  -0.899
REMARK UNBOUND:                -0.952
REMARK  Name = 
REMARK  5 active torsions:
REMARK  status: ('A' for Active; 'I' for Inactive)
REMARK    1  A    between atoms: C_2  and  C_4
REMARK    2  A    between atoms: C_8  and  O_9
REMARK    3  A    between atoms: O_9  and  C_10
REMARK    4  A    between atoms: C_10  and  C_11
REMARK    5  A    between atoms: C_15  and  C_16
REMARK                            x       y       z     vdW  Elec       q    Type
REMARK                         _______ _______ _______ _____ _____    ______ ____
ROOT
ATOM      1  C   UNL     1      45.156   6.874  12.619  0.00  0.00    +0.000 C 
ENDROOT
BRANCH   1   2
ATOM      2  C   UNL     1      44.648   5.572  12.054  0.00  0.00    +0.000 A 
ATOM      3  C   UNL     1      43.442   5.025  12.500  0.00  0.00    +0.000 A 
ATOM      4  C   UNL     1      42.928   3.883  11.896  0.00  0.00    +0.000 A 
ATOM      5  C   UNL     1      43.611   3.284  10.833  0.00  0.00    +0.000 A 
ATOM      6  C   UNL     1      44.818   3.816  10.341  0.00  0.00    +0.000 A 
ATOM      7  C   UNL     1      45.339   4.943  11.003  0.00  0.00    +0.000 A 
BRANCH   6   8
ATOM      8  C   UNL     1      45.451   3.290   9.108  0.00  0.00    +0.000 A 
ATOM      9  C   UNL     1      45.908   4.169   8.107  0.00  0.00    +0.000 A 
ATOM     10  C   UNL     1      46.597   3.707   6.982  0.00  0.00    +0.000 A 
ATOM     11  C   UNL     1      46.857   2.351   6.836  0.00  0.00    +0.000 A 
ATOM     12  C   UNL     1      46.406   1.455   7.801  0.00  0.00    +0.000 A 
ATOM     13  C   UNL     1      45.704   1.919   8.920  0.00  0.00    +0.000 A 
ENDBRANCH   6   8
ENDBRANCH   1   2
BRANCH   1  14
ATOM     14  O   UNL     1      46.117   7.473  11.753  0.00  0.00    +0.000 OA
BRANCH  14  19
ATOM     15  C   UNL     1      48.799   7.152  14.187  0.00  0.00    +0.000 A 
ATOM     16  C   UNL     1      49.939   7.460  13.431  0.00  0.00    +0.000 A 
ATOM     17  C   UNL     1      49.813   7.771  12.081  0.00  0.00    +0.000 A 
ATOM     18  C   UNL     1      48.550   7.782  11.483  0.00  0.00    +0.000 A 
ATOM     19  C   UNL     1      47.404   7.492  12.229  0.00  0.00    +0.000 A 
ATOM     20  C   UNL     1      47.533   7.187  13.585  0.00  0.00    +0.000 A 
BRANCH  15  22
ATOM     21  N   UNL     1      48.257   7.541  16.519  0.00  0.00    +0.000 N 
ATOM     22  C   UNL     1      48.971   6.805  15.617  0.00  0.00    +0.000 C 
ATOM     23  O   UNL     1      49.688   5.874  15.979  0.00  0.00    +0.000 OA
ATOM     24  H   UNL     1      48.301   7.248  17.489  0.00  0.00    +0.000 HD
ATOM     25  H   UNL     1      47.496   8.147  16.243  0.00  0.00    +0.000 HD
ENDBRANCH  15  22
ENDBRANCH  14  19
ENDBRANCH   1  14
TORSDOF 5
ENDMDL
MODEL 8
REMARK VINA RESULT:    -6.932      2.188      4.236
REMARK INTER + INTRA:          -9.911
REMARK INTER:                  -8.974
REMARK INTRA:                  -0.936
REMARK UNBOUND:                -0.952
REMARK  Name = 
REMARK  5 active torsions:
REMARK  status: ('A' for Active; 'I' for Inactive)
REMARK    1  A    between atoms: C_2  and  C_4
REMARK    2  A    between atoms: C_8  and  O_9
REMARK    3  A    between atoms: O_9  and  C_10
REMARK    4  A    between atoms: C_10  and  C_11
REMARK    5  A    between atoms: C_15  and  C_16
REMARK                            x       y       z     vdW  Elec       q    Type
REMARK                         _______ _______ _______ _____ _____    ______ ____
ROOT
ATOM      1  C   UNL     1      48.405   7.560  13.492  0.00  0.00    +0.000 C 
ENDROOT
BRANCH   1   2
ATOM      2  C   UNL     1      47.059   7.499  12.814  0.00  0.00    +0.000 A 
ATOM      3  C   UNL     1      46.229   8.622  12.778  0.00  0.00    +0.000 A 
ATOM      4  C   UNL     1      45.039   8.588  12.057  0.00  0.00    +0.000 A 
ATOM      5  C   UNL     1      44.678   7.434  11.358  0.00  0.00    +0.000 A 
ATOM      6  C   UNL     1      45.497   6.289  11.351  0.00  0.00    +0.000 A 
ATOM      7  C   UNL     1      46.668   6.335  12.129  0.00  0.00    +0.000 A 
BRANCH   6   8
ATOM      8  C   UNL     1      45.205   5.132  10.472  0.00  0.00    +0.000 A 
ATOM      9  C   UNL     1      45.661   5.111   9.140  0.00  0.00    +0.000 A 
ATOM     10  C   UNL     1      45.487   3.992   8.320  0.00  0.00    +0.000 A 
ATOM     11  C   UNL     1      44.860   2.858   8.819  0.00  0.00    +0.000 A 
ATOM     12  C   UNL     1      44.384   2.852  10.127  0.00  0.00    +0.000 A 
ATOM     13  C   UNL     1      44.548   3.979  10.941  0.00  0.00    +0.000 A 
ENDBRANCH   6   8
ENDBRANCH   1   2
BRANCH   1  14
ATOM     14  O   UNL     1      48.737   6.311  14.093  0.00  0.00    +0.000 OA
BRANCH  14  19
ATOM     15  C   UNL     1      48.006   4.883  17.356  0.00  0.00    +0.000 A 
ATOM     16  C   UNL     1      48.304   5.939  18.228  0.00  0.00    +0.000 A 
ATOM     17  C   UNL     1      48.767   7.148  17.720  0.00  0.00    +0.000 A 
ATOM     18  C   UNL     1      48.929   7.310  16.341  0.00  0.00    +0.000 A 
ATOM     19  C   UNL     1      48.621   6.269  15.460  0.00  0.00    +0.000 A 
ATOM     20  C   UNL     1      48.149   5.059  15.972  0.00  0.00    +0.000 A 
BRANCH  15  22
ATOM     21  N   UNL     1      48.168   3.165  19.060  0.00  0.00    +0.000 N 
ATOM     22  C   UNL     1      47.535   3.601  17.932  0.00  0.00    +0.000 C 
ATOM     23  O   UNL     1      46.595   2.976  17.446  0.00  0.00    +0.000 OA
ATOM     24  H   UNL     1      47.790   2.337  19.508  0.00  0.00    +0.000 HD
ATOM     25  H   UNL     1      48.777   3.761  19.605  0.00  0.00    +0.000 HD
ENDBRANCH  15  22
ENDBRANCH  14  19
ENDBRANCH   1  14
TORSDOF 5
ENDMDL
MODEL 9
REMARK VINA RESULT:    -6.820      2.258      3.664
REMARK INTER + INTRA:          -9.766
REMARK INTER:                  -9.042
REMARK INTRA:                  -0.724
REMARK UNBOUND:                -0.952
REMARK  Name = 
REMARK  5 active torsions:
REMARK  status: ('A' for Active; 'I' for Inactive)
REMARK    1  A    between atoms: C_2  and  C_4
REMARK    2  A    between atoms: C_8  and  O_9
REMARK    3  A    between atoms: O_9  and  C_10
REMARK    4  A    between atoms: C_10  and  C_11
REMARK    5  A    between atoms: C_15  and  C_16
REMARK                            x       y       z     vdW  Elec       q    Type
REMARK                         _______ _______ _______ _____ _____    ______ ____
ROOT
ATOM      1  C   UNL     1      46.170   4.999  14.045  0.00  0.00    +0.000 C 
ENDROOT
BRANCH   1   2
ATOM      2  C   UNL     1      45.201   4.789  12.908  0.00  0.00    +0.000 A 
ATOM      3  C   UNL     1      43.934   5.378  12.935  0.00  0.00    +0.000 A 
ATOM      4  C   UNL     1      43.091   5.269  11.834  0.00  0.00    +0.000 A 
ATOM      5  C   UNL     1      43.513   4.579  10.694  0.00  0.00    +0.000 A 
ATOM      6  C   UNL     1      44.789   3.991  10.619  0.00  0.00    +0.000 A 
ATOM      7  C   UNL     1      45.601   4.074  11.765  0.00  0.00    +0.000 A 
BRANCH   6   8
ATOM      8  C   UNL     1      45.304   3.415   9.354  0.00  0.00    +0.000 A 
ATOM      9  C   UNL     1      45.769   4.253   8.322  0.00  0.00    +0.000 A 
ATOM     10  C   UNL     1      46.351   3.736   7.162  0.00  0.00    +0.000 A 
ATOM     11  C   UNL     1      46.494   2.363   7.009  0.00  0.00    +0.000 A 
ATOM     12  C   UNL     1      46.032   1.507   8.005  0.00  0.00    +0.000 A 
ATOM     13  C   UNL     1      45.436   2.027   9.160  0.00  0.00    +0.000 A 
ENDBRANCH   6   8
ENDBRANCH   1   2
BRANCH   1  14
ATOM     14  O   UNL     1      46.598   3.755  14.594  0.00  0.00    +0.000 OA
BRANCH  14  19
ATOM     15  C   UNL     1      48.556   5.378  17.194  0.00  0.00    +0.000 A 
ATOM     16  C   UNL     1      49.210   4.299  17.805  0.00  0.00    +0.000 A 
ATOM     17  C   UNL     1      48.986   3.003  17.348  0.00  0.00    +0.000 A 
ATOM     18  C   UNL     1      48.116   2.781  16.278  0.00  0.00    +0.000 A 
ATOM     19  C   UNL     1      47.469   3.850  15.650  0.00  0.00    +0.000 A 
ATOM     20  C   UNL     1      47.701   5.149  16.106  0.00  0.00    +0.000 A 
BRANCH  15  22
ATOM     21  N   UNL     1      48.477   7.783  16.896  0.00  0.00    +0.000 N 
ATOM     22  C   UNL     1      48.799   6.742  17.718  0.00  0.00    +0.000 C 
ATOM     23  O   UNL     1      49.232   6.935  18.853  0.00  0.00    +0.000 OA
ATOM     24  H   UNL     1      48.556   8.717  17.285  0.00  0.00    +0.000 HD
ATOM     25  H   UNL     1      47.913   7.663  16.065  0.00  0.00    +0.000 HD
ENDBRANCH  15  22
ENDBRANCH  14  19
ENDBRANCH   1  14
TORSDOF 5
ENDMDL
