MODEL 1
REMARK VINA RESULT:    -8.039      0.000      0.000
REMARK INTER + INTRA:         -12.427
REMARK INTER:                 -11.329
REMARK INTRA:                  -1.098
REMARK UNBOUND:                -1.098
REMARK  Name = 
REMARK  9 active torsions:
REMARK  status: ('A' for Active; 'I' for Inactive)
REMARK    1  A    between atoms: C_1  and  O_2
REMARK    2  A    between atoms: O_2  and  C_3
REMARK    3  A    between atoms: C_5  and  C_6
REMARK    4  A    between atoms: C_6  and  C_7
REMARK    5  A    between atoms: C_7  and  N_8
REMARK    6  A    between atoms: C_12  and  C_13
REMARK    7  A    between atoms: C_19  and  O_20
REMARK    8  A    between atoms: O_20  and  C_21
REMARK    9  A    between atoms: C_22  and  C_23
REMARK                            x       y       z     vdW  Elec       q    Type
REMARK                         _______ _______ _______ _____ _____    ______ ____
ROOT
ATOM      1  C   UNL     1      46.757   5.614  13.416  0.00  0.00    +0.000 A 
ATOM      2  C   UNL     1      45.476   5.084  13.195  0.00  0.00    +0.000 A 
ATOM      3  C   UNL     1      44.440   5.848  12.656  0.00  0.00    +0.000 A 
ATOM      4  C   UNL     1      44.702   7.186  12.370  0.00  0.00    +0.000 A 
ATOM      5  C   UNL     1      45.975   7.746  12.589  0.00  0.00    +0.000 A 
ATOM      6  C   UNL     1      47.060   6.967  13.090  0.00  0.00    +0.000 A 
ENDROOT
BRANCH   6   7
ATOM      7  C   UNL     1      48.452   7.525  13.252  0.00  0.00    +0.000 A 
ATOM      8  C   UNL     1      48.930   8.031  14.476  0.00  0.00    +0.000 A 
ATOM      9  C   UNL     1      50.215   8.569  14.615  0.00  0.00    +0.000 A 
ATOM     10  C   UNL     1      51.094   8.567  13.542  0.00  0.00    +0.000 A 
ATOM     11  C   UNL     1      50.671   8.062  12.320  0.00  0.00    +0.000 A 
ATOM     12  C   UNL     1      49.363   7.583  12.176  0.00  0.00    +0.000 A 
ENDBRANCH   6   7
BRANCH   1  14
ATOM     13  C   UNL     1      47.363   4.325  15.337  0.00  0.00    +0.000 C 
ATOM     14  O   UNL     1      47.712   4.850  14.055  0.00  0.00    +0.000 OA
ENDBRANCH   1  14
BRANCH   5  15
ATOM     15  O   UNL     1      46.204   9.055  12.221  0.00  0.00    +0.000 OA
ATOM     16  C   UNL     1      45.046   9.805  11.854  0.00  0.00    +0.000 C 
ENDBRANCH   5  15
BRANCH   3  17
ATOM     17  C   UNL     1      43.059   5.287  12.374  0.00  0.00    +0.000 C 
BRANCH  17  18
ATOM     18  C   UNL     1      42.974   4.428  11.109  0.00  0.00    +0.000 C 
BRANCH  18  19
ATOM     19  N   UNL     1      43.732   5.003   9.996  0.00  0.00    +0.000 N 
ATOM     20  C   UNL     1      44.532   4.022   9.363  0.00  0.00    +0.000 A 
ATOM     21  C   UNL     1      45.308   4.402   8.277  0.00  0.00    +0.000 A 
ATOM     22  C   UNL     1      46.111   3.454   7.639  0.00  0.00    +0.000 A 
ATOM     23  C   UNL     1      46.115   2.138   8.103  0.00  0.00    +0.000 A 
ATOM     24  C   UNL     1      45.316   1.839   9.188  0.00  0.00    +0.000 A 
ATOM     25  N   UNL     1      44.517   2.745   9.809  0.00  0.00    +0.000 NA
ATOM     26  H   UNL     1      44.340   5.760  10.297  0.00  0.00    +0.000 HD
BRANCH  23  27
ATOM     27  C   UNL     1      46.952   1.069   7.523  0.00  0.00    +0.000 C 
ATOM     28  N   UNL     1      47.966   1.449   6.690  0.00  0.00    +0.000 N 
ATOM     29  O   UNL     1      46.733  -0.112   7.756  0.00  0.00    +0.000 OA
ATOM     30  H   UNL     1      48.039   2.376   6.294  0.00  0.00    +0.000 HD
ATOM     31  H   UNL     1      48.474   0.705   6.229  0.00  0.00    +0.000 HD
ENDBRANCH  23  27
ENDBRANCH  18  19
ENDBRANCH  17  18
ENDBRANCH   3  17
TORSDOF 7
ENDMDL
MODEL 2
REMARK VINA RESULT:    -7.987      0.344      2.595
REMARK INTER + INTRA:         -12.353
REMARK INTER:                 -11.329
REMARK INTRA:                  -1.024
REMARK UNBOUND:                -1.098
REMARK  Name = 
REMARK  9 active torsions:
REMARK  status: ('A' for Active; 'I' for Inactive)
REMARK    1  A    between atoms: C_1  and  O_2
REMARK    2  A    between atoms: O_2  and  C_3
REMARK    3  A    between atoms: C_5  and  C_6
REMARK    4  A    between atoms: C_6  and  C_7
REMARK    5  A    between atoms: C_7  and  N_8
REMARK    6  A    between atoms: C_12  and  C_13
REMARK    7  A    between atoms: C_19  and  O_20
REMARK    8  A    between atoms: O_20  and  C_21
REMARK    9  A    between atoms: C_22  and  C_23
REMARK                            x       y       z     vdW  Elec       q    Type
REMARK                         _______ _______ _______ _____ _____    ______ ____
ROOT
ATOM      1  C   UNL     1      45.944   7.579  12.620  0.00  0.00    +0.000 A 
ATOM      2  C   UNL     1      44.701   6.986  12.349  0.00  0.00    +0.000 A 
ATOM      3  C   UNL     1      44.421   5.662  12.690  0.00  0.00    +0.000 A 
ATOM      4  C   UNL     1      45.437   4.916  13.283  0.00  0.00    +0.000 A 
ATOM      5  C   UNL     1      46.696   5.483  13.559  0.00  0.00    +0.000 A 
ATOM      6  C   UNL     1      46.982   6.849  13.266  0.00  0.00    +0.000 A 
ENDROOT
BRANCH   6   7
ATOM      7  C   UNL     1      48.295   7.499  13.630  0.00  0.00    +0.000 A 
ATOM      8  C   UNL     1      49.410   7.492  12.770  0.00  0.00    +0.000 A 
ATOM      9  C   UNL     1      50.633   8.076  13.122  0.00  0.00    +0.000 A 
ATOM     10  C   UNL     1      50.766   8.743  14.332  0.00  0.00    +0.000 A 
ATOM     11  C   UNL     1      49.687   8.789  15.203  0.00  0.00    +0.000 A 
ATOM     12  C   UNL     1      48.488   8.148  14.868  0.00  0.00    +0.000 A 
ENDBRANCH   6   7
BRANCH   1  14
ATOM     13  C   UNL     1      45.113   9.773  12.152  0.00  0.00    +0.000 C 
ATOM     14  O   UNL     1      46.207   8.854  12.162  0.00  0.00    +0.000 OA
ENDBRANCH   1  14
BRANCH   5  15
ATOM     15  O   UNL     1      47.643   4.725  14.215  0.00  0.00    +0.000 OA
ATOM     16  C   UNL     1      47.344   4.402  15.573  0.00  0.00    +0.000 C 
ENDBRANCH   5  15
BRANCH   3  17
ATOM     17  C   UNL     1      43.073   5.011  12.441  0.00  0.00    +0.000 C 
BRANCH  17  18
ATOM     18  C   UNL     1      42.952   4.313  11.083  0.00  0.00    +0.000 C 
BRANCH  18  19
ATOM     19  N   UNL     1      43.791   4.938  10.060  0.00  0.00    +0.000 N 
ATOM     20  C   UNL     1      44.587   3.976   9.395  0.00  0.00    +0.000 A 
ATOM     21  C   UNL     1      45.436   4.405   8.384  0.00  0.00    +0.000 A 
ATOM     22  C   UNL     1      46.237   3.475   7.716  0.00  0.00    +0.000 A 
ATOM     23  C   UNL     1      46.166   2.129   8.075  0.00  0.00    +0.000 A 
ATOM     24  C   UNL     1      45.297   1.781   9.089  0.00  0.00    +0.000 A 
ATOM     25  N   UNL     1      44.500   2.671   9.738  0.00  0.00    +0.000 NA
ATOM     26  H   UNL     1      44.410   5.643  10.451  0.00  0.00    +0.000 HD
BRANCH  23  27
ATOM     27  C   UNL     1      46.992   1.073   7.457  0.00  0.00    +0.000 C 
ATOM     28  N   UNL     1      47.939   1.467   6.554  0.00  0.00    +0.000 N 
ATOM     29  O   UNL     1      46.821  -0.109   7.721  0.00  0.00    +0.000 OA
ATOM     30  H   UNL     1      47.960   2.388   6.141  0.00  0.00    +0.000 HD
ATOM     31  H   UNL     1      48.436   0.729   6.072  0.00  0.00    +0.000 HD
ENDBRANCH  23  27
ENDBRANCH  18  19
ENDBRANCH  17  18
ENDBRANCH   3  17
TORSDOF 7
ENDMDL
MODEL 3
REMARK VINA RESULT:    -6.166      4.222      8.206
REMARK INTER + INTRA:          -9.788
REMARK INTER:                  -8.639
REMARK INTRA:                  -1.149
REMARK UNBOUND:                -1.098
REMARK  Name = 
REMARK  9 active torsions:
REMARK  status: ('A' for Active; 'I' for Inactive)
REMARK    1  A    between atoms: C_1  and  O_2
REMARK    2  A    between atoms: O_2  and  C_3
REMARK    3  A    between atoms: C_5  and  C_6
REMARK    4  A    between atoms: C_6  and  C_7
REMARK    5  A    between atoms: C_7  and  N_8
REMARK    6  A    between atoms: C_12  and  C_13
REMARK    7  A    between atoms: C_19  and  O_20
REMARK    8  A    between atoms: O_20  and  C_21
REMARK    9  A    between atoms: C_22  and  C_23
REMARK                            x       y       z     vdW  Elec       q    Type
REMARK                         _______ _______ _______ _____ _____    ______ ____
ROOT
ATOM      1  C   UNL     1      47.267   6.100  13.600  0.00  0.00    +0.000 A 
ATOM      2  C   UNL     1      48.092   7.071  14.188  0.00  0.00    +0.000 A 
ATOM      3  C   UNL     1      47.884   8.438  13.992  0.00  0.00    +0.000 A 
ATOM      4  C   UNL     1      46.840   8.822  13.153  0.00  0.00    +0.000 A 
ATOM      5  C   UNL     1      46.002   7.868  12.544  0.00  0.00    +0.000 A 
ATOM      6  C   UNL     1      46.167   6.470  12.775  0.00  0.00    +0.000 A 
ENDROOT
BRANCH   6   7
ATOM      7  C   UNL     1      45.230   5.437  12.200  0.00  0.00    +0.000 A 
ATOM      8  C   UNL     1      45.279   5.032  10.852  0.00  0.00    +0.000 A 
ATOM      9  C   UNL     1      44.391   4.090  10.318  0.00  0.00    +0.000 A 
ATOM     10  C   UNL     1      43.453   3.473  11.134  0.00  0.00    +0.000 A 
ATOM     11  C   UNL     1      43.380   3.830  12.473  0.00  0.00    +0.000 A 
ATOM     12  C   UNL     1      44.232   4.818  12.982  0.00  0.00    +0.000 A 
ENDBRANCH   6   7
BRANCH   1  14
ATOM     13  C   UNL     1      47.274   4.151  14.987  0.00  0.00    +0.000 C 
ATOM     14  O   UNL     1      47.584   4.763  13.733  0.00  0.00    +0.000 OA
ENDBRANCH   1  14
BRANCH   5  15
ATOM     15  O   UNL     1      44.938   8.301  11.782  0.00  0.00    +0.000 OA
ATOM     16  C   UNL     1      44.653   9.698  11.856  0.00  0.00    +0.000 C 
ENDBRANCH   5  15
BRANCH   3  17
ATOM     17  C   UNL     1      48.740   9.507  14.647  0.00  0.00    +0.000 C 
BRANCH  17  18
ATOM     18  C   UNL     1      49.361   9.085  15.981  0.00  0.00    +0.000 C 
BRANCH  18  19
ATOM     19  N   UNL     1      48.403   9.152  17.086  0.00  0.00    +0.000 N 
ATOM     20  C   UNL     1      48.422   7.961  17.850  0.00  0.00    +0.000 A 
ATOM     21  C   UNL     1      47.575   7.866  18.946  0.00  0.00    +0.000 A 
ATOM     22  C   UNL     1      47.570   6.698  19.713  0.00  0.00    +0.000 A 
ATOM     23  C   UNL     1      48.422   5.648  19.365  0.00  0.00    +0.000 A 
ATOM     24  C   UNL     1      49.233   5.820  18.262  0.00  0.00    +0.000 A 
ATOM     25  N   UNL     1      49.262   6.956  17.516  0.00  0.00    +0.000 NA
ATOM     26  H   UNL     1      47.452   9.302  16.759  0.00  0.00    +0.000 HD
BRANCH  23  27
ATOM     27  C   UNL     1      48.470   4.362  20.087  0.00  0.00    +0.000 C 
ATOM     28  N   UNL     1      48.453   3.220  19.335  0.00  0.00    +0.000 N 
ATOM     29  O   UNL     1      48.499   4.314  21.309  0.00  0.00    +0.000 OA
ATOM     30  H   UNL     1      48.202   3.207  18.356  0.00  0.00    +0.000 HD
ATOM     31  H   UNL     1      48.396   2.347  19.842  0.00  0.00    +0.000 HD
ENDBRANCH  23  27
ENDBRANCH  18  19
ENDBRANCH  17  18
ENDBRANCH   3  17
TORSDOF 7
ENDMDL
MODEL 4
REMARK VINA RESULT:    -6.083      4.145      8.633
REMARK INTER + INTRA:          -9.670
REMARK INTER:                  -8.548
REMARK INTRA:                  -1.123
REMARK UNBOUND:                -1.098
REMARK  Name = 
REMARK  9 active torsions:
REMARK  status: ('A' for Active; 'I' for Inactive)
REMARK    1  A    between atoms: C_1  and  O_2
REMARK    2  A    between atoms: O_2  and  C_3
REMARK    3  A    between atoms: C_5  and  C_6
REMARK    4  A    between atoms: C_6  and  C_7
REMARK    5  A    between atoms: C_7  and  N_8
REMARK    6  A    between atoms: C_12  and  C_13
REMARK    7  A    between atoms: C_19  and  O_20
REMARK    8  A    between atoms: O_20  and  C_21
REMARK    9  A    between atoms: C_22  and  C_23
REMARK                            x       y       z     vdW  Elec       q    Type
REMARK                         _______ _______ _______ _____ _____    ______ ____
ROOT
ATOM      1  C   UNL     1      45.602   7.717  12.131  0.00  0.00    +0.000 A 
ATOM      2  C   UNL     1      46.400   8.792  12.551  0.00  0.00    +0.000 A 
ATOM      3  C   UNL     1      47.544   8.608  13.329  0.00  0.00    +0.000 A 
ATOM      4  C   UNL     1      47.862   7.308  13.716  0.00  0.00    +0.000 A 
ATOM      5  C   UNL     1      47.075   6.211  13.316  0.00  0.00    +0.000 A 
ATOM      6  C   UNL     1      45.933   6.376  12.478  0.00  0.00    +0.000 A 
ENDROOT
BRANCH   6   7
ATOM      7  C   UNL     1      45.125   5.207  11.968  0.00  0.00    +0.000 A 
ATOM      8  C   UNL     1      45.186   4.767  10.633  0.00  0.00    +0.000 A 
ATOM      9  C   UNL     1      44.416   3.696  10.160  0.00  0.00    +0.000 A 
ATOM     10  C   UNL     1      43.597   2.987  11.028  0.00  0.00    +0.000 A 
ATOM     11  C   UNL     1      43.519   3.377  12.357  0.00  0.00    +0.000 A 
ATOM     12  C   UNL     1      44.246   4.487  12.805  0.00  0.00    +0.000 A 
ENDBRANCH   6   7
BRANCH   1  14
ATOM     13  C   UNL     1      44.183   9.311  11.051  0.00  0.00    +0.000 C 
ATOM     14  O   UNL     1      44.421   7.963  11.460  0.00  0.00    +0.000 OA
ENDBRANCH   1  14
BRANCH   5  15
ATOM     15  O   UNL     1      47.474   4.938  13.664  0.00  0.00    +0.000 OA
ATOM     16  C   UNL     1      47.248   4.571  15.025  0.00  0.00    +0.000 C 
ENDBRANCH   5  15
BRANCH   3  17
ATOM     17  C   UNL     1      48.442   9.751  13.764  0.00  0.00    +0.000 C 
BRANCH  17  18
ATOM     18  C   UNL     1      49.181   9.504  15.082  0.00  0.00    +0.000 C 
BRANCH  18  19
ATOM     19  N   UNL     1      48.442  10.013  16.238  0.00  0.00    +0.000 N 
ATOM     20  C   UNL     1      48.258   9.003  17.211  0.00  0.00    +0.000 A 
ATOM     21  C   UNL     1      47.581   9.326  18.379  0.00  0.00    +0.000 A 
ATOM     22  C   UNL     1      47.381   8.345  19.353  0.00  0.00    +0.000 A 
ATOM     23  C   UNL     1      47.869   7.056  19.135  0.00  0.00    +0.000 A 
ATOM     24  C   UNL     1      48.532   6.814  17.949  0.00  0.00    +0.000 A 
ATOM     25  N   UNL     1      48.749   7.761  16.999  0.00  0.00    +0.000 NA
ATOM     26  H   UNL     1      47.527  10.373  15.978  0.00  0.00    +0.000 HD
BRANCH  23  27
ATOM     27  C   UNL     1      47.682   5.940  20.082  0.00  0.00    +0.000 C 
ATOM     28  N   UNL     1      48.177   4.719  19.718  0.00  0.00    +0.000 N 
ATOM     29  O   UNL     1      47.087   6.091  21.141  0.00  0.00    +0.000 OA
ATOM     30  H   UNL     1      48.465   4.498  18.775  0.00  0.00    +0.000 HD
ATOM     31  H   UNL     1      47.965   3.944  20.333  0.00  0.00    +0.000 HD
ENDBRANCH  23  27
ENDBRANCH  18  19
ENDBRANCH  17  18
ENDBRANCH   3  17
TORSDOF 7
ENDMDL
MODEL 5
REMARK VINA RESULT:    -6.043      3.447      5.814
REMARK INTER + INTRA:          -9.613
REMARK INTER:                  -8.651
REMARK INTRA:                  -0.962
REMARK UNBOUND:                -1.098
REMARK  Name = 
REMARK  9 active torsions:
REMARK  status: ('A' for Active; 'I' for Inactive)
REMARK    1  A    between atoms: C_1  and  O_2
REMARK    2  A    between atoms: O_2  and  C_3
REMARK    3  A    between atoms: C_5  and  C_6
REMARK    4  A    between atoms: C_6  and  C_7
REMARK    5  A    between atoms: C_7  and  N_8
REMARK    6  A    between atoms: C_12  and  C_13
REMARK    7  A    between atoms: C_19  and  O_20
REMARK    8  A    between atoms: O_20  and  C_21
REMARK    9  A    between atoms: C_22  and  C_23
REMARK                            x       y       z     vdW  Elec       q    Type
REMARK                         _______ _______ _______ _____ _____    ______ ____
ROOT
ATOM      1  C   UNL     1      48.702   8.312  17.011  0.00  0.00    +0.000 A 
ATOM      2  C   UNL     1      48.643   8.804  15.698  0.00  0.00    +0.000 A 
ATOM      3  C   UNL     1      48.562   7.957  14.592  0.00  0.00    +0.000 A 
ATOM      4  C   UNL     1      48.577   6.583  14.824  0.00  0.00    +0.000 A 
ATOM      5  C   UNL     1      48.645   6.062  16.131  0.00  0.00    +0.000 A 
ATOM      6  C   UNL     1      48.675   6.913  17.276  0.00  0.00    +0.000 A 
ENDROOT
BRANCH   6   7
ATOM      7  C   UNL     1      48.662   6.377  18.686  0.00  0.00    +0.000 A 
ATOM      8  C   UNL     1      49.823   5.911  19.332  0.00  0.00    +0.000 A 
ATOM      9  C   UNL     1      49.800   5.391  20.633  0.00  0.00    +0.000 A 
ATOM     10  C   UNL     1      48.617   5.375  21.358  0.00  0.00    +0.000 A 
ATOM     11  C   UNL     1      47.452   5.840  20.766  0.00  0.00    +0.000 A 
ATOM     12  C   UNL     1      47.473   6.299  19.443  0.00  0.00    +0.000 A 
ENDBRANCH   6   7
BRANCH   1  14
ATOM     13  C   UNL     1      47.800  10.040  18.397  0.00  0.00    +0.000 C 
ATOM     14  O   UNL     1      48.896   9.188  18.061  0.00  0.00    +0.000 OA
ENDBRANCH   1  14
BRANCH   5  15
ATOM     15  O   UNL     1      48.583   4.697  16.312  0.00  0.00    +0.000 OA
ATOM     16  C   UNL     1      47.346   4.081  15.952  0.00  0.00    +0.000 C 
ENDBRANCH   5  15
BRANCH   3  17
ATOM     17  C   UNL     1      48.459   8.465  13.166  0.00  0.00    +0.000 C 
BRANCH  17  18
ATOM     18  C   UNL     1      47.029   8.751  12.701  0.00  0.00    +0.000 C 
BRANCH  18  19
ATOM     19  N   UNL     1      46.044   7.909  13.382  0.00  0.00    +0.000 N 
ATOM     20  C   UNL     1      45.580   6.877  12.532  0.00  0.00    +0.000 A 
ATOM     21  C   UNL     1      44.645   5.981  13.031  0.00  0.00    +0.000 A 
ATOM     22  C   UNL     1      44.167   4.957  12.210  0.00  0.00    +0.000 A 
ATOM     23  C   UNL     1      44.641   4.852  10.902  0.00  0.00    +0.000 A 
ATOM     24  C   UNL     1      45.570   5.781  10.480  0.00  0.00    +0.000 A 
ATOM     25  N   UNL     1      46.057   6.773  11.271  0.00  0.00    +0.000 NA
ATOM     26  H   UNL     1      45.239   8.443  13.699  0.00  0.00    +0.000 HD
BRANCH  23  27
ATOM     27  C   UNL     1      44.176   3.830   9.943  0.00  0.00    +0.000 C 
ATOM     28  N   UNL     1      44.154   4.175   8.621  0.00  0.00    +0.000 N 
ATOM     29  O   UNL     1      43.801   2.727  10.316  0.00  0.00    +0.000 OA
ATOM     30  H   UNL     1      44.233   5.129   8.297  0.00  0.00    +0.000 HD
ATOM     31  H   UNL     1      43.750   3.499   7.985  0.00  0.00    +0.000 HD
ENDBRANCH  23  27
ENDBRANCH  18  19
ENDBRANCH  17  18
ENDBRANCH   3  17
TORSDOF 7
ENDMDL
MODEL 6
REMARK VINA RESULT:    -5.923      3.738      5.808
REMARK INTER + INTRA:          -9.445
REMARK INTER:                  -8.287
REMARK INTRA:                  -1.158
REMARK UNBOUND:                -1.098
REMARK  Name = 
REMARK  9 active torsions:
REMARK  status: ('A' for Active; 'I' for Inactive)
REMARK    1  A    between atoms: C_1  and  O_2
REMARK    2  A    between atoms: O_2  and  C_3
REMARK    3  A    between atoms: C_5  and  C_6
REMARK    4  A    between atoms: C_6  and  C_7
REMARK    5  A    between atoms: C_7  and  N_8
REMARK    6  A    between atoms: C_12  and  C_13
REMARK    7  A    between atoms: C_19  and  O_20
REMARK    8  A    between atoms: O_20  and  C_21
REMARK    9  A    between atoms: C_22  and  C_23
REMARK                            x       y       z     vdW  Elec       q    Type
REMARK                         _______ _______ _______ _____ _____    ______ ____
ROOT
ATOM      1  C   UNL     1      48.855   5.963  16.561  0.00  0.00    +0.000 A 
ATOM      2  C   UNL     1      48.668   6.585  15.316  0.00  0.00    +0.000 A 
ATOM      3  C   UNL     1      48.501   7.966  15.195  0.00  0.00    +0.000 A 
ATOM      4  C   UNL     1      48.486   8.722  16.364  0.00  0.00    +0.000 A 
ATOM      5  C   UNL     1      48.663   8.124  17.626  0.00  0.00    +0.000 A 
ATOM      6  C   UNL     1      48.889   6.722  17.765  0.00  0.00    +0.000 A 
ENDROOT
BRANCH   6   7
ATOM      7  C   UNL     1      49.164   6.073  19.099  0.00  0.00    +0.000 A 
ATOM      8  C   UNL     1      48.138   5.614  19.947  0.00  0.00    +0.000 A 
ATOM      9  C   UNL     1      48.398   5.034  21.195  0.00  0.00    +0.000 A 
ATOM     10  C   UNL     1      49.706   4.838  21.615  0.00  0.00    +0.000 A 
ATOM     11  C   UNL     1      50.749   5.260  20.803  0.00  0.00    +0.000 A 
ATOM     12  C   UNL     1      50.477   5.894  19.585  0.00  0.00    +0.000 A 
ENDBRANCH   6   7
BRANCH   1  14
ATOM     13  C   UNL     1      47.685   3.885  16.378  0.00  0.00    +0.000 C 
ATOM     14  O   UNL     1      48.903   4.585  16.636  0.00  0.00    +0.000 OA
ENDBRANCH   1  14
BRANCH   5  15
ATOM     15  O   UNL     1      48.715   8.925  18.747  0.00  0.00    +0.000 OA
ATOM     16  C   UNL     1      47.456   9.397  19.227  0.00  0.00    +0.000 C 
ENDBRANCH   5  15
BRANCH   3  17
ATOM     17  C   UNL     1      48.335   8.664  13.858  0.00  0.00    +0.000 C 
BRANCH  17  18
ATOM     18  C   UNL     1      46.899   8.668  13.324  0.00  0.00    +0.000 C 
BRANCH  18  19
ATOM     19  N   UNL     1      46.811   8.137  11.963  0.00  0.00    +0.000 N 
ATOM     20  C   UNL     1      46.133   6.895  11.942  0.00  0.00    +0.000 A 
ATOM     21  C   UNL     1      45.955   6.260  10.721  0.00  0.00    +0.000 A 
ATOM     22  C   UNL     1      45.294   5.030  10.675  0.00  0.00    +0.000 A 
ATOM     23  C   UNL     1      44.821   4.463  11.859  0.00  0.00    +0.000 A 
ATOM     24  C   UNL     1      45.037   5.157  13.032  0.00  0.00    +0.000 A 
ATOM     25  N   UNL     1      45.663   6.361  13.092  0.00  0.00    +0.000 NA
ATOM     26  H   UNL     1      47.728   8.003  11.545  0.00  0.00    +0.000 HD
BRANCH  23  27
ATOM     27  C   UNL     1      44.141   3.155  11.925  0.00  0.00    +0.000 C 
ATOM     28  N   UNL     1      44.090   2.416  10.775  0.00  0.00    +0.000 N 
ATOM     29  O   UNL     1      43.621   2.755  12.957  0.00  0.00    +0.000 OA
ATOM     30  H   UNL     1      44.298   2.798   9.864  0.00  0.00    +0.000 HD
ATOM     31  H   UNL     1      43.545   1.565  10.810  0.00  0.00    +0.000 HD
ENDBRANCH  23  27
ENDBRANCH  18  19
ENDBRANCH  17  18
ENDBRANCH   3  17
TORSDOF 7
ENDMDL
MODEL 7
REMARK VINA RESULT:    -5.810      4.601      8.335
REMARK INTER + INTRA:          -9.286
REMARK INTER:                  -8.232
REMARK INTRA:                  -1.054
REMARK UNBOUND:                -1.098
REMARK  Name = 
REMARK  9 active torsions:
REMARK  status: ('A' for Active; 'I' for Inactive)
REMARK    1  A    between atoms: C_1  and  O_2
REMARK    2  A    between atoms: O_2  and  C_3
REMARK    3  A    between atoms: C_5  and  C_6
REMARK    4  A    between atoms: C_6  and  C_7
REMARK    5  A    between atoms: C_7  and  N_8
REMARK    6  A    between atoms: C_12  and  C_13
REMARK    7  A    between atoms: C_19  and  O_20
REMARK    8  A    between atoms: O_20  and  C_21
REMARK    9  A    between atoms: C_22  and  C_23
REMARK                            x       y       z     vdW  Elec       q    Type
REMARK                         _______ _______ _______ _____ _____    ______ ____
ROOT
ATOM      1  C   UNL     1      46.925   7.387  12.881  0.00  0.00    +0.000 A 
ATOM      2  C   UNL     1      48.062   7.924  13.505  0.00  0.00    +0.000 A 
ATOM      3  C   UNL     1      48.768   7.228  14.488  0.00  0.00    +0.000 A 
ATOM      4  C   UNL     1      48.286   5.978  14.869  0.00  0.00    +0.000 A 
ATOM      5  C   UNL     1      47.144   5.418  14.266  0.00  0.00    +0.000 A 
ATOM      6  C   UNL     1      46.441   6.092  13.223  0.00  0.00    +0.000 A 
ENDROOT
BRANCH   6   7
ATOM      7  C   UNL     1      45.266   5.474  12.506  0.00  0.00    +0.000 A 
ATOM      8  C   UNL     1      45.402   4.754  11.305  0.00  0.00    +0.000 A 
ATOM      9  C   UNL     1      44.304   4.203  10.631  0.00  0.00    +0.000 A 
ATOM     10  C   UNL     1      43.030   4.305  11.171  0.00  0.00    +0.000 A 
ATOM     11  C   UNL     1      42.852   4.993  12.363  0.00  0.00    +0.000 A 
ATOM     12  C   UNL     1      43.947   5.593  12.996  0.00  0.00    +0.000 A 
ENDBRANCH   6   7
BRANCH   1  14
ATOM     13  C   UNL     1      45.370   9.176  12.566  0.00  0.00    +0.000 C 
ATOM     14  O   UNL     1      46.199   8.161  11.998  0.00  0.00    +0.000 OA
ENDBRANCH   1  14
BRANCH   5  15
ATOM     15  O   UNL     1      46.750   4.146  14.626  0.00  0.00    +0.000 OA
ATOM     16  C   UNL     1      47.204   3.698  15.903  0.00  0.00    +0.000 C 
ENDBRANCH   5  15
BRANCH   3  17
ATOM     17  C   UNL     1      50.020   7.773  15.149  0.00  0.00    +0.000 C 
BRANCH  17  18
ATOM     18  C   UNL     1      50.150   7.424  16.634  0.00  0.00    +0.000 C 
BRANCH  18  19
ATOM     19  N   UNL     1      51.527   7.100  17.010  0.00  0.00    +0.000 N 
ATOM     20  C   UNL     1      51.684   5.709  17.221  0.00  0.00    +0.000 A 
ATOM     21  C   UNL     1      52.939   5.232  17.576  0.00  0.00    +0.000 A 
ATOM     22  C   UNL     1      53.118   3.864  17.796  0.00  0.00    +0.000 A 
ATOM     23  C   UNL     1      52.032   3.000  17.651  0.00  0.00    +0.000 A 
ATOM     24  C   UNL     1      50.818   3.551  17.296  0.00  0.00    +0.000 A 
ATOM     25  N   UNL     1      50.630   4.877  17.062  0.00  0.00    +0.000 NA
ATOM     26  H   UNL     1      51.815   7.582  17.858  0.00  0.00    +0.000 HD
BRANCH  23  27
ATOM     27  C   UNL     1      52.106   1.546  17.892  0.00  0.00    +0.000 C 
ATOM     28  N   UNL     1      53.287   1.049  18.369  0.00  0.00    +0.000 N 
ATOM     29  O   UNL     1      51.160   0.808  17.652  0.00  0.00    +0.000 OA
ATOM     30  H   UNL     1      54.150   1.575  18.364  0.00  0.00    +0.000 HD
ATOM     31  H   UNL     1      53.355   0.043  18.446  0.00  0.00    +0.000 HD
ENDBRANCH  23  27
ENDBRANCH  18  19
ENDBRANCH  17  18
ENDBRANCH   3  17
TORSDOF 7
ENDMDL
MODEL 8
REMARK VINA RESULT:    -5.492      3.895      5.898
REMARK INTER + INTRA:          -8.837
REMARK INTER:                  -7.884
REMARK INTRA:                  -0.953
REMARK UNBOUND:                -1.098
REMARK  Name = 
REMARK  9 active torsions:
REMARK  status: ('A' for Active; 'I' for Inactive)
REMARK    1  A    between atoms: C_1  and  O_2
REMARK    2  A    between atoms: O_2  and  C_3
REMARK    3  A    between atoms: C_5  and  C_6
REMARK    4  A    between atoms: C_6  and  C_7
REMARK    5  A    between atoms: C_7  and  N_8
REMARK    6  A    between atoms: C_12  and  C_13
REMARK    7  A    between atoms: C_19  and  O_20
REMARK    8  A    between atoms: O_20  and  C_21
REMARK    9  A    between atoms: C_22  and  C_23
REMARK                            x       y       z     vdW  Elec       q    Type
REMARK                         _______ _______ _______ _____ _____    ______ ____
ROOT
ATOM      1  C   UNL     1      51.483   6.837  16.027  0.00  0.00    +0.000 A 
ATOM      2  C   UNL     1      50.739   7.513  15.047  0.00  0.00    +0.000 A 
ATOM      3  C   UNL     1      49.361   7.332  14.906  0.00  0.00    +0.000 A 
ATOM      4  C   UNL     1      48.737   6.420  15.754  0.00  0.00    +0.000 A 
ATOM      5  C   UNL     1      49.461   5.722  16.740  0.00  0.00    +0.000 A 
ATOM      6  C   UNL     1      50.858   5.934  16.933  0.00  0.00    +0.000 A 
ENDROOT
BRANCH   6   7
ATOM      7  C   UNL     1      51.636   5.261  18.037  0.00  0.00    +0.000 A 
ATOM      8  C   UNL     1      51.850   5.863  19.292  0.00  0.00    +0.000 A 
ATOM      9  C   UNL     1      52.592   5.243  20.305  0.00  0.00    +0.000 A 
ATOM     10  C   UNL     1      53.100   3.966  20.117  0.00  0.00    +0.000 A 
ATOM     11  C   UNL     1      52.899   3.328  18.902  0.00  0.00    +0.000 A 
ATOM     12  C   UNL     1      52.208   3.981  17.874  0.00  0.00    +0.000 A 
ENDBRANCH   6   7
BRANCH   1  14
ATOM     13  C   UNL     1      53.378   8.226  16.477  0.00  0.00    +0.000 C 
ATOM     14  O   UNL     1      52.857   6.966  16.050  0.00  0.00    +0.000 OA
ENDBRANCH   1  14
BRANCH   5  15
ATOM     15  O   UNL     1      48.784   4.886  17.602  0.00  0.00    +0.000 OA
ATOM     16  C   UNL     1      48.407   3.618  17.064  0.00  0.00    +0.000 C 
ENDBRANCH   5  15
BRANCH   3  17
ATOM     17  C   UNL     1      48.530   8.078  13.879  0.00  0.00    +0.000 C 
BRANCH  17  18
ATOM     18  C   UNL     1      47.191   7.412  13.549  0.00  0.00    +0.000 C 
BRANCH  18  19
ATOM     19  N   UNL     1      46.952   7.330  12.108  0.00  0.00    +0.000 N 
ATOM     20  C   UNL     1      46.196   6.179  11.781  0.00  0.00    +0.000 A 
ATOM     21  C   UNL     1      45.872   5.957  10.449  0.00  0.00    +0.000 A 
ATOM     22  C   UNL     1      45.132   4.825  10.100  0.00  0.00    +0.000 A 
ATOM     23  C   UNL     1      44.728   3.938  11.099  0.00  0.00    +0.000 A 
ATOM     24  C   UNL     1      45.089   4.228  12.399  0.00  0.00    +0.000 A 
ATOM     25  N   UNL     1      45.794   5.333  12.756  0.00  0.00    +0.000 NA
ATOM     26  H   UNL     1      47.819   7.299  11.577  0.00  0.00    +0.000 HD
BRANCH  23  27
ATOM     27  C   UNL     1      43.974   2.697  10.834  0.00  0.00    +0.000 C 
ATOM     28  N   UNL     1      44.365   1.942   9.763  0.00  0.00    +0.000 N 
ATOM     29  O   UNL     1      43.020   2.368  11.525  0.00  0.00    +0.000 OA
ATOM     30  H   UNL     1      44.985   2.284   9.043  0.00  0.00    +0.000 HD
ATOM     31  H   UNL     1      43.786   1.143   9.539  0.00  0.00    +0.000 HD
ENDBRANCH  23  27
ENDBRANCH  18  19
ENDBRANCH  17  18
ENDBRANCH   3  17
TORSDOF 7
ENDMDL
MODEL 9
REMARK VINA RESULT:    -5.446      3.542      7.093
REMARK INTER + INTRA:          -8.772
REMARK INTER:                  -7.727
REMARK INTRA:                  -1.045
REMARK UNBOUND:                -1.098
REMARK  Name = 
REMARK  9 active torsions:
REMARK  status: ('A' for Active; 'I' for Inactive)
REMARK    1  A    between atoms: C_1  and  O_2
REMARK    2  A    between atoms: O_2  and  C_3
REMARK    3  A    between atoms: C_5  and  C_6
REMARK    4  A    between atoms: C_6  and  C_7
REMARK    5  A    between atoms: C_7  and  N_8
REMARK    6  A    between atoms: C_12  and  C_13
REMARK    7  A    between atoms: C_19  and  O_20
REMARK    8  A    between atoms: O_20  and  C_21
REMARK    9  A    between atoms: C_22  and  C_23
REMARK                            x       y       z     vdW  Elec       q    Type
REMARK                         _______ _______ _______ _____ _____    ______ ____
ROOT
ATOM      1  C   UNL     1      45.576   7.733  11.979  0.00  0.00    +0.000 A 
ATOM      2  C   UNL     1      46.391   8.828  12.304  0.00  0.00    +0.000 A 
ATOM      3  C   UNL     1      47.582   8.681  13.018  0.00  0.00    +0.000 A 
ATOM      4  C   UNL     1      47.931   7.399  13.440  0.00  0.00    +0.000 A 
ATOM      5  C   UNL     1      47.127   6.284  13.135  0.00  0.00    +0.000 A 
ATOM      6  C   UNL     1      45.935   6.409  12.361  0.00  0.00    +0.000 A 
ENDROOT
BRANCH   6   7
ATOM      7  C   UNL     1      45.105   5.217  11.952  0.00  0.00    +0.000 A 
ATOM      8  C   UNL     1      45.139   4.679  10.651  0.00  0.00    +0.000 A 
ATOM      9  C   UNL     1      44.348   3.587  10.271  0.00  0.00    +0.000 A 
ATOM     10  C   UNL     1      43.535   2.955  11.200  0.00  0.00    +0.000 A 
ATOM     11  C   UNL     1      43.483   3.443  12.498  0.00  0.00    +0.000 A 
ATOM     12  C   UNL     1      44.230   4.573  12.852  0.00  0.00    +0.000 A 
ENDBRANCH   6   7
BRANCH   1  14
ATOM     13  C   UNL     1      44.056   9.289  10.984  0.00  0.00    +0.000 C 
ATOM     14  O   UNL     1      44.355   7.947  11.372  0.00  0.00    +0.000 OA
ENDBRANCH   1  14
BRANCH   5  15
ATOM     15  O   UNL     1      47.554   5.028  13.511  0.00  0.00    +0.000 OA
ATOM     16  C   UNL     1      47.263   4.655  14.858  0.00  0.00    +0.000 C 
ENDBRANCH   5  15
BRANCH   3  17
ATOM     17  C   UNL     1      48.498   9.844  13.349  0.00  0.00    +0.000 C 
BRANCH  17  18
ATOM     18  C   UNL     1      49.973   9.462  13.495  0.00  0.00    +0.000 C 
BRANCH  18  19
ATOM     19  N   UNL     1      50.831  10.187  12.556  0.00  0.00    +0.000 N 
ATOM     20  C   UNL     1      51.326   9.326  11.548  0.00  0.00    +0.000 A 
ATOM     21  C   UNL     1      52.151   9.861  10.568  0.00  0.00    +0.000 A 
ATOM     22  C   UNL     1      52.658   9.030   9.566  0.00  0.00    +0.000 A 
ATOM     23  C   UNL     1      52.323   7.675   9.567  0.00  0.00    +0.000 A 
ATOM     24  C   UNL     1      51.498   7.220  10.575  0.00  0.00    +0.000 A 
ATOM     25  N   UNL     1      50.983   8.018  11.547  0.00  0.00    +0.000 NA
ATOM     26  H   UNL     1      51.625  10.621  13.019  0.00  0.00    +0.000 HD
BRANCH  23  27
ATOM     27  C   UNL     1      52.831   6.707   8.576  0.00  0.00    +0.000 C 
ATOM     28  N   UNL     1      52.183   6.642   7.374  0.00  0.00    +0.000 N 
ATOM     29  O   UNL     1      53.777   5.973   8.825  0.00  0.00    +0.000 OA
ATOM     30  H   UNL     1      51.275   7.054   7.212  0.00  0.00    +0.000 HD
ATOM     31  H   UNL     1      52.484   5.914   6.738  0.00  0.00    +0.000 HD
ENDBRANCH  23  27
ENDBRANCH  18  19
ENDBRANCH  17  18
ENDBRANCH   3  17
TORSDOF 7
ENDMDL
