MODEL 1
REMARK VINA RESULT:    -8.159      0.000      0.000
REMARK INTER + INTRA:         -12.707
REMARK INTER:                 -11.498
REMARK INTRA:                  -1.209
REMARK UNBOUND:                -1.209
REMARK  Name = 
REMARK  8 active torsions:
REMARK  status: ('A' for Active; 'I' for Inactive)
REMARK    1  A    between atoms: C_1  and  C_2
REMARK    2  A    between atoms: C_2  and  N_3
REMARK    3  A    between atoms: C_2  and  C_25
REMARK    4  A    between atoms: N_3  and  C_4
REMARK    5  A    between atoms: C_4  and  C_5
REMARK    6  A    between atoms: C_8  and  C_9
REMARK    7  A    between atoms: C_9  and  N_10
REMARK    8  A    between atoms: C_11  and  C_13
REMARK                            x       y       z     vdW  Elec       q    Type
REMARK                         _______ _______ _______ _____ _____    ______ ____
ROOT
ATOM      1  C   UNL     1      44.708   5.951  11.132  0.00  0.00    +0.000 A 
ATOM      2  C   UNL     1      45.932   5.424  11.567  0.00  0.00    +0.000 A 
ATOM      3  C   UNL     1      46.795   6.182  12.362  0.00  0.00    +0.000 A 
ATOM      4  C   UNL     1      46.452   7.489  12.733  0.00  0.00    +0.000 A 
ATOM      5  C   UNL     1      45.261   8.040  12.248  0.00  0.00    +0.000 A 
ATOM      6  C   UNL     1      44.392   7.276  11.463  0.00  0.00    +0.000 A 
ENDROOT
BRANCH   1   7
ATOM      7  C   UNL     1      43.732   5.100  10.346  0.00  0.00    +0.000 C 
BRANCH   7   8
ATOM      8  N   UNL     1      44.366   4.583   9.134  0.00  0.00    +0.000 NA
ATOM      9  H   UNL     1      43.870   4.961   8.326  0.00  0.00    +0.000 HD
BRANCH   8  11
ATOM     10  C   UNL     1      44.289   2.410  10.380  0.00  0.00    +0.000 C 
ATOM     11  C   UNL     1      44.321   3.114   9.018  0.00  0.00    +0.000 C 
BRANCH  11  12
ATOM     12  C   UNL     1      45.525   2.601   8.222  0.00  0.00    +0.000 A 
ATOM     13  C   UNL     1      46.245   3.462   7.390  0.00  0.00    +0.000 A 
ATOM     14  C   UNL     1      47.370   2.981   6.726  0.00  0.00    +0.000 A 
ATOM     15  C   UNL     1      47.738   1.653   6.891  0.00  0.00    +0.000 A 
ATOM     16  C   UNL     1      46.956   0.856   7.709  0.00  0.00    +0.000 A 
ATOM     17  N   UNL     1      45.865   1.295   8.377  0.00  0.00    +0.000 NA
ENDBRANCH  11  12
ENDBRANCH   8  11
ENDBRANCH   7   8
ENDBRANCH   1   7
BRANCH   4  18
ATOM     18  C   UNL     1      47.360   8.298  13.620  0.00  0.00    +0.000 C 
BRANCH  18  19
ATOM     19  N   UNL     1      47.695   7.575  14.818  0.00  0.00    +0.000 N 
ATOM     20  C   UNL     1      48.907   6.951  14.950  0.00  0.00    +0.000 C 
ATOM     21  O   UNL     1      49.772   7.020  14.081  0.00  0.00    +0.000 OA
ATOM     22  H   UNL     1      46.930   7.331  15.439  0.00  0.00    +0.000 HD
BRANCH  20  23
ATOM     23  C   UNL     1      49.148   6.245  16.213  0.00  0.00    +0.000 A 
ATOM     24  C   UNL     1      50.148   6.691  17.067  0.00  0.00    +0.000 A 
ATOM     25  S   UNL     1      50.263   5.798  18.514  0.00  0.00    +0.000 S 
ATOM     26  C   UNL     1      49.013   4.750  18.029  0.00  0.00    +0.000 A 
ATOM     27  N   UNL     1      48.620   3.718  18.823  0.00  0.00    +0.000 NA
ATOM     28  C   UNL     1      47.682   2.986  18.322  0.00  0.00    +0.000 A 
ATOM     29  N   UNL     1      47.099   3.194  17.101  0.00  0.00    +0.000 N 
ATOM     30  C   UNL     1      47.444   4.239  16.274  0.00  0.00    +0.000 A 
ATOM     31  O   UNL     1      46.873   4.417  15.205  0.00  0.00    +0.000 OA
ATOM     32  C   UNL     1      48.503   5.086  16.788  0.00  0.00    +0.000 A 
ATOM     33  H   UNL     1      46.363   2.586  16.778  0.00  0.00    +0.000 HD
ENDBRANCH  20  23
ENDBRANCH  18  19
ENDBRANCH   4  18
TORSDOF 7
ENDMDL
MODEL 2
REMARK VINA RESULT:    -7.735      1.704      2.071
REMARK INTER + INTRA:         -12.109
REMARK INTER:                 -11.133
REMARK INTRA:                  -0.976
REMARK UNBOUND:                -1.209
REMARK  Name = 
REMARK  8 active torsions:
REMARK  status: ('A' for Active; 'I' for Inactive)
REMARK    1  A    between atoms: C_1  and  C_2
REMARK    2  A    between atoms: C_2  and  N_3
REMARK    3  A    between atoms: C_2  and  C_25
REMARK    4  A    between atoms: N_3  and  C_4
REMARK    5  A    between atoms: C_4  and  C_5
REMARK    6  A    between atoms: C_8  and  C_9
REMARK    7  A    between atoms: C_9  and  N_10
REMARK    8  A    between atoms: C_11  and  C_13
REMARK                            x       y       z     vdW  Elec       q    Type
REMARK                         _______ _______ _______ _____ _____    ______ ____
ROOT
ATOM      1  C   UNL     1      45.271   5.521  11.528  0.00  0.00    +0.000 A 
ATOM      2  C   UNL     1      46.168   6.485  11.046  0.00  0.00    +0.000 A 
ATOM      3  C   UNL     1      47.279   6.868  11.801  0.00  0.00    +0.000 A 
ATOM      4  C   UNL     1      47.512   6.298  13.059  0.00  0.00    +0.000 A 
ATOM      5  C   UNL     1      46.584   5.383  13.571  0.00  0.00    +0.000 A 
ATOM      6  C   UNL     1      45.479   4.991  12.809  0.00  0.00    +0.000 A 
ENDROOT
BRANCH   1   7
ATOM      7  C   UNL     1      44.116   5.039  10.674  0.00  0.00    +0.000 C 
BRANCH   7   8
ATOM      8  N   UNL     1      44.591   4.642   9.350  0.00  0.00    +0.000 NA
ATOM      9  H   UNL     1      44.068   5.170   8.650  0.00  0.00    +0.000 HD
BRANCH   8  11
ATOM     10  C   UNL     1      44.233   2.355  10.309  0.00  0.00    +0.000 C 
ATOM     11  C   UNL     1      44.391   3.213   9.048  0.00  0.00    +0.000 C 
BRANCH  11  12
ATOM     12  C   UNL     1      45.561   2.670   8.222  0.00  0.00    +0.000 A 
ATOM     13  C   UNL     1      46.247   3.499   7.331  0.00  0.00    +0.000 A 
ATOM     14  C   UNL     1      47.343   2.993   6.639  0.00  0.00    +0.000 A 
ATOM     15  C   UNL     1      47.717   1.671   6.835  0.00  0.00    +0.000 A 
ATOM     16  C   UNL     1      46.970   0.905   7.714  0.00  0.00    +0.000 A 
ATOM     17  N   UNL     1      45.908   1.370   8.410  0.00  0.00    +0.000 NA
ENDBRANCH  11  12
ENDBRANCH   8  11
ENDBRANCH   7   8
ENDBRANCH   1   7
BRANCH   4  18
ATOM     18  C   UNL     1      48.727   6.680  13.862  0.00  0.00    +0.000 C 
BRANCH  18  19
ATOM     19  N   UNL     1      48.400   6.840  15.253  0.00  0.00    +0.000 N 
ATOM     20  C   UNL     1      49.343   6.647  16.227  0.00  0.00    +0.000 C 
ATOM     21  O   UNL     1      50.512   6.378  15.956  0.00  0.00    +0.000 OA
ATOM     22  H   UNL     1      47.415   6.849  15.498  0.00  0.00    +0.000 HD
BRANCH  20  23
ATOM     23  C   UNL     1      48.905   6.840  17.614  0.00  0.00    +0.000 A 
ATOM     24  C   UNL     1      48.458   8.090  18.022  0.00  0.00    +0.000 A 
ATOM     25  S   UNL     1      47.935   8.133  19.644  0.00  0.00    +0.000 S 
ATOM     26  C   UNL     1      48.335   6.495  19.873  0.00  0.00    +0.000 A 
ATOM     27  N   UNL     1      48.151   5.894  21.079  0.00  0.00    +0.000 NA
ATOM     28  C   UNL     1      48.522   4.659  21.122  0.00  0.00    +0.000 A 
ATOM     29  N   UNL     1      49.057   3.969  20.067  0.00  0.00    +0.000 N 
ATOM     30  C   UNL     1      49.237   4.525  18.822  0.00  0.00    +0.000 A 
ATOM     31  O   UNL     1      49.683   3.865  17.890  0.00  0.00    +0.000 OA
ATOM     32  C   UNL     1      48.845   5.918  18.725  0.00  0.00    +0.000 A 
ATOM     33  H   UNL     1      49.315   3.000  20.171  0.00  0.00    +0.000 HD
ENDBRANCH  20  23
ENDBRANCH  18  19
ENDBRANCH   4  18
TORSDOF 7
ENDMDL
MODEL 3
REMARK VINA RESULT:    -7.499      2.245      2.832
REMARK INTER + INTRA:         -11.776
REMARK INTER:                 -10.674
REMARK INTRA:                  -1.102
REMARK UNBOUND:                -1.209
REMARK  Name = 
REMARK  8 active torsions:
REMARK  status: ('A' for Active; 'I' for Inactive)
REMARK    1  A    between atoms: C_1  and  C_2
REMARK    2  A    between atoms: C_2  and  N_3
REMARK    3  A    between atoms: C_2  and  C_25
REMARK    4  A    between atoms: N_3  and  C_4
REMARK    5  A    between atoms: C_4  and  C_5
REMARK    6  A    between atoms: C_8  and  C_9
REMARK    7  A    between atoms: C_9  and  N_10
REMARK    8  A    between atoms: C_11  and  C_13
REMARK                            x       y       z     vdW  Elec       q    Type
REMARK                         _______ _______ _______ _____ _____    ______ ____
ROOT
ATOM      1  C   UNL     1      45.399   5.856  11.872  0.00  0.00    +0.000 A 
ATOM      2  C   UNL     1      45.947   7.144  11.805  0.00  0.00    +0.000 A 
ATOM      3  C   UNL     1      47.014   7.512  12.629  0.00  0.00    +0.000 A 
ATOM      4  C   UNL     1      47.551   6.596  13.544  0.00  0.00    +0.000 A 
ATOM      5  C   UNL     1      46.965   5.330  13.658  0.00  0.00    +0.000 A 
ATOM      6  C   UNL     1      45.906   4.959  12.824  0.00  0.00    +0.000 A 
ENDROOT
BRANCH   1   7
ATOM      7  C   UNL     1      44.303   5.428  10.919  0.00  0.00    +0.000 C 
BRANCH   7   8
ATOM      8  N   UNL     1      44.875   4.979   9.650  0.00  0.00    +0.000 NA
ATOM      9  H   UNL     1      44.592   5.635   8.921  0.00  0.00    +0.000 HD
BRANCH   8  11
ATOM     10  C   UNL     1      44.065   2.734  10.412  0.00  0.00    +0.000 C 
ATOM     11  C   UNL     1      44.417   3.643   9.228  0.00  0.00    +0.000 C 
BRANCH  11  12
ATOM     12  C   UNL     1      45.485   2.954   8.373  0.00  0.00    +0.000 A 
ATOM     13  C   UNL     1      46.218   3.681   7.431  0.00  0.00    +0.000 A 
ATOM     14  C   UNL     1      47.222   3.041   6.711  0.00  0.00    +0.000 A 
ATOM     15  C   UNL     1      47.459   1.692   6.932  0.00  0.00    +0.000 A 
ATOM     16  C   UNL     1      46.672   1.034   7.863  0.00  0.00    +0.000 A 
ATOM     17  N   UNL     1      45.697   1.630   8.586  0.00  0.00    +0.000 NA
ENDBRANCH  11  12
ENDBRANCH   8  11
ENDBRANCH   7   8
ENDBRANCH   1   7
BRANCH   4  18
ATOM     18  C   UNL     1      48.724   6.973  14.408  0.00  0.00    +0.000 C 
BRANCH  18  19
ATOM     19  N   UNL     1      48.407   6.831  15.804  0.00  0.00    +0.000 N 
ATOM     20  C   UNL     1      49.281   6.228  16.668  0.00  0.00    +0.000 C 
ATOM     21  O   UNL     1      50.385   5.829  16.304  0.00  0.00    +0.000 OA
ATOM     22  H   UNL     1      47.436   6.956  16.072  0.00  0.00    +0.000 HD
BRANCH  20  23
ATOM     23  C   UNL     1      48.861   6.138  18.071  0.00  0.00    +0.000 A 
ATOM     24  C   UNL     1      48.998   4.934  18.750  0.00  0.00    +0.000 A 
ATOM     25  S   UNL     1      48.516   5.009  20.383  0.00  0.00    +0.000 S 
ATOM     26  C   UNL     1      48.059   6.642  20.228  0.00  0.00    +0.000 A 
ATOM     27  N   UNL     1      47.532   7.321  21.281  0.00  0.00    +0.000 NA
ATOM     28  C   UNL     1      47.204   8.542  21.018  0.00  0.00    +0.000 A 
ATOM     29  N   UNL     1      47.357   9.144  19.799  0.00  0.00    +0.000 N 
ATOM     30  C   UNL     1      47.910   8.507  18.712  0.00  0.00    +0.000 A 
ATOM     31  O   UNL     1      48.067   9.091  17.646  0.00  0.00    +0.000 OA
ATOM     32  C   UNL     1      48.286   7.127  18.953  0.00  0.00    +0.000 A 
ATOM     33  H   UNL     1      47.087  10.107  19.669  0.00  0.00    +0.000 HD
ENDBRANCH  20  23
ENDBRANCH  18  19
ENDBRANCH   4  18
TORSDOF 7
ENDMDL
MODEL 4
REMARK VINA RESULT:    -7.104      2.847      8.325
REMARK INTER + INTRA:         -11.220
REMARK INTER:                  -9.522
REMARK INTRA:                  -1.698
REMARK UNBOUND:                -1.209
REMARK  Name = 
REMARK  8 active torsions:
REMARK  status: ('A' for Active; 'I' for Inactive)
REMARK    1  A    between atoms: C_1  and  C_2
REMARK    2  A    between atoms: C_2  and  N_3
REMARK    3  A    between atoms: C_2  and  C_25
REMARK    4  A    between atoms: N_3  and  C_4
REMARK    5  A    between atoms: C_4  and  C_5
REMARK    6  A    between atoms: C_8  and  C_9
REMARK    7  A    between atoms: C_9  and  N_10
REMARK    8  A    between atoms: C_11  and  C_13
REMARK                            x       y       z     vdW  Elec       q    Type
REMARK                         _______ _______ _______ _____ _____    ______ ____
ROOT
ATOM      1  C   UNL     1      48.933   8.128  16.090  0.00  0.00    +0.000 A 
ATOM      2  C   UNL     1      48.335   9.215  15.437  0.00  0.00    +0.000 A 
ATOM      3  C   UNL     1      47.936   9.117  14.102  0.00  0.00    +0.000 A 
ATOM      4  C   UNL     1      48.134   7.927  13.389  0.00  0.00    +0.000 A 
ATOM      5  C   UNL     1      48.789   6.861  14.018  0.00  0.00    +0.000 A 
ATOM      6  C   UNL     1      49.176   6.956  15.359  0.00  0.00    +0.000 A 
ENDROOT
BRANCH   1   7
ATOM      7  C   UNL     1      49.284   8.203  17.561  0.00  0.00    +0.000 C 
BRANCH   7   8
ATOM      8  N   UNL     1      48.216   7.621  18.372  0.00  0.00    +0.000 NA
ATOM      9  H   UNL     1      47.883   8.333  19.024  0.00  0.00    +0.000 HD
BRANCH   8  11
ATOM     10  C   UNL     1      50.082   6.598  19.695  0.00  0.00    +0.000 C 
ATOM     11  C   UNL     1      48.643   6.464  19.181  0.00  0.00    +0.000 C 
BRANCH  11  12
ATOM     12  C   UNL     1      48.523   5.169  18.372  0.00  0.00    +0.000 A 
ATOM     13  C   UNL     1      49.660   4.422  18.054  0.00  0.00    +0.000 A 
ATOM     14  C   UNL     1      49.513   3.219  17.370  0.00  0.00    +0.000 A 
ATOM     15  C   UNL     1      48.242   2.799  17.004  0.00  0.00    +0.000 A 
ATOM     16  C   UNL     1      47.167   3.608  17.331  0.00  0.00    +0.000 A 
ATOM     17  N   UNL     1      47.276   4.776  18.005  0.00  0.00    +0.000 NA
ENDBRANCH  11  12
ENDBRANCH   8  11
ENDBRANCH   7   8
ENDBRANCH   1   7
BRANCH   4  18
ATOM     18  C   UNL     1      47.674   7.802  11.962  0.00  0.00    +0.000 C 
BRANCH  18  19
ATOM     19  N   UNL     1      46.976   6.562  11.749  0.00  0.00    +0.000 N 
ATOM     20  C   UNL     1      45.611   6.495  11.834  0.00  0.00    +0.000 C 
ATOM     21  O   UNL     1      44.924   7.492  12.048  0.00  0.00    +0.000 OA
ATOM     22  H   UNL     1      47.527   5.710  11.785  0.00  0.00    +0.000 HD
BRANCH  20  23
ATOM     23  C   UNL     1      45.001   5.183  11.596  0.00  0.00    +0.000 A 
ATOM     24  C   UNL     1      44.313   4.551  12.624  0.00  0.00    +0.000 A 
ATOM     25  S   UNL     1      43.618   3.063  12.171  0.00  0.00    +0.000 S 
ATOM     26  C   UNL     1      44.254   3.185  10.596  0.00  0.00    +0.000 A 
ATOM     27  N   UNL     1      44.042   2.202   9.681  0.00  0.00    +0.000 NA
ATOM     28  C   UNL     1      44.604   2.409   8.537  0.00  0.00    +0.000 A 
ATOM     29  N   UNL     1      45.355   3.510   8.225  0.00  0.00    +0.000 N 
ATOM     30  C   UNL     1      45.575   4.542   9.109  0.00  0.00    +0.000 A 
ATOM     31  O   UNL     1      46.221   5.530   8.782  0.00  0.00    +0.000 OA
ATOM     32  C   UNL     1      44.973   4.352  10.414  0.00  0.00    +0.000 A 
ATOM     33  H   UNL     1      45.756   3.609   7.305  0.00  0.00    +0.000 HD
ENDBRANCH  20  23
ENDBRANCH  18  19
ENDBRANCH   4  18
TORSDOF 7
ENDMDL
MODEL 5
REMARK VINA RESULT:    -7.027      3.162      7.925
REMARK INTER + INTRA:         -11.112
REMARK INTER:                  -9.519
REMARK INTRA:                  -1.593
REMARK UNBOUND:                -1.209
REMARK  Name = 
REMARK  8 active torsions:
REMARK  status: ('A' for Active; 'I' for Inactive)
REMARK    1  A    between atoms: C_1  and  C_2
REMARK    2  A    between atoms: C_2  and  N_3
REMARK    3  A    between atoms: C_2  and  C_25
REMARK    4  A    between atoms: N_3  and  C_4
REMARK    5  A    between atoms: C_4  and  C_5
REMARK    6  A    between atoms: C_8  and  C_9
REMARK    7  A    between atoms: C_9  and  N_10
REMARK    8  A    between atoms: C_11  and  C_13
REMARK                            x       y       z     vdW  Elec       q    Type
REMARK                         _______ _______ _______ _____ _____    ______ ____
ROOT
ATOM      1  C   UNL     1      48.782   7.684  16.412  0.00  0.00    +0.000 A 
ATOM      2  C   UNL     1      48.912   6.590  15.544  0.00  0.00    +0.000 A 
ATOM      3  C   UNL     1      48.711   6.740  14.170  0.00  0.00    +0.000 A 
ATOM      4  C   UNL     1      48.367   7.989  13.636  0.00  0.00    +0.000 A 
ATOM      5  C   UNL     1      48.174   9.068  14.507  0.00  0.00    +0.000 A 
ATOM      6  C   UNL     1      48.388   8.920  15.881  0.00  0.00    +0.000 A 
ENDROOT
BRANCH   1   7
ATOM      7  C   UNL     1      49.087   7.543  17.889  0.00  0.00    +0.000 C 
BRANCH   7   8
ATOM      8  N   UNL     1      47.926   7.014  18.602  0.00  0.00    +0.000 NA
ATOM      9  H   UNL     1      47.627   7.708  19.289  0.00  0.00    +0.000 HD
BRANCH   8  11
ATOM     10  C   UNL     1      49.455   5.857  20.215  0.00  0.00    +0.000 C 
ATOM     11  C   UNL     1      48.197   5.768  19.343  0.00  0.00    +0.000 C 
BRANCH  11  12
ATOM     12  C   UNL     1      48.347   4.590  18.375  0.00  0.00    +0.000 A 
ATOM     13  C   UNL     1      49.571   3.929  18.244  0.00  0.00    +0.000 A 
ATOM     14  C   UNL     1      49.660   2.825  17.402  0.00  0.00    +0.000 A 
ATOM     15  C   UNL     1      48.536   2.418  16.698  0.00  0.00    +0.000 A 
ATOM     16  C   UNL     1      47.366   3.141  16.859  0.00  0.00    +0.000 A 
ATOM     17  N   UNL     1      47.244   4.210  17.678  0.00  0.00    +0.000 NA
ENDBRANCH  11  12
ENDBRANCH   8  11
ENDBRANCH   7   8
ENDBRANCH   1   7
BRANCH   4  18
ATOM     18  C   UNL     1      48.185   8.166  12.152  0.00  0.00    +0.000 C 
BRANCH  18  19
ATOM     19  N   UNL     1      47.525   7.027  11.571  0.00  0.00    +0.000 N 
ATOM     20  C   UNL     1      46.166   7.008  11.405  0.00  0.00    +0.000 C 
ATOM     21  O   UNL     1      45.461   7.971  11.698  0.00  0.00    +0.000 OA
ATOM     22  H   UNL     1      48.053   6.161  11.526  0.00  0.00    +0.000 HD
BRANCH  20  23
ATOM     23  C   UNL     1      45.595   5.799  10.800  0.00  0.00    +0.000 A 
ATOM     24  C   UNL     1      45.783   5.559   9.445  0.00  0.00    +0.000 A 
ATOM     25  S   UNL     1      45.106   4.089   8.910  0.00  0.00    +0.000 S 
ATOM     26  C   UNL     1      44.493   3.746  10.460  0.00  0.00    +0.000 A 
ATOM     27  N   UNL     1      43.773   2.615  10.690  0.00  0.00    +0.000 NA
ATOM     28  C   UNL     1      43.345   2.493  11.902  0.00  0.00    +0.000 A 
ATOM     29  N   UNL     1      43.574   3.397  12.905  0.00  0.00    +0.000 N 
ATOM     30  C   UNL     1      44.318   4.541  12.727  0.00  0.00    +0.000 A 
ATOM     31  O   UNL     1      44.535   5.308  13.658  0.00  0.00    +0.000 OA
ATOM     32  C   UNL     1      44.814   4.730  11.377  0.00  0.00    +0.000 A 
ATOM     33  H   UNL     1      43.216   3.230  13.832  0.00  0.00    +0.000 HD
ENDBRANCH  20  23
ENDBRANCH  18  19
ENDBRANCH   4  18
TORSDOF 7
ENDMDL
MODEL 6
REMARK VINA RESULT:    -7.009      2.373      3.461
REMARK INTER + INTRA:         -11.086
REMARK INTER:                  -9.891
REMARK INTRA:                  -1.195
REMARK UNBOUND:                -1.209
REMARK  Name = 
REMARK  8 active torsions:
REMARK  status: ('A' for Active; 'I' for Inactive)
REMARK    1  A    between atoms: C_1  and  C_2
REMARK    2  A    between atoms: C_2  and  N_3
REMARK    3  A    between atoms: C_2  and  C_25
REMARK    4  A    between atoms: N_3  and  C_4
REMARK    5  A    between atoms: C_4  and  C_5
REMARK    6  A    between atoms: C_8  and  C_9
REMARK    7  A    between atoms: C_9  and  N_10
REMARK    8  A    between atoms: C_11  and  C_13
REMARK                            x       y       z     vdW  Elec       q    Type
REMARK                         _______ _______ _______ _____ _____    ______ ____
ROOT
ATOM      1  C   UNL     1      45.571   6.662  12.316  0.00  0.00    +0.000 A 
ATOM      2  C   UNL     1      45.665   7.994  12.741  0.00  0.00    +0.000 A 
ATOM      3  C   UNL     1      46.864   8.502  13.246  0.00  0.00    +0.000 A 
ATOM      4  C   UNL     1      47.996   7.682  13.342  0.00  0.00    +0.000 A 
ATOM      5  C   UNL     1      47.889   6.334  12.978  0.00  0.00    +0.000 A 
ATOM      6  C   UNL     1      46.691   5.831  12.461  0.00  0.00    +0.000 A 
ENDROOT
BRANCH   1   7
ATOM      7  C   UNL     1      44.299   6.135  11.685  0.00  0.00    +0.000 C 
BRANCH   7   8
ATOM      8  N   UNL     1      44.537   5.756  10.294  0.00  0.00    +0.000 NA
ATOM      9  H   UNL     1      44.098   6.454   9.691  0.00  0.00    +0.000 HD
BRANCH   8  11
ATOM     10  C   UNL     1      43.581   3.602  11.145  0.00  0.00    +0.000 C 
ATOM     11  C   UNL     1      43.963   4.449   9.925  0.00  0.00    +0.000 C 
BRANCH  11  12
ATOM     12  C   UNL     1      44.946   3.656   9.059  0.00  0.00    +0.000 A 
ATOM     13  C   UNL     1      45.094   2.277   9.233  0.00  0.00    +0.000 A 
ATOM     14  C   UNL     1      45.950   1.574   8.390  0.00  0.00    +0.000 A 
ATOM     15  C   UNL     1      46.652   2.262   7.410  0.00  0.00    +0.000 A 
ATOM     16  C   UNL     1      46.473   3.632   7.319  0.00  0.00    +0.000 A 
ATOM     17  N   UNL     1      45.640   4.342   8.114  0.00  0.00    +0.000 NA
ENDBRANCH  11  12
ENDBRANCH   8  11
ENDBRANCH   7   8
ENDBRANCH   1   7
BRANCH   4  18
ATOM     18  C   UNL     1      49.301   8.232  13.851  0.00  0.00    +0.000 C 
BRANCH  18  19
ATOM     19  N   UNL     1      50.006   7.253  14.635  0.00  0.00    +0.000 N 
ATOM     20  C   UNL     1      49.807   7.154  15.986  0.00  0.00    +0.000 C 
ATOM     21  O   UNL     1      48.991   7.858  16.576  0.00  0.00    +0.000 OA
ATOM     22  H   UNL     1      50.822   6.822  14.210  0.00  0.00    +0.000 HD
BRANCH  20  23
ATOM     23  C   UNL     1      50.574   6.120  16.689  0.00  0.00    +0.000 A 
ATOM     24  C   UNL     1      49.905   5.172  17.452  0.00  0.00    +0.000 A 
ATOM     25  S   UNL     1      50.933   4.010  18.158  0.00  0.00    +0.000 S 
ATOM     26  C   UNL     1      52.316   4.762  17.510  0.00  0.00    +0.000 A 
ATOM     27  N   UNL     1      53.558   4.270  17.759  0.00  0.00    +0.000 NA
ATOM     28  C   UNL     1      54.518   4.952  17.230  0.00  0.00    +0.000 A 
ATOM     29  N   UNL     1      54.348   6.080  16.472  0.00  0.00    +0.000 N 
ATOM     30  C   UNL     1      53.110   6.600  16.171  0.00  0.00    +0.000 A 
ATOM     31  O   UNL     1      52.994   7.589  15.457  0.00  0.00    +0.000 OA
ATOM     32  C   UNL     1      51.997   5.874  16.752  0.00  0.00    +0.000 A 
ATOM     33  H   UNL     1      55.146   6.556  16.082  0.00  0.00    +0.000 HD
ENDBRANCH  20  23
ENDBRANCH  18  19
ENDBRANCH   4  18
TORSDOF 7
ENDMDL
MODEL 7
REMARK VINA RESULT:    -6.959      2.401      2.765
REMARK INTER + INTRA:         -11.015
REMARK INTER:                 -10.006
REMARK INTRA:                  -1.009
REMARK UNBOUND:                -1.209
REMARK  Name = 
REMARK  8 active torsions:
REMARK  status: ('A' for Active; 'I' for Inactive)
REMARK    1  A    between atoms: C_1  and  C_2
REMARK    2  A    between atoms: C_2  and  N_3
REMARK    3  A    between atoms: C_2  and  C_25
REMARK    4  A    between atoms: N_3  and  C_4
REMARK    5  A    between atoms: C_4  and  C_5
REMARK    6  A    between atoms: C_8  and  C_9
REMARK    7  A    between atoms: C_9  and  N_10
REMARK    8  A    between atoms: C_11  and  C_13
REMARK                            x       y       z     vdW  Elec       q    Type
REMARK                         _______ _______ _______ _____ _____    ______ ____
ROOT
ATOM      1  C   UNL     1      46.118   5.845  12.403  0.00  0.00    +0.000 A 
ATOM      2  C   UNL     1      47.194   5.628  13.276  0.00  0.00    +0.000 A 
ATOM      3  C   UNL     1      47.808   6.695  13.935  0.00  0.00    +0.000 A 
ATOM      4  C   UNL     1      47.360   8.007  13.729  0.00  0.00    +0.000 A 
ATOM      5  C   UNL     1      46.329   8.234  12.810  0.00  0.00    +0.000 A 
ATOM      6  C   UNL     1      45.707   7.163  12.160  0.00  0.00    +0.000 A 
ENDROOT
BRANCH   1   7
ATOM      7  C   UNL     1      45.395   4.682  11.758  0.00  0.00    +0.000 C 
BRANCH   7   8
ATOM      8  N   UNL     1      45.060   4.995  10.370  0.00  0.00    +0.000 NA
ATOM      9  H   UNL     1      44.411   5.784  10.366  0.00  0.00    +0.000 HD
BRANCH   8  11
ATOM     10  C   UNL     1      43.869   2.802  10.594  0.00  0.00    +0.000 C 
ATOM     11  C   UNL     1      44.397   3.891   9.652  0.00  0.00    +0.000 C 
BRANCH  11  12
ATOM     12  C   UNL     1      45.357   3.253   8.643  0.00  0.00    +0.000 A 
ATOM     13  C   UNL     1      45.687   1.898   8.735  0.00  0.00    +0.000 A 
ATOM     14  C   UNL     1      46.514   1.333   7.769  0.00  0.00    +0.000 A 
ATOM     15  C   UNL     1      47.006   2.133   6.748  0.00  0.00    +0.000 A 
ATOM     16  C   UNL     1      46.657   3.473   6.741  0.00  0.00    +0.000 A 
ATOM     17  N   UNL     1      45.846   4.049   7.657  0.00  0.00    +0.000 NA
ENDBRANCH  11  12
ENDBRANCH   8  11
ENDBRANCH   7   8
ENDBRANCH   1   7
BRANCH   4  18
ATOM     18  C   UNL     1      47.993   9.158  14.463  0.00  0.00    +0.000 C 
BRANCH  18  19
ATOM     19  N   UNL     1      47.721   9.086  15.874  0.00  0.00    +0.000 N 
ATOM     20  C   UNL     1      48.726   8.865  16.776  0.00  0.00    +0.000 C 
ATOM     21  O   UNL     1      49.901   8.768  16.430  0.00  0.00    +0.000 OA
ATOM     22  H   UNL     1      46.753   8.951  16.151  0.00  0.00    +0.000 HD
BRANCH  20  23
ATOM     23  C   UNL     1      48.340   8.813  18.191  0.00  0.00    +0.000 A 
ATOM     24  C   UNL     1      48.292   9.987  18.931  0.00  0.00    +0.000 A 
ATOM     25  S   UNL     1      47.774   9.762  20.539  0.00  0.00    +0.000 S 
ATOM     26  C   UNL     1      47.644   8.079  20.318  0.00  0.00    +0.000 A 
ATOM     27  N   UNL     1      47.258   7.270  21.341  0.00  0.00    +0.000 NA
ATOM     28  C   UNL     1      47.229   6.014  21.044  0.00  0.00    +0.000 A 
ATOM     29  N   UNL     1      47.547   5.495  19.818  0.00  0.00    +0.000 N 
ATOM     30  C   UNL     1      47.916   6.275  18.747  0.00  0.00    +0.000 A 
ATOM     31  O   UNL     1      48.156   5.778  17.652  0.00  0.00    +0.000 OA
ATOM     32  C   UNL     1      47.975   7.696  19.032  0.00  0.00    +0.000 A 
ATOM     33  H   UNL     1      47.491   4.501  19.656  0.00  0.00    +0.000 HD
ENDBRANCH  20  23
ENDBRANCH  18  19
ENDBRANCH   4  18
TORSDOF 7
ENDMDL
MODEL 8
REMARK VINA RESULT:    -6.820      3.425      8.270
REMARK INTER + INTRA:         -10.820
REMARK INTER:                  -8.779
REMARK INTRA:                  -2.040
REMARK UNBOUND:                -1.209
REMARK  Name = 
REMARK  8 active torsions:
REMARK  status: ('A' for Active; 'I' for Inactive)
REMARK    1  A    between atoms: C_1  and  C_2
REMARK    2  A    between atoms: C_2  and  N_3
REMARK    3  A    between atoms: C_2  and  C_25
REMARK    4  A    between atoms: N_3  and  C_4
REMARK    5  A    between atoms: C_4  and  C_5
REMARK    6  A    between atoms: C_8  and  C_9
REMARK    7  A    between atoms: C_9  and  N_10
REMARK    8  A    between atoms: C_11  and  C_13
REMARK                            x       y       z     vdW  Elec       q    Type
REMARK                         _______ _______ _______ _____ _____    ______ ____
ROOT
ATOM      1  C   UNL     1      49.627   8.024  18.433  0.00  0.00    +0.000 A 
ATOM      2  C   UNL     1      48.520   8.837  18.152  0.00  0.00    +0.000 A 
ATOM      3  C   UNL     1      48.120   9.071  16.835  0.00  0.00    +0.000 A 
ATOM      4  C   UNL     1      48.826   8.500  15.768  0.00  0.00    +0.000 A 
ATOM      5  C   UNL     1      49.969   7.740  16.041  0.00  0.00    +0.000 A 
ATOM      6  C   UNL     1      50.362   7.496  17.361  0.00  0.00    +0.000 A 
ENDROOT
BRANCH   1   7
ATOM      7  C   UNL     1      50.008   7.697  19.862  0.00  0.00    +0.000 C 
BRANCH   7   8
ATOM      8  N   UNL     1      50.048   6.249  20.061  0.00  0.00    +0.000 NA
ATOM      9  H   UNL     1      50.534   5.829  19.268  0.00  0.00    +0.000 HD
BRANCH   8  11
ATOM     10  C   UNL     1      48.533   4.754  21.383  0.00  0.00    +0.000 C 
ATOM     11  C   UNL     1      48.716   5.620  20.131  0.00  0.00    +0.000 C 
BRANCH  11  12
ATOM     12  C   UNL     1      48.464   4.758  18.890  0.00  0.00    +0.000 A 
ATOM     13  C   UNL     1      47.427   5.071  18.008  0.00  0.00    +0.000 A 
ATOM     14  C   UNL     1      47.259   4.305  16.858  0.00  0.00    +0.000 A 
ATOM     15  C   UNL     1      48.114   3.238  16.624  0.00  0.00    +0.000 A 
ATOM     16  C   UNL     1      49.101   2.974  17.560  0.00  0.00    +0.000 A 
ATOM     17  N   UNL     1      49.297   3.706  18.681  0.00  0.00    +0.000 NA
ENDBRANCH  11  12
ENDBRANCH   8  11
ENDBRANCH   7   8
ENDBRANCH   1   7
BRANCH   4  18
ATOM     18  C   UNL     1      48.378   8.717  14.347  0.00  0.00    +0.000 C 
BRANCH  18  19
ATOM     19  N   UNL     1      47.373   7.761  13.967  0.00  0.00    +0.000 N 
ATOM     20  C   UNL     1      47.702   6.632  13.265  0.00  0.00    +0.000 C 
ATOM     21  O   UNL     1      48.866   6.364  12.972  0.00  0.00    +0.000 OA
ATOM     22  H   UNL     1      46.406   8.066  14.011  0.00  0.00    +0.000 HD
BRANCH  20  23
ATOM     23  C   UNL     1      46.602   5.721  12.932  0.00  0.00    +0.000 A 
ATOM     24  C   UNL     1      46.729   4.366  13.205  0.00  0.00    +0.000 A 
ATOM     25  S   UNL     1      45.344   3.454  12.809  0.00  0.00    +0.000 S 
ATOM     26  C   UNL     1      44.543   4.832  12.211  0.00  0.00    +0.000 A 
ATOM     27  N   UNL     1      43.291   4.738  11.688  0.00  0.00    +0.000 NA
ATOM     28  C   UNL     1      42.813   5.853  11.246  0.00  0.00    +0.000 A 
ATOM     29  N   UNL     1      43.472   7.052  11.281  0.00  0.00    +0.000 N 
ATOM     30  C   UNL     1      44.728   7.202  11.824  0.00  0.00    +0.000 A 
ATOM     31  O   UNL     1      45.272   8.299  11.874  0.00  0.00    +0.000 OA
ATOM     32  C   UNL     1      45.314   5.974  12.326  0.00  0.00    +0.000 A 
ATOM     33  H   UNL     1      43.032   7.887  10.925  0.00  0.00    +0.000 HD
ENDBRANCH  20  23
ENDBRANCH  18  19
ENDBRANCH   4  18
TORSDOF 7
ENDMDL
MODEL 9
REMARK VINA RESULT:    -6.804      3.772     10.105
REMARK INTER + INTRA:         -10.798
REMARK INTER:                  -9.532
REMARK INTRA:                  -1.266
REMARK UNBOUND:                -1.209
REMARK  Name = 
REMARK  8 active torsions:
REMARK  status: ('A' for Active; 'I' for Inactive)
REMARK    1  A    between atoms: C_1  and  C_2
REMARK    2  A    between atoms: C_2  and  N_3
REMARK    3  A    between atoms: C_2  and  C_25
REMARK    4  A    between atoms: N_3  and  C_4
REMARK    5  A    between atoms: C_4  and  C_5
REMARK    6  A    between atoms: C_8  and  C_9
REMARK    7  A    between atoms: C_9  and  N_10
REMARK    8  A    between atoms: C_11  and  C_13
REMARK                            x       y       z     vdW  Elec       q    Type
REMARK                         _______ _______ _______ _____ _____    ______ ____
ROOT
ATOM      1  C   UNL     1      51.500   3.107  17.781  0.00  0.00    +0.000 A 
ATOM      2  C   UNL     1      50.805   2.021  17.230  0.00  0.00    +0.000 A 
ATOM      3  C   UNL     1      49.432   2.100  16.984  0.00  0.00    +0.000 A 
ATOM      4  C   UNL     1      48.723   3.269  17.292  0.00  0.00    +0.000 A 
ATOM      5  C   UNL     1      49.402   4.332  17.901  0.00  0.00    +0.000 A 
ATOM      6  C   UNL     1      50.778   4.256  18.135  0.00  0.00    +0.000 A 
ENDROOT
BRANCH   1   7
ATOM      7  C   UNL     1      53.002   3.055  17.964  0.00  0.00    +0.000 C 
BRANCH   7   8
ATOM      8  N   UNL     1      53.339   2.446  19.249  0.00  0.00    +0.000 NA
ATOM      9  H   UNL     1      52.473   2.288  19.767  0.00  0.00    +0.000 HD
BRANCH   8  11
ATOM     10  C   UNL     1      54.740   2.538  21.326  0.00  0.00    +0.000 C 
ATOM     11  C   UNL     1      54.201   3.287  20.101  0.00  0.00    +0.000 C 
BRANCH  11  12
ATOM     12  C   UNL     1      53.441   4.530  20.573  0.00  0.00    +0.000 A 
ATOM     13  C   UNL     1      53.795   5.798  20.108  0.00  0.00    +0.000 A 
ATOM     14  C   UNL     1      53.048   6.902  20.508  0.00  0.00    +0.000 A 
ATOM     15  C   UNL     1      51.981   6.719  21.375  0.00  0.00    +0.000 A 
ATOM     16  C   UNL     1      51.709   5.434  21.815  0.00  0.00    +0.000 A 
ATOM     17  N   UNL     1      52.408   4.340  21.435  0.00  0.00    +0.000 NA
ENDBRANCH  11  12
ENDBRANCH   8  11
ENDBRANCH   7   8
ENDBRANCH   1   7
BRANCH   4  18
ATOM     18  C   UNL     1      47.252   3.375  16.997  0.00  0.00    +0.000 C 
BRANCH  18  19
ATOM     19  N   UNL     1      46.989   4.409  16.031  0.00  0.00    +0.000 N 
ATOM     20  C   UNL     1      47.078   4.159  14.688  0.00  0.00    +0.000 C 
ATOM     21  O   UNL     1      47.336   3.040  14.250  0.00  0.00    +0.000 OA
ATOM     22  H   UNL     1      46.988   5.366  16.369  0.00  0.00    +0.000 HD
BRANCH  20  23
ATOM     23  C   UNL     1      46.787   5.282  13.790  0.00  0.00    +0.000 A 
ATOM     24  C   UNL     1      47.731   6.287  13.624  0.00  0.00    +0.000 A 
ATOM     25  S   UNL     1      47.264   7.488  12.508  0.00  0.00    +0.000 S 
ATOM     26  C   UNL     1      45.760   6.735  12.246  0.00  0.00    +0.000 A 
ATOM     27  N   UNL     1      44.848   7.276  11.395  0.00  0.00    +0.000 NA
ATOM     28  C   UNL     1      43.740   6.618  11.311  0.00  0.00    +0.000 A 
ATOM     29  N   UNL     1      43.464   5.467  11.998  0.00  0.00    +0.000 N 
ATOM     30  C   UNL     1      44.364   4.867  12.848  0.00  0.00    +0.000 A 
ATOM     31  O   UNL     1      44.097   3.814  13.417  0.00  0.00    +0.000 OA
ATOM     32  C   UNL     1      45.623   5.575  12.986  0.00  0.00    +0.000 A 
ATOM     33  H   UNL     1      42.579   5.000  11.874  0.00  0.00    +0.000 HD
ENDBRANCH  20  23
ENDBRANCH  18  19
ENDBRANCH   4  18
TORSDOF 7
ENDMDL
