MODEL 1
REMARK VINA RESULT:    -8.092      0.000      0.000
REMARK INTER + INTRA:         -12.353
REMARK INTER:                 -11.403
REMARK INTRA:                  -0.950
REMARK UNBOUND:                -0.950
REMARK  Name = 
REMARK  7 active torsions:
REMARK  status: ('A' for Active; 'I' for Inactive)
REMARK    1  A    between atoms: C_2  and  C_4
REMARK    2  A    between atoms: C_7  and  O_8
REMARK    3  A    between atoms: O_8  and  C_9
REMARK    4  A    between atoms: C_9  and  C_10
REMARK    5  A    between atoms: C_10  and  C_11
REMARK    6  A    between atoms: C_15  and  O_16
REMARK    7  A    between atoms: O_16  and  C_17
REMARK                            x       y       z     vdW  Elec       q    Type
REMARK                         _______ _______ _______ _____ _____    ______ ____
ROOT
ATOM      1  C   UNL     1      43.813   3.261  11.640  0.00  0.00    +0.000 C 
ENDROOT
BRANCH   1   2
ATOM      2  O   UNL     1      43.574   3.675  10.292  0.00  0.00    +0.000 OA
BRANCH   2   6
ATOM      3  C   UNL     1      46.476   2.418   7.571  0.00  0.00    +0.000 A 
ATOM      4  C   UNL     1      46.155   3.778   7.623  0.00  0.00    +0.000 A 
ATOM      5  C   UNL     1      45.188   4.237   8.523  0.00  0.00    +0.000 A 
ATOM      6  C   UNL     1      44.531   3.343   9.374  0.00  0.00    +0.000 A 
ATOM      7  C   UNL     1      44.844   1.984   9.305  0.00  0.00    +0.000 A 
ATOM      8  C   UNL     1      45.807   1.518   8.405  0.00  0.00    +0.000 A 
BRANCH   3  10
ATOM      9  N   UNL     1      48.602   2.680   6.414  0.00  0.00    +0.000 N 
ATOM     10  C   UNL     1      47.501   1.896   6.632  0.00  0.00    +0.000 C 
ATOM     11  O   UNL     1      47.393   0.800   6.101  0.00  0.00    +0.000 OA
ATOM     12  H   UNL     1      49.342   2.267   5.860  0.00  0.00    +0.000 HD
ATOM     13  H   UNL     1      48.846   3.447   7.023  0.00  0.00    +0.000 HD
ENDBRANCH   3  10
ENDBRANCH   2   6
ENDBRANCH   1   2
BRANCH   1  14
ATOM     14  C   UNL     1      43.804   4.490  12.547  0.00  0.00    +0.000 C 
BRANCH  14  15
ATOM     15  C   UNL     1      45.190   5.061  12.714  0.00  0.00    +0.000 A 
ATOM     16  C   UNL     1      45.680   6.014  11.814  0.00  0.00    +0.000 A 
ATOM     17  C   UNL     1      46.942   6.579  12.005  0.00  0.00    +0.000 A 
ATOM     18  C   UNL     1      47.732   6.197  13.095  0.00  0.00    +0.000 A 
ATOM     19  C   UNL     1      47.256   5.243  13.991  0.00  0.00    +0.000 A 
ATOM     20  C   UNL     1      45.987   4.688  13.805  0.00  0.00    +0.000 A 
BRANCH  19  21
ATOM     21  O   UNL     1      47.925   4.813  15.110  0.00  0.00    +0.000 OA
BRANCH  21  22
ATOM     22  C   UNL     1      47.196   4.102  16.137  0.00  0.00    +0.000 C 
ATOM     23  C   UNL     1      47.192   4.692  17.562  0.00  0.00    +0.000 C 
ATOM     24  N   UNL     1      47.671   3.416  18.113  0.00  0.00    +0.000 NA
ATOM     25  C   UNL     1      47.952   2.911  16.763  0.00  0.00    +0.000 C 
ATOM     26  H   UNL     1      46.965   2.884  18.620  0.00  0.00    +0.000 HD
ENDBRANCH  21  22
ENDBRANCH  19  21
ENDBRANCH  14  15
ENDBRANCH   1  14
TORSDOF 7
ENDMDL
MODEL 2
REMARK VINA RESULT:    -7.278      2.820      3.894
REMARK INTER + INTRA:         -11.206
REMARK INTER:                 -10.270
REMARK INTRA:                  -0.937
REMARK UNBOUND:                -0.950
REMARK  Name = 
REMARK  7 active torsions:
REMARK  status: ('A' for Active; 'I' for Inactive)
REMARK    1  A    between atoms: C_2  and  C_4
REMARK    2  A    between atoms: C_7  and  O_8
REMARK    3  A    between atoms: O_8  and  C_9
REMARK    4  A    between atoms: C_9  and  C_10
REMARK    5  A    between atoms: C_10  and  C_11
REMARK    6  A    between atoms: C_15  and  O_16
REMARK    7  A    between atoms: O_16  and  C_17
REMARK                            x       y       z     vdW  Elec       q    Type
REMARK                         _______ _______ _______ _____ _____    ______ ____
ROOT
ATOM      1  C   UNL     1      43.358   3.501  11.257  0.00  0.00    +0.000 C 
ENDROOT
BRANCH   1   2
ATOM      2  O   UNL     1      43.808   4.351  10.198  0.00  0.00    +0.000 OA
BRANCH   2   6
ATOM      3  C   UNL     1      46.513   2.471   7.638  0.00  0.00    +0.000 A 
ATOM      4  C   UNL     1      46.387   3.862   7.571  0.00  0.00    +0.000 A 
ATOM      5  C   UNL     1      45.491   4.528   8.413  0.00  0.00    +0.000 A 
ATOM      6  C   UNL     1      44.712   3.811   9.326  0.00  0.00    +0.000 A 
ATOM      7  C   UNL     1      44.830   2.420   9.376  0.00  0.00    +0.000 A 
ATOM      8  C   UNL     1      45.720   1.748   8.534  0.00  0.00    +0.000 A 
BRANCH   3  10
ATOM      9  N   UNL     1      48.596   2.391   6.379  0.00  0.00    +0.000 N 
ATOM     10  C   UNL     1      47.458   1.732   6.763  0.00  0.00    +0.000 C 
ATOM     11  O   UNL     1      47.255   0.575   6.424  0.00  0.00    +0.000 OA
ATOM     12  H   UNL     1      49.280   1.841   5.875  0.00  0.00    +0.000 HD
ATOM     13  H   UNL     1      48.917   3.227   6.844  0.00  0.00    +0.000 HD
ENDBRANCH   3  10
ENDBRANCH   2   6
ENDBRANCH   1   2
BRANCH   1  14
ATOM     14  C   UNL     1      43.283   4.315  12.548  0.00  0.00    +0.000 C 
BRANCH  14  15
ATOM     15  C   UNL     1      44.604   4.973  12.860  0.00  0.00    +0.000 A 
ATOM     16  C   UNL     1      45.763   4.204  13.017  0.00  0.00    +0.000 A 
ATOM     17  C   UNL     1      46.992   4.823  13.252  0.00  0.00    +0.000 A 
ATOM     18  C   UNL     1      47.080   6.217  13.334  0.00  0.00    +0.000 A 
ATOM     19  C   UNL     1      45.931   6.990  13.187  0.00  0.00    +0.000 A 
ATOM     20  C   UNL     1      44.703   6.369  12.941  0.00  0.00    +0.000 A 
BRANCH  19  21
ATOM     21  O   UNL     1      45.897   8.362  13.218  0.00  0.00    +0.000 OA
BRANCH  21  22
ATOM     22  C   UNL     1      45.744   9.091  11.978  0.00  0.00    +0.000 C 
ATOM     23  C   UNL     1      46.559  10.388  11.797  0.00  0.00    +0.000 C 
ATOM     24  N   UNL     1      45.334  11.137  11.481  0.00  0.00    +0.000 NA
ATOM     25  C   UNL     1      44.502  10.005  11.911  0.00  0.00    +0.000 C 
ATOM     26  H   UNL     1      45.230  11.381  10.497  0.00  0.00    +0.000 HD
ENDBRANCH  21  22
ENDBRANCH  19  21
ENDBRANCH  14  15
ENDBRANCH   1  14
TORSDOF 7
ENDMDL
MODEL 3
REMARK VINA RESULT:    -7.139      2.664      3.884
REMARK INTER + INTRA:         -11.010
REMARK INTER:                 -10.032
REMARK INTRA:                  -0.978
REMARK UNBOUND:                -0.950
REMARK  Name = 
REMARK  7 active torsions:
REMARK  status: ('A' for Active; 'I' for Inactive)
REMARK    1  A    between atoms: C_2  and  C_4
REMARK    2  A    between atoms: C_7  and  O_8
REMARK    3  A    between atoms: O_8  and  C_9
REMARK    4  A    between atoms: C_9  and  C_10
REMARK    5  A    between atoms: C_10  and  C_11
REMARK    6  A    between atoms: C_15  and  O_16
REMARK    7  A    between atoms: O_16  and  C_17
REMARK                            x       y       z     vdW  Elec       q    Type
REMARK                         _______ _______ _______ _____ _____    ______ ____
ROOT
ATOM      1  C   UNL     1      43.288   5.016  10.773  0.00  0.00    +0.000 C 
ENDROOT
BRANCH   1   2
ATOM      2  O   UNL     1      43.471   3.614  10.551  0.00  0.00    +0.000 OA
BRANCH   2   6
ATOM      3  C   UNL     1      46.380   2.787   7.677  0.00  0.00    +0.000 A 
ATOM      4  C   UNL     1      45.822   1.720   8.389  0.00  0.00    +0.000 A 
ATOM      5  C   UNL     1      44.844   1.957   9.359  0.00  0.00    +0.000 A 
ATOM      6  C   UNL     1      44.418   3.261   9.630  0.00  0.00    +0.000 A 
ATOM      7  C   UNL     1      44.991   4.324   8.928  0.00  0.00    +0.000 A 
ATOM      8  C   UNL     1      45.972   4.093   7.960  0.00  0.00    +0.000 A 
BRANCH   3  10
ATOM      9  N   UNL     1      47.256   3.236   5.451  0.00  0.00    +0.000 N 
ATOM     10  C   UNL     1      47.416   2.570   6.636  0.00  0.00    +0.000 C 
ATOM     11  O   UNL     1      48.392   1.860   6.833  0.00  0.00    +0.000 OA
ATOM     12  H   UNL     1      48.023   3.167   4.793  0.00  0.00    +0.000 HD
ATOM     13  H   UNL     1      46.624   4.017   5.352  0.00  0.00    +0.000 HD
ENDBRANCH   3  10
ENDBRANCH   2   6
ENDBRANCH   1   2
BRANCH   1  14
ATOM     14  C   UNL     1      43.442   5.306  12.265  0.00  0.00    +0.000 C 
BRANCH  14  15
ATOM     15  C   UNL     1      44.893   5.465  12.646  0.00  0.00    +0.000 A 
ATOM     16  C   UNL     1      45.487   4.593  13.566  0.00  0.00    +0.000 A 
ATOM     17  C   UNL     1      46.843   4.712  13.874  0.00  0.00    +0.000 A 
ATOM     18  C   UNL     1      47.623   5.703  13.269  0.00  0.00    +0.000 A 
ATOM     19  C   UNL     1      47.040   6.581  12.359  0.00  0.00    +0.000 A 
ATOM     20  C   UNL     1      45.684   6.453  12.042  0.00  0.00    +0.000 A 
BRANCH  19  21
ATOM     21  O   UNL     1      47.708   7.570  11.681  0.00  0.00    +0.000 OA
BRANCH  21  22
ATOM     22  C   UNL     1      47.866   8.867  12.301  0.00  0.00    +0.000 C 
ATOM     23  C   UNL     1      46.714   9.882  12.157  0.00  0.00    +0.000 C 
ATOM     24  N   UNL     1      47.642  10.890  11.625  0.00  0.00    +0.000 NA
ATOM     25  C   UNL     1      48.698   9.879  11.485  0.00  0.00    +0.000 C 
ATOM     26  H   UNL     1      47.867  11.641  12.276  0.00  0.00    +0.000 HD
ENDBRANCH  21  22
ENDBRANCH  19  21
ENDBRANCH  14  15
ENDBRANCH   1  14
TORSDOF 7
ENDMDL
MODEL 4
REMARK VINA RESULT:    -6.519      1.695      8.253
REMARK INTER + INTRA:         -10.136
REMARK INTER:                  -9.641
REMARK INTRA:                  -0.494
REMARK UNBOUND:                -0.950
REMARK  Name = 
REMARK  7 active torsions:
REMARK  status: ('A' for Active; 'I' for Inactive)
REMARK    1  A    between atoms: C_2  and  C_4
REMARK    2  A    between atoms: C_7  and  O_8
REMARK    3  A    between atoms: O_8  and  C_9
REMARK    4  A    between atoms: C_9  and  C_10
REMARK    5  A    between atoms: C_10  and  C_11
REMARK    6  A    between atoms: C_15  and  O_16
REMARK    7  A    between atoms: O_16  and  C_17
REMARK                            x       y       z     vdW  Elec       q    Type
REMARK                         _______ _______ _______ _____ _____    ______ ____
ROOT
ATOM      1  C   UNL     1      46.415   6.527  11.957  0.00  0.00    +0.000 C 
ENDROOT
BRANCH   1   2
ATOM      2  O   UNL     1      46.683   5.250  12.543  0.00  0.00    +0.000 OA
BRANCH   2   6
ATOM      3  C   UNL     1      48.114   5.040  16.457  0.00  0.00    +0.000 A 
ATOM      4  C   UNL     1      48.433   6.164  15.688  0.00  0.00    +0.000 A 
ATOM      5  C   UNL     1      47.971   6.271  14.373  0.00  0.00    +0.000 A 
ATOM      6  C   UNL     1      47.191   5.255  13.812  0.00  0.00    +0.000 A 
ATOM      7  C   UNL     1      46.890   4.127  14.578  0.00  0.00    +0.000 A 
ATOM      8  C   UNL     1      47.352   4.012  15.893  0.00  0.00    +0.000 A 
BRANCH   3  10
ATOM      9  N   UNL     1      47.623   4.748  18.823  0.00  0.00    +0.000 N 
ATOM     10  C   UNL     1      48.583   4.896  17.858  0.00  0.00    +0.000 C 
ATOM     11  O   UNL     1      49.771   4.873  18.143  0.00  0.00    +0.000 OA
ATOM     12  H   UNL     1      47.957   4.542  19.756  0.00  0.00    +0.000 HD
ATOM     13  H   UNL     1      46.670   4.501  18.602  0.00  0.00    +0.000 HD
ENDBRANCH   3  10
ENDBRANCH   2   6
ENDBRANCH   1   2
BRANCH   1  14
ATOM     14  C   UNL     1      45.116   6.444  11.158  0.00  0.00    +0.000 C 
BRANCH  14  15
ATOM     15  C   UNL     1      45.030   5.155  10.380  0.00  0.00    +0.000 A 
ATOM     16  C   UNL     1      44.310   4.066  10.884  0.00  0.00    +0.000 A 
ATOM     17  C   UNL     1      44.189   2.894  10.135  0.00  0.00    +0.000 A 
ATOM     18  C   UNL     1      44.787   2.794   8.874  0.00  0.00    +0.000 A 
ATOM     19  C   UNL     1      45.513   3.869   8.368  0.00  0.00    +0.000 A 
ATOM     20  C   UNL     1      45.623   5.046   9.115  0.00  0.00    +0.000 A 
BRANCH  19  21
ATOM     21  O   UNL     1      46.116   3.900   7.135  0.00  0.00    +0.000 OA
BRANCH  21  22
ATOM     22  C   UNL     1      46.642   2.674   6.577  0.00  0.00    +0.000 C 
ATOM     23  C   UNL     1      48.135   2.360   6.801  0.00  0.00    +0.000 C 
ATOM     24  N   UNL     1      48.337   2.187   5.355  0.00  0.00    +0.000 NA
ATOM     25  C   UNL     1      47.007   2.747   5.079  0.00  0.00    +0.000 C 
ATOM     26  H   UNL     1      48.452   1.220   5.058  0.00  0.00    +0.000 HD
ENDBRANCH  21  22
ENDBRANCH  19  21
ENDBRANCH  14  15
ENDBRANCH   1  14
TORSDOF 7
ENDMDL
MODEL 5
REMARK VINA RESULT:    -6.239      3.829      5.548
REMARK INTER + INTRA:          -9.742
REMARK INTER:                  -9.179
REMARK INTRA:                  -0.563
REMARK UNBOUND:                -0.950
REMARK  Name = 
REMARK  7 active torsions:
REMARK  status: ('A' for Active; 'I' for Inactive)
REMARK    1  A    between atoms: C_2  and  C_4
REMARK    2  A    between atoms: C_7  and  O_8
REMARK    3  A    between atoms: O_8  and  C_9
REMARK    4  A    between atoms: C_9  and  C_10
REMARK    5  A    between atoms: C_10  and  C_11
REMARK    6  A    between atoms: C_15  and  O_16
REMARK    7  A    between atoms: O_16  and  C_17
REMARK                            x       y       z     vdW  Elec       q    Type
REMARK                         _______ _______ _______ _____ _____    ______ ____
ROOT
ATOM      1  C   UNL     1      48.883   7.417  13.331  0.00  0.00    +0.000 C 
ENDROOT
BRANCH   1   2
ATOM      2  O   UNL     1      48.455   6.062  13.164  0.00  0.00    +0.000 OA
BRANCH   2   6
ATOM      3  C   UNL     1      44.505   5.330  12.035  0.00  0.00    +0.000 A 
ATOM      4  C   UNL     1      45.273   6.199  11.252  0.00  0.00    +0.000 A 
ATOM      5  C   UNL     1      46.601   6.468  11.598  0.00  0.00    +0.000 A 
ATOM      6  C   UNL     1      47.172   5.877  12.730  0.00  0.00    +0.000 A 
ATOM      7  C   UNL     1      46.395   5.024  13.516  0.00  0.00    +0.000 A 
ATOM      8  C   UNL     1      45.065   4.754  13.178  0.00  0.00    +0.000 A 
BRANCH   3  10
ATOM      9  N   UNL     1      42.197   6.050  11.755  0.00  0.00    +0.000 N 
ATOM     10  C   UNL     1      43.095   5.018  11.694  0.00  0.00    +0.000 C 
ATOM     11  O   UNL     1      42.748   3.901  11.338  0.00  0.00    +0.000 OA
ATOM     12  H   UNL     1      41.264   5.850  11.417  0.00  0.00    +0.000 HD
ATOM     13  H   UNL     1      42.487   7.015  11.784  0.00  0.00    +0.000 HD
ENDBRANCH   3  10
ENDBRANCH   2   6
ENDBRANCH   1   2
BRANCH   1  14
ATOM     14  C   UNL     1      48.740   7.805  14.801  0.00  0.00    +0.000 C 
BRANCH  14  15
ATOM     15  C   UNL     1      49.612   6.947  15.683  0.00  0.00    +0.000 A 
ATOM     16  C   UNL     1      51.003   7.105  15.679  0.00  0.00    +0.000 A 
ATOM     17  C   UNL     1      51.800   6.346  16.537  0.00  0.00    +0.000 A 
ATOM     18  C   UNL     1      51.219   5.420  17.409  0.00  0.00    +0.000 A 
ATOM     19  C   UNL     1      49.837   5.249  17.416  0.00  0.00    +0.000 A 
ATOM     20  C   UNL     1      49.039   6.019  16.564  0.00  0.00    +0.000 A 
BRANCH  19  21
ATOM     21  O   UNL     1      49.154   4.396  18.245  0.00  0.00    +0.000 OA
BRANCH  21  22
ATOM     22  C   UNL     1      49.073   2.993  17.903  0.00  0.00    +0.000 C 
ATOM     23  C   UNL     1      50.282   2.352  17.193  0.00  0.00    +0.000 C 
ATOM     24  N   UNL     1      49.414   1.864  16.112  0.00  0.00    +0.000 NA
ATOM     25  C   UNL     1      48.300   2.685  16.603  0.00  0.00    +0.000 C 
ATOM     26  H   UNL     1      49.234   0.861  16.135  0.00  0.00    +0.000 HD
ENDBRANCH  21  22
ENDBRANCH  19  21
ENDBRANCH  14  15
ENDBRANCH   1  14
TORSDOF 7
ENDMDL
MODEL 6
REMARK VINA RESULT:    -6.153      2.006      7.486
REMARK INTER + INTRA:          -9.620
REMARK INTER:                  -9.770
REMARK INTRA:                   0.150
REMARK UNBOUND:                -0.950
REMARK  Name = 
REMARK  7 active torsions:
REMARK  status: ('A' for Active; 'I' for Inactive)
REMARK    1  A    between atoms: C_2  and  C_4
REMARK    2  A    between atoms: C_7  and  O_8
REMARK    3  A    between atoms: O_8  and  C_9
REMARK    4  A    between atoms: C_9  and  C_10
REMARK    5  A    between atoms: C_10  and  C_11
REMARK    6  A    between atoms: C_15  and  O_16
REMARK    7  A    between atoms: O_16  and  C_17
REMARK                            x       y       z     vdW  Elec       q    Type
REMARK                         _______ _______ _______ _____ _____    ______ ____
ROOT
ATOM      1  C   UNL     1      44.052   3.985  12.758  0.00  0.00    +0.000 C 
ENDROOT
BRANCH   1   2
ATOM      2  O   UNL     1      45.407   3.601  13.007  0.00  0.00    +0.000 OA
BRANCH   2   6
ATOM      3  C   UNL     1      48.113   6.559  14.162  0.00  0.00    +0.000 A 
ATOM      4  C   UNL     1      47.482   6.680  12.920  0.00  0.00    +0.000 A 
ATOM      5  C   UNL     1      46.568   5.709  12.498  0.00  0.00    +0.000 A 
ATOM      6  C   UNL     1      46.280   4.608  13.310  0.00  0.00    +0.000 A 
ATOM      7  C   UNL     1      46.927   4.483  14.542  0.00  0.00    +0.000 A 
ATOM      8  C   UNL     1      47.844   5.448  14.968  0.00  0.00    +0.000 A 
BRANCH   3  10
ATOM      9  N   UNL     1      50.374   7.156  14.837  0.00  0.00    +0.000 N 
ATOM     10  C   UNL     1      49.084   7.573  14.643  0.00  0.00    +0.000 C 
ATOM     11  O   UNL     1      48.765   8.739  14.826  0.00  0.00    +0.000 OA
ATOM     12  H   UNL     1      51.048   7.879  15.060  0.00  0.00    +0.000 HD
ATOM     13  H   UNL     1      50.725   6.292  14.453  0.00  0.00    +0.000 HD
ENDBRANCH   3  10
ENDBRANCH   2   6
ENDBRANCH   1   2
BRANCH   1  14
ATOM     14  C   UNL     1      43.507   3.160  11.593  0.00  0.00    +0.000 C 
BRANCH  14  15
ATOM     15  C   UNL     1      44.317   3.379  10.340  0.00  0.00    +0.000 A 
ATOM     16  C   UNL     1      44.675   4.671   9.939  0.00  0.00    +0.000 A 
ATOM     17  C   UNL     1      45.470   4.863   8.808  0.00  0.00    +0.000 A 
ATOM     18  C   UNL     1      45.918   3.767   8.062  0.00  0.00    +0.000 A 
ATOM     19  C   UNL     1      45.561   2.478   8.448  0.00  0.00    +0.000 A 
ATOM     20  C   UNL     1      44.774   2.287   9.588  0.00  0.00    +0.000 A 
BRANCH  19  21
ATOM     21  O   UNL     1      45.963   1.328   7.815  0.00  0.00    +0.000 OA
BRANCH  21  22
ATOM     22  C   UNL     1      47.312   1.240   7.302  0.00  0.00    +0.000 C 
ATOM     23  C   UNL     1      47.941   2.514   6.702  0.00  0.00    +0.000 C 
ATOM     24  N   UNL     1      48.254   1.797   5.457  0.00  0.00    +0.000 NA
ATOM     25  C   UNL     1      47.428   0.658   5.877  0.00  0.00    +0.000 C 
ATOM     26  H   UNL     1      49.241   1.574   5.336  0.00  0.00    +0.000 HD
ENDBRANCH  21  22
ENDBRANCH  19  21
ENDBRANCH  14  15
ENDBRANCH   1  14
TORSDOF 7
ENDMDL
MODEL 7
REMARK VINA RESULT:    -6.094      1.714      7.848
REMARK INTER + INTRA:          -9.537
REMARK INTER:                  -8.633
REMARK INTRA:                  -0.904
REMARK UNBOUND:                -0.950
REMARK  Name = 
REMARK  7 active torsions:
REMARK  status: ('A' for Active; 'I' for Inactive)
REMARK    1  A    between atoms: C_2  and  C_4
REMARK    2  A    between atoms: C_7  and  O_8
REMARK    3  A    between atoms: O_8  and  C_9
REMARK    4  A    between atoms: C_9  and  C_10
REMARK    5  A    between atoms: C_10  and  C_11
REMARK    6  A    between atoms: C_15  and  O_16
REMARK    7  A    between atoms: O_16  and  C_17
REMARK                            x       y       z     vdW  Elec       q    Type
REMARK                         _______ _______ _______ _____ _____    ______ ____
ROOT
ATOM      1  C   UNL     1      46.897   7.595  12.923  0.00  0.00    +0.000 C 
ENDROOT
BRANCH   1   2
ATOM      2  O   UNL     1      48.126   7.045  13.403  0.00  0.00    +0.000 OA
BRANCH   2   6
ATOM      3  C   UNL     1      47.693   4.390  16.592  0.00  0.00    +0.000 A 
ATOM      4  C   UNL     1      48.566   5.473  16.739  0.00  0.00    +0.000 A 
ATOM      5  C   UNL     1      48.737   6.384  15.692  0.00  0.00    +0.000 A 
ATOM      6  C   UNL     1      48.042   6.221  14.490  0.00  0.00    +0.000 A 
ATOM      7  C   UNL     1      47.185   5.128  14.343  0.00  0.00    +0.000 A 
ATOM      8  C   UNL     1      47.012   4.211  15.384  0.00  0.00    +0.000 A 
BRANCH   3  10
ATOM      9  N   UNL     1      48.272   3.533  18.795  0.00  0.00    +0.000 N 
ATOM     10  C   UNL     1      47.483   3.407  17.684  0.00  0.00    +0.000 C 
ATOM     11  O   UNL     1      46.621   2.542  17.618  0.00  0.00    +0.000 OA
ATOM     12  H   UNL     1      48.046   2.927  19.575  0.00  0.00    +0.000 HD
ATOM     13  H   UNL     1      48.794   4.374  18.992  0.00  0.00    +0.000 HD
ENDBRANCH   3  10
ENDBRANCH   2   6
ENDBRANCH   1   2
BRANCH   1  14
ATOM     14  C   UNL     1      46.724   7.218  11.452  0.00  0.00    +0.000 C 
BRANCH  14  15
ATOM     15  C   UNL     1      45.563   6.275  11.260  0.00  0.00    +0.000 A 
ATOM     16  C   UNL     1      44.451   6.333  12.107  0.00  0.00    +0.000 A 
ATOM     17  C   UNL     1      43.356   5.494  11.890  0.00  0.00    +0.000 A 
ATOM     18  C   UNL     1      43.358   4.587  10.826  0.00  0.00    +0.000 A 
ATOM     19  C   UNL     1      44.464   4.515   9.982  0.00  0.00    +0.000 A 
ATOM     20  C   UNL     1      45.554   5.365  10.194  0.00  0.00    +0.000 A 
BRANCH  19  21
ATOM     21  O   UNL     1      44.568   3.689   8.891  0.00  0.00    +0.000 OA
BRANCH  21  22
ATOM     22  C   UNL     1      45.881   3.314   8.413  0.00  0.00    +0.000 C 
ATOM     23  C   UNL     1      46.152   3.404   6.898  0.00  0.00    +0.000 C 
ATOM     24  N   UNL     1      46.601   2.004   6.875  0.00  0.00    +0.000 NA
ATOM     25  C   UNL     1      46.100   1.796   8.240  0.00  0.00    +0.000 C 
ATOM     26  H   UNL     1      47.608   1.886   6.778  0.00  0.00    +0.000 HD
ENDBRANCH  21  22
ENDBRANCH  19  21
ENDBRANCH  14  15
ENDBRANCH   1  14
TORSDOF 7
ENDMDL
MODEL 8
REMARK VINA RESULT:    -6.004      3.204      5.288
REMARK INTER + INTRA:          -9.410
REMARK INTER:                  -8.480
REMARK INTRA:                  -0.930
REMARK UNBOUND:                -0.950
REMARK  Name = 
REMARK  7 active torsions:
REMARK  status: ('A' for Active; 'I' for Inactive)
REMARK    1  A    between atoms: C_2  and  C_4
REMARK    2  A    between atoms: C_7  and  O_8
REMARK    3  A    between atoms: O_8  and  C_9
REMARK    4  A    between atoms: C_9  and  C_10
REMARK    5  A    between atoms: C_10  and  C_11
REMARK    6  A    between atoms: C_15  and  O_16
REMARK    7  A    between atoms: O_16  and  C_17
REMARK                            x       y       z     vdW  Elec       q    Type
REMARK                         _______ _______ _______ _____ _____    ______ ____
ROOT
ATOM      1  C   UNL     1      49.171   7.206  12.622  0.00  0.00    +0.000 C 
ENDROOT
BRANCH   1   2
ATOM      2  O   UNL     1      47.816   7.554  12.321  0.00  0.00    +0.000 OA
BRANCH   2   6
ATOM      3  C   UNL     1      45.010   4.493  11.918  0.00  0.00    +0.000 A 
ATOM      4  C   UNL     1      45.729   4.587  13.115  0.00  0.00    +0.000 A 
ATOM      5  C   UNL     1      46.677   5.600  13.287  0.00  0.00    +0.000 A 
ATOM      6  C   UNL     1      46.920   6.524  12.267  0.00  0.00    +0.000 A 
ATOM      7  C   UNL     1      46.211   6.415  11.068  0.00  0.00    +0.000 A 
ATOM      8  C   UNL     1      45.265   5.402  10.887  0.00  0.00    +0.000 A 
BRANCH   3  10
ATOM      9  N   UNL     1      43.943   2.422  12.624  0.00  0.00    +0.000 N 
ATOM     10  C   UNL     1      43.993   3.434  11.703  0.00  0.00    +0.000 C 
ATOM     11  O   UNL     1      43.206   3.474  10.768  0.00  0.00    +0.000 OA
ATOM     12  H   UNL     1      43.176   1.768  12.527  0.00  0.00    +0.000 HD
ATOM     13  H   UNL     1      44.384   2.495  13.528  0.00  0.00    +0.000 HD
ENDBRANCH   3  10
ENDBRANCH   2   6
ENDBRANCH   1   2
BRANCH   1  14
ATOM     14  C   UNL     1      49.714   8.181  13.665  0.00  0.00    +0.000 C 
BRANCH  14  15
ATOM     15  C   UNL     1      50.280   7.450  14.857  0.00  0.00    +0.000 A 
ATOM     16  C   UNL     1      51.639   7.551  15.175  0.00  0.00    +0.000 A 
ATOM     17  C   UNL     1      52.146   6.917  16.311  0.00  0.00    +0.000 A 
ATOM     18  C   UNL     1      51.303   6.172  17.142  0.00  0.00    +0.000 A 
ATOM     19  C   UNL     1      49.950   6.058  16.830  0.00  0.00    +0.000 A 
ATOM     20  C   UNL     1      49.443   6.705  15.699  0.00  0.00    +0.000 A 
BRANCH  19  21
ATOM     21  O   UNL     1      49.023   5.383  17.584  0.00  0.00    +0.000 OA
BRANCH  21  22
ATOM     22  C   UNL     1      48.478   4.140  17.083  0.00  0.00    +0.000 C 
ATOM     23  C   UNL     1      46.965   4.082  16.790  0.00  0.00    +0.000 C 
ATOM     24  N   UNL     1      46.825   2.893  17.644  0.00  0.00    +0.000 NA
ATOM     25  C   UNL     1      48.187   3.077  18.164  0.00  0.00    +0.000 C 
ATOM     26  H   UNL     1      46.687   2.022  17.135  0.00  0.00    +0.000 HD
ENDBRANCH  21  22
ENDBRANCH  19  21
ENDBRANCH  14  15
ENDBRANCH   1  14
TORSDOF 7
ENDMDL
MODEL 9
REMARK VINA RESULT:    -5.987      3.164      7.463
REMARK INTER + INTRA:          -9.386
REMARK INTER:                  -8.277
REMARK INTRA:                  -1.109
REMARK UNBOUND:                -0.950
REMARK  Name = 
REMARK  7 active torsions:
REMARK  status: ('A' for Active; 'I' for Inactive)
REMARK    1  A    between atoms: C_2  and  C_4
REMARK    2  A    between atoms: C_7  and  O_8
REMARK    3  A    between atoms: O_8  and  C_9
REMARK    4  A    between atoms: C_9  and  C_10
REMARK    5  A    between atoms: C_10  and  C_11
REMARK    6  A    between atoms: C_15  and  O_16
REMARK    7  A    between atoms: O_16  and  C_17
REMARK                            x       y       z     vdW  Elec       q    Type
REMARK                         _______ _______ _______ _____ _____    ______ ____
ROOT
ATOM      1  C   UNL     1      49.541   7.277  12.881  0.00  0.00    +0.000 C 
ENDROOT
BRANCH   1   2
ATOM      2  O   UNL     1      49.331   7.710  14.228  0.00  0.00    +0.000 OA
BRANCH   2   6
ATOM      3  C   UNL     1      48.011   4.696  16.794  0.00  0.00    +0.000 A 
ATOM      4  C   UNL     1      49.000   5.574  17.249  0.00  0.00    +0.000 A 
ATOM      5  C   UNL     1      49.467   6.597  16.418  0.00  0.00    +0.000 A 
ATOM      6  C   UNL     1      48.955   6.750  15.126  0.00  0.00    +0.000 A 
ATOM      7  C   UNL     1      47.980   5.860  14.671  0.00  0.00    +0.000 A 
ATOM      8  C   UNL     1      47.511   4.832  15.495  0.00  0.00    +0.000 A 
BRANCH   3  10
ATOM      9  N   UNL     1      48.164   3.345  18.813  0.00  0.00    +0.000 N 
ATOM     10  C   UNL     1      47.488   3.603  17.650  0.00  0.00    +0.000 C 
ATOM     11  O   UNL     1      46.478   2.978  17.357  0.00  0.00    +0.000 OA
ATOM     12  H   UNL     1      47.736   2.674  19.439  0.00  0.00    +0.000 HD
ATOM     13  H   UNL     1      48.824   3.998  19.208  0.00  0.00    +0.000 HD
ENDBRANCH   3  10
ENDBRANCH   2   6
ENDBRANCH   1   2
BRANCH   1  14
ATOM     14  C   UNL     1      48.850   8.254  11.932  0.00  0.00    +0.000 C 
BRANCH  14  15
ATOM     15  C   UNL     1      47.365   7.997  11.864  0.00  0.00    +0.000 A 
ATOM     16  C   UNL     1      46.452   8.989  12.240  0.00  0.00    +0.000 A 
ATOM     17  C   UNL     1      45.080   8.764  12.123  0.00  0.00    +0.000 A 
ATOM     18  C   UNL     1      44.601   7.545  11.632  0.00  0.00    +0.000 A 
ATOM     19  C   UNL     1      45.500   6.548  11.264  0.00  0.00    +0.000 A 
ATOM     20  C   UNL     1      46.875   6.780  11.370  0.00  0.00    +0.000 A 
BRANCH  19  21
ATOM     21  O   UNL     1      45.151   5.327  10.742  0.00  0.00    +0.000 OA
BRANCH  21  22
ATOM     22  C   UNL     1      44.147   4.533  11.415  0.00  0.00    +0.000 C 
ATOM     23  C   UNL     1      44.443   4.062  12.853  0.00  0.00    +0.000 C 
ATOM     24  N   UNL     1      44.170   2.668  12.473  0.00  0.00    +0.000 NA
ATOM     25  C   UNL     1      44.153   3.034  11.051  0.00  0.00    +0.000 C 
ATOM     26  H   UNL     1      43.285   2.302  12.821  0.00  0.00    +0.000 HD
ENDBRANCH  21  22
ENDBRANCH  19  21
ENDBRANCH  14  15
ENDBRANCH   1  14
TORSDOF 7
ENDMDL
