MODEL 1
REMARK VINA RESULT:    -7.498      0.000      0.000
REMARK INTER + INTRA:          -9.841
REMARK INTER:                  -8.813
REMARK INTRA:                  -1.028
REMARK UNBOUND:                -1.028
REMARK  Name = 
REMARK  3 active torsions:
REMARK  status: ('A' for Active; 'I' for Inactive)
REMARK    1  A    between atoms: N_5  and  C_6
REMARK    2  A    between atoms: C_6  and  C_7
REMARK    3  A    between atoms: C_11  and  C_12
REMARK                            x       y       z     vdW  Elec       q    Type
REMARK                         _______ _______ _______ _____ _____    ______ ____
ROOT
ATOM      1  C   UNL     1      45.127   5.318  12.278  0.00  0.00    +0.000 A 
ATOM      2  C   UNL     1      45.614   4.432  13.251  0.00  0.00    +0.000 A 
ATOM      3  C   UNL     1      46.848   4.641  13.862  0.00  0.00    +0.000 A 
ATOM      4  C   UNL     1      47.618   5.752  13.516  0.00  0.00    +0.000 A 
ATOM      5  C   UNL     1      47.153   6.697  12.588  0.00  0.00    +0.000 A 
ATOM      6  C   UNL     1      45.885   6.476  12.018  0.00  0.00    +0.000 A 
ENDROOT
BRANCH   5   7
ATOM      7  C   UNL     1      47.990   7.831  12.148  0.00  0.00    +0.000 A 
ATOM      8  C   UNL     1      49.334   7.676  11.779  0.00  0.00    +0.000 A 
ATOM      9  C   UNL     1      50.106   8.785  11.428  0.00  0.00    +0.000 A 
ATOM     10  C   UNL     1      49.510  10.033  11.444  0.00  0.00    +0.000 A 
ATOM     11  N   UNL     1      48.223  10.239  11.785  0.00  0.00    +0.000 NA
ATOM     12  C   UNL     1      47.505   9.141  12.130  0.00  0.00    +0.000 A 
ENDBRANCH   5   7
BRANCH   1  13
ATOM     13  C   UNL     1      43.901   4.959  11.439  0.00  0.00    +0.000 C 
ATOM     14  C   UNL     1      42.510   5.164  12.042  0.00  0.00    +0.000 C 
ATOM     15  C   UNL     1      43.034   6.148  11.058  0.00  0.00    +0.000 C 
BRANCH  13  20
ATOM     16  C   UNL     1      46.408   2.569   7.487  0.00  0.00    +0.000 A 
ATOM     17  C   UNL     1      46.199   3.928   7.685  0.00  0.00    +0.000 A 
ATOM     18  C   UNL     1      45.430   4.356   8.773  0.00  0.00    +0.000 A 
ATOM     19  C   UNL     1      44.884   3.417   9.631  0.00  0.00    +0.000 A 
ATOM     20  N   UNL     1      44.019   3.715  10.681  0.00  0.00    +0.000 N 
ATOM     21  N   UNL     1      45.090   2.094   9.448  0.00  0.00    +0.000 NA
ATOM     22  C   UNL     1      45.840   1.700   8.396  0.00  0.00    +0.000 A 
ATOM     23  H   UNL     1      43.836   2.844  11.170  0.00  0.00    +0.000 HD
ENDBRANCH  13  20
ENDBRANCH   1  13
TORSDOF 3
ENDMDL
MODEL 2
REMARK VINA RESULT:    -7.428      2.191      3.764
REMARK INTER + INTRA:          -9.758
REMARK INTER:                  -8.946
REMARK INTRA:                  -0.812
REMARK UNBOUND:                -1.028
REMARK  Name = 
REMARK  3 active torsions:
REMARK  status: ('A' for Active; 'I' for Inactive)
REMARK    1  A    between atoms: N_5  and  C_6
REMARK    2  A    between atoms: C_6  and  C_7
REMARK    3  A    between atoms: C_11  and  C_12
REMARK                            x       y       z     vdW  Elec       q    Type
REMARK                         _______ _______ _______ _____ _____    ______ ____
ROOT
ATOM      1  C   UNL     1      45.547   5.410  12.125  0.00  0.00    +0.000 A 
ATOM      2  C   UNL     1      46.200   6.521  11.569  0.00  0.00    +0.000 A 
ATOM      3  C   UNL     1      47.302   7.097  12.196  0.00  0.00    +0.000 A 
ATOM      4  C   UNL     1      47.780   6.565  13.395  0.00  0.00    +0.000 A 
ATOM      5  C   UNL     1      47.197   5.423  13.965  0.00  0.00    +0.000 A 
ATOM      6  C   UNL     1      46.109   4.842  13.285  0.00  0.00    +0.000 A 
ENDROOT
BRANCH   5   7
ATOM      7  C   UNL     1      47.636   4.898  15.273  0.00  0.00    +0.000 A 
ATOM      8  C   UNL     1      47.312   3.607  15.715  0.00  0.00    +0.000 A 
ATOM      9  C   UNL     1      47.696   3.174  16.985  0.00  0.00    +0.000 A 
ATOM     10  C   UNL     1      48.410   4.044  17.789  0.00  0.00    +0.000 A 
ATOM     11  N   UNL     1      48.753   5.292  17.414  0.00  0.00    +0.000 NA
ATOM     12  C   UNL     1      48.356   5.684  16.178  0.00  0.00    +0.000 A 
ENDBRANCH   5   7
BRANCH   1  13
ATOM     13  C   UNL     1      44.204   4.937  11.573  0.00  0.00    +0.000 C 
ATOM     14  C   UNL     1      42.966   5.028  12.468  0.00  0.00    +0.000 C 
ATOM     15  C   UNL     1      43.175   6.042  11.400  0.00  0.00    +0.000 C 
BRANCH  13  20
ATOM     16  C   UNL     1      46.341   2.599   7.381  0.00  0.00    +0.000 A 
ATOM     17  C   UNL     1      46.139   3.953   7.608  0.00  0.00    +0.000 A 
ATOM     18  C   UNL     1      45.474   4.366   8.768  0.00  0.00    +0.000 A 
ATOM     19  C   UNL     1      45.022   3.417   9.668  0.00  0.00    +0.000 A 
ATOM     20  N   UNL     1      44.261   3.700  10.798  0.00  0.00    +0.000 N 
ATOM     21  N   UNL     1      45.224   2.097   9.457  0.00  0.00    +0.000 NA
ATOM     22  C   UNL     1      45.872   1.717   8.334  0.00  0.00    +0.000 A 
ATOM     23  H   UNL     1      44.133   2.823  11.296  0.00  0.00    +0.000 HD
ENDBRANCH  13  20
ENDBRANCH   1  13
TORSDOF 3
ENDMDL
MODEL 3
REMARK VINA RESULT:    -6.401      2.593      7.176
REMARK INTER + INTRA:          -8.551
REMARK INTER:                  -7.657
REMARK INTRA:                  -0.895
REMARK UNBOUND:                -1.028
REMARK  Name = 
REMARK  3 active torsions:
REMARK  status: ('A' for Active; 'I' for Inactive)
REMARK    1  A    between atoms: N_5  and  C_6
REMARK    2  A    between atoms: C_6  and  C_7
REMARK    3  A    between atoms: C_11  and  C_12
REMARK                            x       y       z     vdW  Elec       q    Type
REMARK                         _______ _______ _______ _____ _____    ______ ____
ROOT
ATOM      1  C   UNL     1      47.408   7.636  12.319  0.00  0.00    +0.000 A 
ATOM      2  C   UNL     1      46.459   8.652  12.507  0.00  0.00    +0.000 A 
ATOM      3  C   UNL     1      45.152   8.510  12.045  0.00  0.00    +0.000 A 
ATOM      4  C   UNL     1      44.767   7.340  11.389  0.00  0.00    +0.000 A 
ATOM      5  C   UNL     1      45.663   6.273  11.223  0.00  0.00    +0.000 A 
ATOM      6  C   UNL     1      46.964   6.433  11.736  0.00  0.00    +0.000 A 
ENDROOT
BRANCH   5   7
ATOM      7  C   UNL     1      45.297   5.064  10.458  0.00  0.00    +0.000 A 
ATOM      8  C   UNL     1      45.587   4.919   9.094  0.00  0.00    +0.000 A 
ATOM      9  C   UNL     1      45.168   3.785   8.396  0.00  0.00    +0.000 A 
ATOM     10  C   UNL     1      44.473   2.807   9.085  0.00  0.00    +0.000 A 
ATOM     11  N   UNL     1      44.173   2.892  10.396  0.00  0.00    +0.000 NA
ATOM     12  C   UNL     1      44.586   4.011  11.041  0.00  0.00    +0.000 A 
ENDBRANCH   5   7
BRANCH   1  13
ATOM     13  C   UNL     1      48.888   7.888  12.604  0.00  0.00    +0.000 C 
ATOM     14  C   UNL     1      49.849   8.046  11.423  0.00  0.00    +0.000 C 
ATOM     15  C   UNL     1      49.386   9.254  12.158  0.00  0.00    +0.000 C 
BRANCH  13  20
ATOM     16  C   UNL     1      48.922   7.179  17.810  0.00  0.00    +0.000 A 
ATOM     17  C   UNL     1      48.621   8.330  17.094  0.00  0.00    +0.000 A 
ATOM     18  C   UNL     1      48.749   8.329  15.701  0.00  0.00    +0.000 A 
ATOM     19  C   UNL     1      49.182   7.182  15.058  0.00  0.00    +0.000 A 
ATOM     20  N   UNL     1      49.448   7.094  13.694  0.00  0.00    +0.000 N 
ATOM     21  N   UNL     1      49.469   6.056  15.748  0.00  0.00    +0.000 NA
ATOM     22  C   UNL     1      49.333   6.074  17.093  0.00  0.00    +0.000 A 
ATOM     23  H   UNL     1      49.684   6.125  13.501  0.00  0.00    +0.000 HD
ENDBRANCH  13  20
ENDBRANCH   1  13
TORSDOF 3
ENDMDL
MODEL 4
REMARK VINA RESULT:    -5.546      3.615      7.153
REMARK INTER + INTRA:          -7.546
REMARK INTER:                  -6.757
REMARK INTRA:                  -0.789
REMARK UNBOUND:                -1.028
REMARK  Name = 
REMARK  3 active torsions:
REMARK  status: ('A' for Active; 'I' for Inactive)
REMARK    1  A    between atoms: N_5  and  C_6
REMARK    2  A    between atoms: C_6  and  C_7
REMARK    3  A    between atoms: C_11  and  C_12
REMARK                            x       y       z     vdW  Elec       q    Type
REMARK                         _______ _______ _______ _____ _____    ______ ____
ROOT
ATOM      1  C   UNL     1      49.094   7.684  14.761  0.00  0.00    +0.000 A 
ATOM      2  C   UNL     1      50.095   8.058  13.851  0.00  0.00    +0.000 A 
ATOM      3  C   UNL     1      49.958   7.809  12.487  0.00  0.00    +0.000 A 
ATOM      4  C   UNL     1      48.807   7.183  12.005  0.00  0.00    +0.000 A 
ATOM      5  C   UNL     1      47.754   6.837  12.866  0.00  0.00    +0.000 A 
ATOM      6  C   UNL     1      47.908   7.139  14.233  0.00  0.00    +0.000 A 
ENDROOT
BRANCH   5   7
ATOM      7  C   UNL     1      46.568   6.100  12.385  0.00  0.00    +0.000 A 
ATOM      8  C   UNL     1      46.173   6.104  11.040  0.00  0.00    +0.000 A 
ATOM      9  C   UNL     1      45.011   5.442  10.640  0.00  0.00    +0.000 A 
ATOM     10  C   UNL     1      44.268   4.778  11.600  0.00  0.00    +0.000 A 
ATOM     11  N   UNL     1      44.604   4.737  12.904  0.00  0.00    +0.000 NA
ATOM     12  C   UNL     1      45.734   5.398  13.260  0.00  0.00    +0.000 A 
ENDBRANCH   5   7
BRANCH   1  13
ATOM     13  C   UNL     1      49.350   7.735  16.267  0.00  0.00    +0.000 C 
ATOM     14  C   UNL     1      49.971   8.999  16.866  0.00  0.00    +0.000 C 
ATOM     15  C   UNL     1      48.510   8.761  17.009  0.00  0.00    +0.000 C 
BRANCH  13  20
ATOM     16  C   UNL     1      48.223   2.791  17.646  0.00  0.00    +0.000 A 
ATOM     17  C   UNL     1      47.365   3.877  17.535  0.00  0.00    +0.000 A 
ATOM     18  C   UNL     1      47.885   5.139  17.227  0.00  0.00    +0.000 A 
ATOM     19  C   UNL     1      49.249   5.286  17.044  0.00  0.00    +0.000 A 
ATOM     20  N   UNL     1      49.891   6.504  16.838  0.00  0.00    +0.000 N 
ATOM     21  N   UNL     1      50.089   4.231  17.141  0.00  0.00    +0.000 NA
ATOM     22  C   UNL     1      49.568   3.020  17.434  0.00  0.00    +0.000 A 
ATOM     23  H   UNL     1      50.872   6.297  16.674  0.00  0.00    +0.000 HD
ENDBRANCH  13  20
ENDBRANCH   1  13
TORSDOF 3
ENDMDL
MODEL 5
REMARK VINA RESULT:    -5.486      2.752      6.736
REMARK INTER + INTRA:          -7.476
REMARK INTER:                  -7.089
REMARK INTRA:                  -0.388
REMARK UNBOUND:                -1.028
REMARK  Name = 
REMARK  3 active torsions:
REMARK  status: ('A' for Active; 'I' for Inactive)
REMARK    1  A    between atoms: N_5  and  C_6
REMARK    2  A    between atoms: C_6  and  C_7
REMARK    3  A    between atoms: C_11  and  C_12
REMARK                            x       y       z     vdW  Elec       q    Type
REMARK                         _______ _______ _______ _____ _____    ______ ____
ROOT
ATOM      1  C   UNL     1      47.125   9.082  12.044  0.00  0.00    +0.000 A 
ATOM      2  C   UNL     1      48.359   8.620  12.526  0.00  0.00    +0.000 A 
ATOM      3  C   UNL     1      48.553   7.275  12.833  0.00  0.00    +0.000 A 
ATOM      4  C   UNL     1      47.513   6.361  12.656  0.00  0.00    +0.000 A 
ATOM      5  C   UNL     1      46.277   6.763  12.126  0.00  0.00    +0.000 A 
ATOM      6  C   UNL     1      46.127   8.121  11.790  0.00  0.00    +0.000 A 
ENDROOT
BRANCH   5   7
ATOM      7  C   UNL     1      45.141   5.827  12.012  0.00  0.00    +0.000 A 
ATOM      8  C   UNL     1      44.425   5.370  13.128  0.00  0.00    +0.000 A 
ATOM      9  C   UNL     1      43.397   4.438  12.979  0.00  0.00    +0.000 A 
ATOM     10  C   UNL     1      43.097   3.986  11.706  0.00  0.00    +0.000 A 
ATOM     11  N   UNL     1      43.748   4.395  10.599  0.00  0.00    +0.000 NA
ATOM     12  C   UNL     1      44.748   5.293  10.781  0.00  0.00    +0.000 A 
ENDBRANCH   5   7
BRANCH   1  13
ATOM     13  C   UNL     1      46.838  10.580  11.942  0.00  0.00    +0.000 C 
ATOM     14  C   UNL     1      47.855  11.565  12.522  0.00  0.00    +0.000 C 
ATOM     15  C   UNL     1      47.806  11.342  11.052  0.00  0.00    +0.000 C 
BRANCH  13  20
ATOM     16  C   UNL     1      42.010  10.933   9.899  0.00  0.00    +0.000 A 
ATOM     17  C   UNL     1      43.233  10.953   9.241  0.00  0.00    +0.000 A 
ATOM     18  C   UNL     1      44.417  10.925   9.986  0.00  0.00    +0.000 A 
ATOM     19  C   UNL     1      44.351  10.884  11.368  0.00  0.00    +0.000 A 
ATOM     20  N   UNL     1      45.454  10.959  12.214  0.00  0.00    +0.000 N 
ATOM     21  N   UNL     1      43.163  10.856  12.013  0.00  0.00    +0.000 NA
ATOM     22  C   UNL     1      42.031  10.878  11.277  0.00  0.00    +0.000 A 
ATOM     23  H   UNL     1      45.108  10.841  13.162  0.00  0.00    +0.000 HD
ENDBRANCH  13  20
ENDBRANCH   1  13
TORSDOF 3
ENDMDL
MODEL 6
REMARK VINA RESULT:    -5.461      2.998      5.572
REMARK INTER + INTRA:          -7.446
REMARK INTER:                  -6.984
REMARK INTRA:                  -0.462
REMARK UNBOUND:                -1.028
REMARK  Name = 
REMARK  3 active torsions:
REMARK  status: ('A' for Active; 'I' for Inactive)
REMARK    1  A    between atoms: N_5  and  C_6
REMARK    2  A    between atoms: C_6  and  C_7
REMARK    3  A    between atoms: C_11  and  C_12
REMARK                            x       y       z     vdW  Elec       q    Type
REMARK                         _______ _______ _______ _____ _____    ______ ____
ROOT
ATOM      1  C   UNL     1      47.027   8.754  12.170  0.00  0.00    +0.000 A 
ATOM      2  C   UNL     1      48.057   9.660  11.874  0.00  0.00    +0.000 A 
ATOM      3  C   UNL     1      47.777  10.930  11.373  0.00  0.00    +0.000 A 
ATOM      4  C   UNL     1      46.454  11.322  11.165  0.00  0.00    +0.000 A 
ATOM      5  C   UNL     1      45.385  10.473  11.495  0.00  0.00    +0.000 A 
ATOM      6  C   UNL     1      45.702   9.212  12.035  0.00  0.00    +0.000 A 
ENDROOT
BRANCH   5   7
ATOM      7  C   UNL     1      43.985  10.838  11.202  0.00  0.00    +0.000 A 
ATOM      8  C   UNL     1      43.040   9.904  10.755  0.00  0.00    +0.000 A 
ATOM      9  C   UNL     1      41.743  10.305  10.432  0.00  0.00    +0.000 A 
ATOM     10  C   UNL     1      41.413  11.641  10.572  0.00  0.00    +0.000 A 
ATOM     11  N   UNL     1      42.278  12.580  11.002  0.00  0.00    +0.000 NA
ATOM     12  C   UNL     1      43.533  12.158  11.298  0.00  0.00    +0.000 A 
ENDBRANCH   5   7
BRANCH   1  13
ATOM     13  C   UNL     1      47.340   7.291  12.482  0.00  0.00    +0.000 C 
ATOM     14  C   UNL     1      48.785   6.899  12.797  0.00  0.00    +0.000 C 
ATOM     15  C   UNL     1      47.806   7.043  13.908  0.00  0.00    +0.000 C 
BRANCH  13  20
ATOM     16  C   UNL     1      42.825   4.729  11.674  0.00  0.00    +0.000 A 
ATOM     17  C   UNL     1      43.317   5.263  12.857  0.00  0.00    +0.000 A 
ATOM     18  C   UNL     1      44.591   5.843  12.873  0.00  0.00    +0.000 A 
ATOM     19  C   UNL     1      45.342   5.869  11.711  0.00  0.00    +0.000 A 
ATOM     20  N   UNL     1      46.656   6.322  11.630  0.00  0.00    +0.000 N 
ATOM     21  N   UNL     1      44.864   5.358  10.555  0.00  0.00    +0.000 NA
ATOM     22  C   UNL     1      43.630   4.807  10.556  0.00  0.00    +0.000 A 
ATOM     23  H   UNL     1      46.922   6.282  10.650  0.00  0.00    +0.000 HD
ENDBRANCH  13  20
ENDBRANCH   1  13
TORSDOF 3
ENDMDL
MODEL 7
REMARK VINA RESULT:    -5.419      2.517      6.747
REMARK INTER + INTRA:          -7.397
REMARK INTER:                  -7.208
REMARK INTRA:                  -0.189
REMARK UNBOUND:                -1.028
REMARK  Name = 
REMARK  3 active torsions:
REMARK  status: ('A' for Active; 'I' for Inactive)
REMARK    1  A    between atoms: N_5  and  C_6
REMARK    2  A    between atoms: C_6  and  C_7
REMARK    3  A    between atoms: C_11  and  C_12
REMARK                            x       y       z     vdW  Elec       q    Type
REMARK                         _______ _______ _______ _____ _____    ______ ____
ROOT
ATOM      1  C   UNL     1      46.945   7.629  13.078  0.00  0.00    +0.000 A 
ATOM      2  C   UNL     1      46.175   8.792  12.920  0.00  0.00    +0.000 A 
ATOM      3  C   UNL     1      45.053   8.806  12.095  0.00  0.00    +0.000 A 
ATOM      4  C   UNL     1      44.672   7.647  11.415  0.00  0.00    +0.000 A 
ATOM      5  C   UNL     1      45.377   6.445  11.581  0.00  0.00    +0.000 A 
ATOM      6  C   UNL     1      46.483   6.456  12.452  0.00  0.00    +0.000 A 
ENDROOT
BRANCH   5   7
ATOM      7  C   UNL     1      45.039   5.235  10.805  0.00  0.00    +0.000 A 
ATOM      8  C   UNL     1      44.312   4.167  11.352  0.00  0.00    +0.000 A 
ATOM      9  C   UNL     1      44.068   3.016  10.601  0.00  0.00    +0.000 A 
ATOM     10  C   UNL     1      44.552   2.960   9.306  0.00  0.00    +0.000 A 
ATOM     11  N   UNL     1      45.250   3.957   8.729  0.00  0.00    +0.000 NA
ATOM     12  C   UNL     1      45.478   5.057   9.490  0.00  0.00    +0.000 A 
ENDBRANCH   5   7
BRANCH   1  13
ATOM     13  C   UNL     1      48.301   7.681  13.780  0.00  0.00    +0.000 C 
ATOM     14  C   UNL     1      49.534   7.160  13.038  0.00  0.00    +0.000 C 
ATOM     15  C   UNL     1      49.303   8.626  13.135  0.00  0.00    +0.000 C 
BRANCH  13  20
ATOM     16  C   UNL     1      47.830   3.656  17.124  0.00  0.00    +0.000 A 
ATOM     17  C   UNL     1      47.358   3.761  15.823  0.00  0.00    +0.000 A 
ATOM     18  C   UNL     1      47.523   4.962  15.124  0.00  0.00    +0.000 A 
ATOM     19  C   UNL     1      48.150   6.029  15.744  0.00  0.00    +0.000 A 
ATOM     20  N   UNL     1      48.278   7.299  15.190  0.00  0.00    +0.000 N 
ATOM     21  N   UNL     1      48.619   5.930  17.007  0.00  0.00    +0.000 NA
ATOM     22  C   UNL     1      48.455   4.761  17.665  0.00  0.00    +0.000 A 
ATOM     23  H   UNL     1      48.831   7.851  15.839  0.00  0.00    +0.000 HD
ENDBRANCH  13  20
ENDBRANCH   1  13
TORSDOF 3
ENDMDL
MODEL 8
REMARK VINA RESULT:    -5.406      3.421      4.935
REMARK INTER + INTRA:          -7.382
REMARK INTER:                  -7.366
REMARK INTRA:                  -0.016
REMARK UNBOUND:                -1.028
REMARK  Name = 
REMARK  3 active torsions:
REMARK  status: ('A' for Active; 'I' for Inactive)
REMARK    1  A    between atoms: N_5  and  C_6
REMARK    2  A    between atoms: C_6  and  C_7
REMARK    3  A    between atoms: C_11  and  C_12
REMARK                            x       y       z     vdW  Elec       q    Type
REMARK                         _______ _______ _______ _____ _____    ______ ____
ROOT
ATOM      1  C   UNL     1      45.514   8.033  11.973  0.00  0.00    +0.000 A 
ATOM      2  C   UNL     1      46.668   8.761  12.301  0.00  0.00    +0.000 A 
ATOM      3  C   UNL     1      46.725  10.141  12.122  0.00  0.00    +0.000 A 
ATOM      4  C   UNL     1      45.618  10.824  11.614  0.00  0.00    +0.000 A 
ATOM      5  C   UNL     1      44.422  10.151  11.321  0.00  0.00    +0.000 A 
ATOM      6  C   UNL     1      44.386   8.763  11.550  0.00  0.00    +0.000 A 
ENDROOT
BRANCH   5   7
ATOM      7  C   UNL     1      43.273  10.844  10.705  0.00  0.00    +0.000 A 
ATOM      8  C   UNL     1      42.085  11.100  11.404  0.00  0.00    +0.000 A 
ATOM      9  C   UNL     1      41.001  11.704  10.763  0.00  0.00    +0.000 A 
ATOM     10  C   UNL     1      41.133  12.049   9.431  0.00  0.00    +0.000 A 
ATOM     11  N   UNL     1      42.252  11.832   8.713  0.00  0.00    +0.000 NA
ATOM     12  C   UNL     1      43.282  11.235   9.363  0.00  0.00    +0.000 A 
ENDBRANCH   5   7
BRANCH   1  13
ATOM     13  C   UNL     1      45.539   6.505  11.938  0.00  0.00    +0.000 C 
ATOM     14  C   UNL     1      46.035   5.748  13.172  0.00  0.00    +0.000 C 
ATOM     15  C   UNL     1      44.574   5.843  12.908  0.00  0.00    +0.000 C 
BRANCH  13  20
ATOM     16  C   UNL     1      44.714   2.735   8.372  0.00  0.00    +0.000 A 
ATOM     17  C   UNL     1      44.356   2.752   9.714  0.00  0.00    +0.000 A 
ATOM     18  C   UNL     1      44.743   3.831  10.517  0.00  0.00    +0.000 A 
ATOM     19  C   UNL     1      45.483   4.861   9.963  0.00  0.00    +0.000 A 
ATOM     20  N   UNL     1      46.012   5.928  10.682  0.00  0.00    +0.000 N 
ATOM     21  N   UNL     1      45.827   4.853   8.656  0.00  0.00    +0.000 NA
ATOM     22  C   UNL     1      45.440   3.807   7.894  0.00  0.00    +0.000 A 
ATOM     23  H   UNL     1      46.447   6.552  10.009  0.00  0.00    +0.000 HD
ENDBRANCH  13  20
ENDBRANCH   1  13
TORSDOF 3
ENDMDL
MODEL 9
REMARK VINA RESULT:    -5.170      3.526      6.092
REMARK INTER + INTRA:          -7.104
REMARK INTER:                  -6.387
REMARK INTRA:                  -0.717
REMARK UNBOUND:                -1.028
REMARK  Name = 
REMARK  3 active torsions:
REMARK  status: ('A' for Active; 'I' for Inactive)
REMARK    1  A    between atoms: N_5  and  C_6
REMARK    2  A    between atoms: C_6  and  C_7
REMARK    3  A    between atoms: C_11  and  C_12
REMARK                            x       y       z     vdW  Elec       q    Type
REMARK                         _______ _______ _______ _____ _____    ______ ____
ROOT
ATOM      1  C   UNL     1      48.266   7.885  14.148  0.00  0.00    +0.000 A 
ATOM      2  C   UNL     1      48.376   9.102  14.837  0.00  0.00    +0.000 A 
ATOM      3  C   UNL     1      48.550   9.134  16.219  0.00  0.00    +0.000 A 
ATOM      4  C   UNL     1      48.625   7.942  16.941  0.00  0.00    +0.000 A 
ATOM      5  C   UNL     1      48.574   6.698  16.293  0.00  0.00    +0.000 A 
ATOM      6  C   UNL     1      48.437   6.701  14.892  0.00  0.00    +0.000 A 
ENDROOT
BRANCH   5   7
ATOM      7  C   UNL     1      48.567   5.430  17.049  0.00  0.00    +0.000 A 
ATOM      8  C   UNL     1      47.663   4.393  16.773  0.00  0.00    +0.000 A 
ATOM      9  C   UNL     1      47.651   3.236  17.553  0.00  0.00    +0.000 A 
ATOM     10  C   UNL     1      48.557   3.134  18.593  0.00  0.00    +0.000 A 
ATOM     11  N   UNL     1      49.450   4.094  18.899  0.00  0.00    +0.000 NA
ATOM     12  C   UNL     1      49.428   5.210  18.128  0.00  0.00    +0.000 A 
ENDBRANCH   5   7
BRANCH   1  13
ATOM     13  C   UNL     1      47.834   7.854  12.683  0.00  0.00    +0.000 C 
ATOM     14  C   UNL     1      48.384   8.917  11.730  0.00  0.00    +0.000 C 
ATOM     15  C   UNL     1      48.957   7.544  11.706  0.00  0.00    +0.000 C 
BRANCH  13  20
ATOM     16  C   UNL     1      44.146   4.113  12.803  0.00  0.00    +0.000 A 
ATOM     17  C   UNL     1      45.516   3.973  12.627  0.00  0.00    +0.000 A 
ATOM     18  C   UNL     1      46.321   5.115  12.547  0.00  0.00    +0.000 A 
ATOM     19  C   UNL     1      45.737   6.367  12.638  0.00  0.00    +0.000 A 
ATOM     20  N   UNL     1      46.417   7.570  12.468  0.00  0.00    +0.000 N 
ATOM     21  N   UNL     1      44.405   6.509  12.817  0.00  0.00    +0.000 NA
ATOM     22  C   UNL     1      43.644   5.395  12.898  0.00  0.00    +0.000 A 
ATOM     23  H   UNL     1      45.751   8.314  12.653  0.00  0.00    +0.000 HD
ENDBRANCH  13  20
ENDBRANCH   1  13
TORSDOF 3
ENDMDL
