MODEL 1
REMARK VINA RESULT:    -7.430      0.000      0.000
REMARK INTER + INTRA:         -10.676
REMARK INTER:                 -10.036
REMARK INTRA:                  -0.640
REMARK UNBOUND:                -0.640
REMARK  Name = 
REMARK  7 active torsions:
REMARK  status: ('A' for Active; 'I' for Inactive)
REMARK    1  A    between atoms: C_1  and  C_2
REMARK    2  A    between atoms: C_2  and  N_3
REMARK    3  A    between atoms: N_3  and  C_4
REMARK    4  A    between atoms: C_7  and  C_8
REMARK    5  A    between atoms: C_12  and  N_13
REMARK    6  A    between atoms: N_13  and  C_14
REMARK    7  A    between atoms: C_15  and  C_16
REMARK                            x       y       z     vdW  Elec       q    Type
REMARK                         _______ _______ _______ _____ _____    ______ ____
ROOT
ATOM      1  C   UNL     1      44.815   6.860  11.608  0.00  0.00    +0.000 A 
ATOM      2  N   UNL     1      45.426   7.359  12.705  0.00  0.00    +0.000 NA
ATOM      3  C   UNL     1      46.035   6.484  13.543  0.00  0.00    +0.000 A 
ATOM      4  C   UNL     1      46.080   5.115  13.343  0.00  0.00    +0.000 A 
ATOM      5  C   UNL     1      45.429   4.611  12.214  0.00  0.00    +0.000 A 
ATOM      6  C   UNL     1      44.749   5.468  11.342  0.00  0.00    +0.000 A 
ENDROOT
BRANCH   4   7
ATOM      7  C   UNL     1      46.777   4.166  14.248  0.00  0.00    +0.000 C 
ATOM      8  N   UNL     1      46.878   4.467  15.581  0.00  0.00    +0.000 N 
ATOM      9  O   UNL     1      47.265   3.130  13.824  0.00  0.00    +0.000 OA
ATOM     10  H   UNL     1      46.526   5.292  16.038  0.00  0.00    +0.000 HD
ATOM     11  H   UNL     1      47.372   3.793  16.153  0.00  0.00    +0.000 HD
ENDBRANCH   4   7
BRANCH   1  12
ATOM     12  N   UNL     1      44.182   7.743  10.690  0.00  0.00    +0.000 N 
ATOM     13  H   UNL     1      44.649   7.620   9.795  0.00  0.00    +0.000 HD
BRANCH  12  15
ATOM     14  C   UNL     1      43.003   9.869  10.673  0.00  0.00    +0.000 C 
ATOM     15  C   UNL     1      44.269   9.145  11.100  0.00  0.00    +0.000 C 
ENDBRANCH  12  15
ENDBRANCH   1  12
BRANCH   6  16
ATOM     16  N   UNL     1      44.121   5.007  10.163  0.00  0.00    +0.000 N 
ATOM     17  H   UNL     1      43.168   5.341  10.042  0.00  0.00    +0.000 HD
BRANCH  16  18
ATOM     18  C   UNL     1      44.630   4.181   9.198  0.00  0.00    +0.000 C 
ATOM     19  C   UNL     1      45.776   4.363   8.529  0.00  0.00    +0.000 C 
BRANCH  19  20
ATOM     20  C   UNL     1      46.282   3.341   7.614  0.00  0.00    +0.000 A 
ATOM     21  C   UNL     1      46.675   3.665   6.312  0.00  0.00    +0.000 A 
ATOM     22  C   UNL     1      47.109   2.664   5.440  0.00  0.00    +0.000 A 
ATOM     23  C   UNL     1      47.152   1.335   5.865  0.00  0.00    +0.000 A 
ATOM     24  C   UNL     1      46.768   1.015   7.166  0.00  0.00    +0.000 A 
ATOM     25 CL   UNL     1      46.817  -0.623   7.694  0.00  0.00    +0.000 Cl
ATOM     26  C   UNL     1      46.336   2.009   8.042  0.00  0.00    +0.000 A 
ENDBRANCH  19  20
ENDBRANCH  16  18
ENDBRANCH   6  16
TORSDOF 6
ENDMDL
MODEL 2
REMARK VINA RESULT:    -7.212      1.797      1.857
REMARK INTER + INTRA:         -10.382
REMARK INTER:                  -9.891
REMARK INTRA:                  -0.492
REMARK UNBOUND:                -0.640
REMARK  Name = 
REMARK  7 active torsions:
REMARK  status: ('A' for Active; 'I' for Inactive)
REMARK    1  A    between atoms: C_1  and  C_2
REMARK    2  A    between atoms: C_2  and  N_3
REMARK    3  A    between atoms: N_3  and  C_4
REMARK    4  A    between atoms: C_7  and  C_8
REMARK    5  A    between atoms: C_12  and  N_13
REMARK    6  A    between atoms: N_13  and  C_14
REMARK    7  A    between atoms: C_15  and  C_16
REMARK                            x       y       z     vdW  Elec       q    Type
REMARK                         _______ _______ _______ _____ _____    ______ ____
ROOT
ATOM      1  C   UNL     1      44.917   7.875  11.651  0.00  0.00    +0.000 A 
ATOM      2  N   UNL     1      45.373   8.638  12.669  0.00  0.00    +0.000 NA
ATOM      3  C   UNL     1      46.556   8.295  13.236  0.00  0.00    +0.000 A 
ATOM      4  C   UNL     1      47.330   7.221  12.835  0.00  0.00    +0.000 A 
ATOM      5  C   UNL     1      46.838   6.429  11.794  0.00  0.00    +0.000 A 
ATOM      6  C   UNL     1      45.602   6.716  11.204  0.00  0.00    +0.000 A 
ENDROOT
BRANCH   4   7
ATOM      7  C   UNL     1      48.640   6.870  13.440  0.00  0.00    +0.000 C 
ATOM      8  N   UNL     1      49.792   7.188  12.770  0.00  0.00    +0.000 N 
ATOM      9  O   UNL     1      48.707   6.299  14.518  0.00  0.00    +0.000 OA
ATOM     10  H   UNL     1      49.859   7.646  11.876  0.00  0.00    +0.000 HD
ATOM     11  H   UNL     1      50.658   6.918  13.220  0.00  0.00    +0.000 HD
ENDBRANCH   4   7
BRANCH   1  12
ATOM     12  N   UNL     1      43.692   8.211  11.011  0.00  0.00    +0.000 N 
ATOM     13  H   UNL     1      43.632   7.640  10.173  0.00  0.00    +0.000 HD
BRANCH  12  15
ATOM     14  C   UNL     1      42.156  10.068  10.683  0.00  0.00    +0.000 C 
ATOM     15  C   UNL     1      43.611   9.626  10.649  0.00  0.00    +0.000 C 
ENDBRANCH  12  15
ENDBRANCH   1  12
BRANCH   6  16
ATOM     16  N   UNL     1      45.091   5.973  10.116  0.00  0.00    +0.000 N 
ATOM     17  H   UNL     1      44.119   6.173   9.896  0.00  0.00    +0.000 HD
BRANCH  16  18
ATOM     18  C   UNL     1      45.734   5.038   9.352  0.00  0.00    +0.000 C 
ATOM     19  C   UNL     1      45.181   3.941   8.817  0.00  0.00    +0.000 C 
BRANCH  19  20
ATOM     20  C   UNL     1      45.940   3.085   7.906  0.00  0.00    +0.000 A 
ATOM     21  C   UNL     1      46.499   3.595   6.730  0.00  0.00    +0.000 A 
ATOM     22  C   UNL     1      47.178   2.747   5.851  0.00  0.00    +0.000 A 
ATOM     23  C   UNL     1      47.299   1.387   6.143  0.00  0.00    +0.000 A 
ATOM     24  C   UNL     1      46.749   0.883   7.320  0.00  0.00    +0.000 A 
ATOM     25 CL   UNL     1      46.894  -0.793   7.683  0.00  0.00    +0.000 Cl
ATOM     26  C   UNL     1      46.073   1.723   8.202  0.00  0.00    +0.000 A 
ENDBRANCH  19  20
ENDBRANCH  16  18
ENDBRANCH   6  16
TORSDOF 6
ENDMDL
MODEL 3
REMARK VINA RESULT:    -7.191      2.229      2.995
REMARK INTER + INTRA:         -10.353
REMARK INTER:                  -9.621
REMARK INTRA:                  -0.732
REMARK UNBOUND:                -0.640
REMARK  Name = 
REMARK  7 active torsions:
REMARK  status: ('A' for Active; 'I' for Inactive)
REMARK    1  A    between atoms: C_1  and  C_2
REMARK    2  A    between atoms: C_2  and  N_3
REMARK    3  A    between atoms: N_3  and  C_4
REMARK    4  A    between atoms: C_7  and  C_8
REMARK    5  A    between atoms: C_12  and  N_13
REMARK    6  A    between atoms: N_13  and  C_14
REMARK    7  A    between atoms: C_15  and  C_16
REMARK                            x       y       z     vdW  Elec       q    Type
REMARK                         _______ _______ _______ _____ _____    ______ ____
ROOT
ATOM      1  C   UNL     1      44.616   5.416  12.074  0.00  0.00    +0.000 A 
ATOM      2  N   UNL     1      45.127   5.803  13.263  0.00  0.00    +0.000 NA
ATOM      3  C   UNL     1      46.327   6.436  13.260  0.00  0.00    +0.000 A 
ATOM      4  C   UNL     1      47.056   6.718  12.118  0.00  0.00    +0.000 A 
ATOM      5  C   UNL     1      46.524   6.296  10.897  0.00  0.00    +0.000 A 
ATOM      6  C   UNL     1      45.310   5.601  10.852  0.00  0.00    +0.000 A 
ENDROOT
BRANCH   4   7
ATOM      7  C   UNL     1      48.354   7.440  12.120  0.00  0.00    +0.000 C 
ATOM      8  N   UNL     1      49.397   6.937  12.852  0.00  0.00    +0.000 N 
ATOM      9  O   UNL     1      48.504   8.474  11.487  0.00  0.00    +0.000 OA
ATOM     10  H   UNL     1      49.386   6.104  13.417  0.00  0.00    +0.000 HD
ATOM     11  H   UNL     1      50.256   7.472  12.829  0.00  0.00    +0.000 HD
ENDBRANCH   4   7
BRANCH   1  12
ATOM     12  N   UNL     1      43.349   4.769  12.028  0.00  0.00    +0.000 N 
ATOM     13  H   UNL     1      42.697   5.367  12.527  0.00  0.00    +0.000 HD
BRANCH  12  15
ATOM     14  C   UNL     1      43.450   2.387  11.550  0.00  0.00    +0.000 C 
ATOM     15  C   UNL     1      43.368   3.441  12.642  0.00  0.00    +0.000 C 
ENDBRANCH  12  15
ENDBRANCH   1  12
BRANCH   6  16
ATOM     16  N   UNL     1      44.712   5.200   9.636  0.00  0.00    +0.000 N 
ATOM     17  H   UNL     1      43.869   5.715   9.398  0.00  0.00    +0.000 HD
BRANCH  16  18
ATOM     18  C   UNL     1      45.123   4.223   8.770  0.00  0.00    +0.000 C 
ATOM     19  C   UNL     1      46.162   4.300   7.929  0.00  0.00    +0.000 C 
BRANCH  19  20
ATOM     20  C   UNL     1      46.584   3.138   7.147  0.00  0.00    +0.000 A 
ATOM     21  C   UNL     1      46.978   3.269   5.812  0.00  0.00    +0.000 A 
ATOM     22  C   UNL     1      47.330   2.138   5.071  0.00  0.00    +0.000 A 
ATOM     23  C   UNL     1      47.289   0.873   5.661  0.00  0.00    +0.000 A 
ATOM     24  C   UNL     1      46.905   0.747   6.994  0.00  0.00    +0.000 A 
ATOM     25 CL   UNL     1      46.852  -0.811   7.725  0.00  0.00    +0.000 Cl
ATOM     26  C   UNL     1      46.555   1.870   7.740  0.00  0.00    +0.000 A 
ENDBRANCH  19  20
ENDBRANCH  16  18
ENDBRANCH   6  16
TORSDOF 6
ENDMDL
MODEL 4
REMARK VINA RESULT:    -6.949      3.666      6.908
REMARK INTER + INTRA:         -10.026
REMARK INTER:                  -9.159
REMARK INTRA:                  -0.867
REMARK UNBOUND:                -0.640
REMARK  Name = 
REMARK  7 active torsions:
REMARK  status: ('A' for Active; 'I' for Inactive)
REMARK    1  A    between atoms: C_1  and  C_2
REMARK    2  A    between atoms: C_2  and  N_3
REMARK    3  A    between atoms: N_3  and  C_4
REMARK    4  A    between atoms: C_7  and  C_8
REMARK    5  A    between atoms: C_12  and  N_13
REMARK    6  A    between atoms: N_13  and  C_14
REMARK    7  A    between atoms: C_15  and  C_16
REMARK                            x       y       z     vdW  Elec       q    Type
REMARK                         _______ _______ _______ _____ _____    ______ ____
ROOT
ATOM      1  C   UNL     1      44.350   3.204   9.855  0.00  0.00    +0.000 A 
ATOM      2  N   UNL     1      44.504   1.947   9.384  0.00  0.00    +0.000 NA
ATOM      3  C   UNL     1      45.422   1.746   8.406  0.00  0.00    +0.000 A 
ATOM      4  C   UNL     1      46.215   2.743   7.865  0.00  0.00    +0.000 A 
ATOM      5  C   UNL     1      46.032   4.041   8.348  0.00  0.00    +0.000 A 
ATOM      6  C   UNL     1      45.068   4.307   9.327  0.00  0.00    +0.000 A 
ENDROOT
BRANCH   4   7
ATOM      7  C   UNL     1      47.240   2.509   6.816  0.00  0.00    +0.000 C 
ATOM      8  N   UNL     1      47.163   3.208   5.640  0.00  0.00    +0.000 N 
ATOM      9  O   UNL     1      48.143   1.703   6.982  0.00  0.00    +0.000 OA
ATOM     10  H   UNL     1      46.463   3.886   5.390  0.00  0.00    +0.000 HD
ATOM     11  H   UNL     1      47.880   3.004   4.954  0.00  0.00    +0.000 HD
ENDBRANCH   4   7
BRANCH   1  12
ATOM     12  N   UNL     1      43.415   3.457  10.897  0.00  0.00    +0.000 N 
ATOM     13  H   UNL     1      43.200   4.450  10.864  0.00  0.00    +0.000 HD
BRANCH  12  15
ATOM     14  C   UNL     1      43.535   4.191  13.212  0.00  0.00    +0.000 C 
ATOM     15  C   UNL     1      43.933   3.110  12.220  0.00  0.00    +0.000 C 
ENDBRANCH  12  15
ENDBRANCH   1  12
BRANCH   6  16
ATOM     16  N   UNL     1      44.885   5.595   9.879  0.00  0.00    +0.000 N 
ATOM     17  H   UNL     1      44.006   6.037   9.621  0.00  0.00    +0.000 HD
BRANCH  16  18
ATOM     18  C   UNL     1      45.732   6.298  10.692  0.00  0.00    +0.000 C 
ATOM     19  C   UNL     1      46.416   5.804  11.733  0.00  0.00    +0.000 C 
BRANCH  19  20
ATOM     20  C   UNL     1      47.395   6.625  12.446  0.00  0.00    +0.000 A 
ATOM     21  C   UNL     1      48.084   7.656  11.799  0.00  0.00    +0.000 A 
ATOM     22  C   UNL     1      49.050   8.394  12.488  0.00  0.00    +0.000 A 
ATOM     23  C   UNL     1      49.331   8.104  13.824  0.00  0.00    +0.000 A 
ATOM     24  C   UNL     1      48.637   7.082  14.469  0.00  0.00    +0.000 A 
ATOM     25 CL   UNL     1      48.983   6.721  16.116  0.00  0.00    +0.000 Cl
ATOM     26  C   UNL     1      47.671   6.344  13.789  0.00  0.00    +0.000 A 
ENDBRANCH  19  20
ENDBRANCH  16  18
ENDBRANCH   6  16
TORSDOF 6
ENDMDL
MODEL 5
REMARK VINA RESULT:    -6.360      4.110      6.886
REMARK INTER + INTRA:          -9.231
REMARK INTER:                  -8.629
REMARK INTRA:                  -0.602
REMARK UNBOUND:                -0.640
REMARK  Name = 
REMARK  7 active torsions:
REMARK  status: ('A' for Active; 'I' for Inactive)
REMARK    1  A    between atoms: C_1  and  C_2
REMARK    2  A    between atoms: C_2  and  N_3
REMARK    3  A    between atoms: N_3  and  C_4
REMARK    4  A    between atoms: C_7  and  C_8
REMARK    5  A    between atoms: C_12  and  N_13
REMARK    6  A    between atoms: N_13  and  C_14
REMARK    7  A    between atoms: C_15  and  C_16
REMARK                            x       y       z     vdW  Elec       q    Type
REMARK                         _______ _______ _______ _____ _____    ______ ____
ROOT
ATOM      1  C   UNL     1      46.195   4.736  13.697  0.00  0.00    +0.000 A 
ATOM      2  N   UNL     1      46.040   3.423  13.417  0.00  0.00    +0.000 NA
ATOM      3  C   UNL     1      45.406   3.092  12.265  0.00  0.00    +0.000 A 
ATOM      4  C   UNL     1      44.915   4.011  11.354  0.00  0.00    +0.000 A 
ATOM      5  C   UNL     1      45.065   5.365  11.665  0.00  0.00    +0.000 A 
ATOM      6  C   UNL     1      45.674   5.757  12.863  0.00  0.00    +0.000 A 
ENDROOT
BRANCH   4   7
ATOM      7  C   UNL     1      44.249   3.642  10.079  0.00  0.00    +0.000 C 
ATOM      8  N   UNL     1      43.977   4.620   9.160  0.00  0.00    +0.000 N 
ATOM      9  O   UNL     1      43.936   2.485   9.842  0.00  0.00    +0.000 OA
ATOM     10  H   UNL     1      44.178   5.602   9.251  0.00  0.00    +0.000 HD
ATOM     11  H   UNL     1      43.512   4.317   8.312  0.00  0.00    +0.000 HD
ENDBRANCH   4   7
BRANCH   1  12
ATOM     12  N   UNL     1      46.874   5.129  14.884  0.00  0.00    +0.000 N 
ATOM     13  H   UNL     1      47.682   5.672  14.593  0.00  0.00    +0.000 HD
BRANCH  12  15
ATOM     14  C   UNL     1      47.272   4.374  17.161  0.00  0.00    +0.000 C 
ATOM     15  C   UNL     1      47.311   3.989  15.691  0.00  0.00    +0.000 C 
ENDBRANCH  12  15
ENDBRANCH   1  12
BRANCH   6  16
ATOM     16  N   UNL     1      45.892   7.114  13.193  0.00  0.00    +0.000 N 
ATOM     17  H   UNL     1      45.167   7.521  13.777  0.00  0.00    +0.000 HD
BRANCH  16  18
ATOM     18  C   UNL     1      46.933   7.921  12.821  0.00  0.00    +0.000 C 
ATOM     19  C   UNL     1      48.065   7.524  12.226  0.00  0.00    +0.000 C 
BRANCH  19  20
ATOM     20  C   UNL     1      49.049   8.499  11.756  0.00  0.00    +0.000 A 
ATOM     21  C   UNL     1      48.697   9.834  11.537  0.00  0.00    +0.000 A 
ATOM     22  C   UNL     1      49.642  10.736  11.040  0.00  0.00    +0.000 A 
ATOM     23  C   UNL     1      50.941  10.306  10.760  0.00  0.00    +0.000 A 
ATOM     24  C   UNL     1      51.291   8.977  10.987  0.00  0.00    +0.000 A 
ATOM     25 CL   UNL     1      52.890   8.443  10.641  0.00  0.00    +0.000 Cl
ATOM     26  C   UNL     1      50.355   8.073  11.484  0.00  0.00    +0.000 A 
ENDBRANCH  19  20
ENDBRANCH  16  18
ENDBRANCH   6  16
TORSDOF 6
ENDMDL
MODEL 6
REMARK VINA RESULT:    -6.328      2.315      4.167
REMARK INTER + INTRA:          -9.188
REMARK INTER:                  -9.036
REMARK INTRA:                  -0.152
REMARK UNBOUND:                -0.640
REMARK  Name = 
REMARK  7 active torsions:
REMARK  status: ('A' for Active; 'I' for Inactive)
REMARK    1  A    between atoms: C_1  and  C_2
REMARK    2  A    between atoms: C_2  and  N_3
REMARK    3  A    between atoms: N_3  and  C_4
REMARK    4  A    between atoms: C_7  and  C_8
REMARK    5  A    between atoms: C_12  and  N_13
REMARK    6  A    between atoms: N_13  and  C_14
REMARK    7  A    between atoms: C_15  and  C_16
REMARK                            x       y       z     vdW  Elec       q    Type
REMARK                         _______ _______ _______ _____ _____    ______ ____
ROOT
ATOM      1  C   UNL     1      46.034   6.936  12.393  0.00  0.00    +0.000 A 
ATOM      2  N   UNL     1      46.456   8.055  13.023  0.00  0.00    +0.000 NA
ATOM      3  C   UNL     1      45.854   9.227  12.702  0.00  0.00    +0.000 A 
ATOM      4  C   UNL     1      44.830   9.350  11.779  0.00  0.00    +0.000 A 
ATOM      5  C   UNL     1      44.416   8.189  11.123  0.00  0.00    +0.000 A 
ATOM      6  C   UNL     1      45.035   6.962  11.387  0.00  0.00    +0.000 A 
ENDROOT
BRANCH   4   7
ATOM      7  C   UNL     1      44.154  10.632  11.456  0.00  0.00    +0.000 C 
ATOM      8  N   UNL     1      44.510  11.307  10.318  0.00  0.00    +0.000 N 
ATOM      9  O   UNL     1      43.294  11.097  12.190  0.00  0.00    +0.000 OA
ATOM     10  H   UNL     1      45.208  11.028   9.649  0.00  0.00    +0.000 HD
ATOM     11  H   UNL     1      44.027  12.181  10.149  0.00  0.00    +0.000 HD
ENDBRANCH   4   7
BRANCH   1  12
ATOM     12  N   UNL     1      46.622   5.681  12.715  0.00  0.00    +0.000 N 
ATOM     13  H   UNL     1      46.568   5.109  11.877  0.00  0.00    +0.000 HD
BRANCH  12  15
ATOM     14  C   UNL     1      46.980   4.380  14.738  0.00  0.00    +0.000 C 
ATOM     15  C   UNL     1      45.942   5.003  13.819  0.00  0.00    +0.000 C 
ENDBRANCH  12  15
ENDBRANCH   1  12
BRANCH   6  16
ATOM     16  N   UNL     1      44.614   5.755  10.784  0.00  0.00    +0.000 N 
ATOM     17  H   UNL     1      43.658   5.491  11.006  0.00  0.00    +0.000 HD
BRANCH  16  18
ATOM     18  C   UNL     1      45.327   4.923   9.964  0.00  0.00    +0.000 C 
ATOM     19  C   UNL     1      44.822   3.949   9.197  0.00  0.00    +0.000 C 
BRANCH  19  20
ATOM     20  C   UNL     1      45.671   3.213   8.261  0.00  0.00    +0.000 A 
ATOM     21  C   UNL     1      46.275   3.852   7.174  0.00  0.00    +0.000 A 
ATOM     22  C   UNL     1      47.042   3.118   6.265  0.00  0.00    +0.000 A 
ATOM     23  C   UNL     1      47.206   1.742   6.439  0.00  0.00    +0.000 A 
ATOM     24  C   UNL     1      46.610   1.109   7.528  0.00  0.00    +0.000 A 
ATOM     25 CL   UNL     1      46.809  -0.587   7.744  0.00  0.00    +0.000 Cl
ATOM     26  C   UNL     1      45.846   1.835   8.439  0.00  0.00    +0.000 A 
ENDBRANCH  19  20
ENDBRANCH  16  18
ENDBRANCH   6  16
TORSDOF 6
ENDMDL
MODEL 7
REMARK VINA RESULT:    -6.297      3.741      7.614
REMARK INTER + INTRA:          -9.145
REMARK INTER:                  -8.609
REMARK INTRA:                  -0.537
REMARK UNBOUND:                -0.640
REMARK  Name = 
REMARK  7 active torsions:
REMARK  status: ('A' for Active; 'I' for Inactive)
REMARK    1  A    between atoms: C_1  and  C_2
REMARK    2  A    between atoms: C_2  and  N_3
REMARK    3  A    between atoms: N_3  and  C_4
REMARK    4  A    between atoms: C_7  and  C_8
REMARK    5  A    between atoms: C_12  and  N_13
REMARK    6  A    between atoms: N_13  and  C_14
REMARK    7  A    between atoms: C_15  and  C_16
REMARK                            x       y       z     vdW  Elec       q    Type
REMARK                         _______ _______ _______ _____ _____    ______ ____
ROOT
ATOM      1  C   UNL     1      45.035   4.244  11.697  0.00  0.00    +0.000 A 
ATOM      2  N   UNL     1      44.492   5.176  10.884  0.00  0.00    +0.000 NA
ATOM      3  C   UNL     1      44.618   6.478  11.240  0.00  0.00    +0.000 A 
ATOM      4  C   UNL     1      45.274   6.915  12.378  0.00  0.00    +0.000 A 
ATOM      5  C   UNL     1      45.814   5.940  13.220  0.00  0.00    +0.000 A 
ATOM      6  C   UNL     1      45.674   4.581  12.918  0.00  0.00    +0.000 A 
ENDROOT
BRANCH   4   7
ATOM      7  C   UNL     1      45.435   8.344  12.745  0.00  0.00    +0.000 C 
ATOM      8  N   UNL     1      44.536   9.262  12.269  0.00  0.00    +0.000 N 
ATOM      9  O   UNL     1      46.356   8.715  13.457  0.00  0.00    +0.000 OA
ATOM     10  H   UNL     1      43.749   9.076  11.669  0.00  0.00    +0.000 HD
ATOM     11  H   UNL     1      44.697  10.225  12.539  0.00  0.00    +0.000 HD
ENDBRANCH   4   7
BRANCH   1  12
ATOM     12  N   UNL     1      44.946   2.867  11.351  0.00  0.00    +0.000 N 
ATOM     13  H   UNL     1      45.899   2.518  11.290  0.00  0.00    +0.000 HD
BRANCH  12  15
ATOM     14  C   UNL     1      45.253   2.100   9.063  0.00  0.00    +0.000 C 
ATOM     15  C   UNL     1      44.260   2.646  10.078  0.00  0.00    +0.000 C 
ENDBRANCH  12  15
ENDBRANCH   1  12
BRANCH   6  16
ATOM     16  N   UNL     1      46.248   3.565  13.714  0.00  0.00    +0.000 N 
ATOM     17  H   UNL     1      45.801   2.657  13.617  0.00  0.00    +0.000 HD
BRANCH  16  18
ATOM     18  C   UNL     1      47.302   3.661  14.582  0.00  0.00    +0.000 C 
ATOM     19  C   UNL     1      47.229   3.984  15.879  0.00  0.00    +0.000 C 
BRANCH  19  20
ATOM     20  C   UNL     1      48.412   3.924  16.737  0.00  0.00    +0.000 A 
ATOM     21  C   UNL     1      48.798   5.020  17.515  0.00  0.00    +0.000 A 
ATOM     22  C   UNL     1      49.960   4.956  18.289  0.00  0.00    +0.000 A 
ATOM     23  C   UNL     1      50.740   3.798  18.287  0.00  0.00    +0.000 A 
ATOM     24  C   UNL     1      50.348   2.704  17.517  0.00  0.00    +0.000 A 
ATOM     25 CL   UNL     1      51.308   1.276  17.510  0.00  0.00    +0.000 Cl
ATOM     26  C   UNL     1      49.190   2.760  16.745  0.00  0.00    +0.000 A 
ENDBRANCH  19  20
ENDBRANCH  16  18
ENDBRANCH   6  16
TORSDOF 6
ENDMDL
MODEL 8
REMARK VINA RESULT:    -6.153      4.008      7.578
REMARK INTER + INTRA:          -8.951
REMARK INTER:                  -8.514
REMARK INTRA:                  -0.437
REMARK UNBOUND:                -0.640
REMARK  Name = 
REMARK  7 active torsions:
REMARK  status: ('A' for Active; 'I' for Inactive)
REMARK    1  A    between atoms: C_1  and  C_2
REMARK    2  A    between atoms: C_2  and  N_3
REMARK    3  A    between atoms: N_3  and  C_4
REMARK    4  A    between atoms: C_7  and  C_8
REMARK    5  A    between atoms: C_12  and  N_13
REMARK    6  A    between atoms: N_13  and  C_14
REMARK    7  A    between atoms: C_15  and  C_16
REMARK                            x       y       z     vdW  Elec       q    Type
REMARK                         _______ _______ _______ _____ _____    ______ ____
ROOT
ATOM      1  C   UNL     1      46.116   6.092  12.814  0.00  0.00    +0.000 A 
ATOM      2  N   UNL     1      45.839   6.366  11.520  0.00  0.00    +0.000 NA
ATOM      3  C   UNL     1      45.296   5.379  10.767  0.00  0.00    +0.000 A 
ATOM      4  C   UNL     1      44.998   4.112  11.238  0.00  0.00    +0.000 A 
ATOM      5  C   UNL     1      45.307   3.836  12.573  0.00  0.00    +0.000 A 
ATOM      6  C   UNL     1      45.908   4.809  13.380  0.00  0.00    +0.000 A 
ENDROOT
BRANCH   4   7
ATOM      7  C   UNL     1      44.374   3.045  10.415  0.00  0.00    +0.000 C 
ATOM      8  N   UNL     1      43.661   2.054  11.036  0.00  0.00    +0.000 N 
ATOM      9  O   UNL     1      44.492   3.034   9.199  0.00  0.00    +0.000 OA
ATOM     10  H   UNL     1      43.506   1.955  12.026  0.00  0.00    +0.000 HD
ATOM     11  H   UNL     1      43.265   1.345  10.431  0.00  0.00    +0.000 HD
ENDBRANCH   4   7
BRANCH   1  12
ATOM     12  N   UNL     1      46.666   7.105  13.648  0.00  0.00    +0.000 N 
ATOM     13  H   UNL     1      45.918   7.768  13.836  0.00  0.00    +0.000 HD
BRANCH  12  15
ATOM     14  C   UNL     1      49.093   7.188  13.527  0.00  0.00    +0.000 C 
ATOM     15  C   UNL     1      47.794   7.800  13.028  0.00  0.00    +0.000 C 
ENDBRANCH  12  15
ENDBRANCH   1  12
BRANCH   6  16
ATOM     16  N   UNL     1      46.190   4.589  14.747  0.00  0.00    +0.000 N 
ATOM     17  H   UNL     1      45.365   4.466  15.328  0.00  0.00    +0.000 HD
BRANCH  16  18
ATOM     18  C   UNL     1      47.412   4.531  15.362  0.00  0.00    +0.000 C 
ATOM     19  C   UNL     1      47.666   3.991  16.562  0.00  0.00    +0.000 C 
BRANCH  19  20
ATOM     20  C   UNL     1      49.037   3.869  17.056  0.00  0.00    +0.000 A 
ATOM     21  C   UNL     1      49.763   4.994  17.461  0.00  0.00    +0.000 A 
ATOM     22  C   UNL     1      51.088   4.858  17.883  0.00  0.00    +0.000 A 
ATOM     23  C   UNL     1      51.692   3.600  17.901  0.00  0.00    +0.000 A 
ATOM     24  C   UNL     1      50.964   2.480  17.506  0.00  0.00    +0.000 A 
ATOM     25 CL   UNL     1      51.705   0.927  17.525  0.00  0.00    +0.000 Cl
ATOM     26  C   UNL     1      49.642   2.607  17.086  0.00  0.00    +0.000 A 
ENDBRANCH  19  20
ENDBRANCH  16  18
ENDBRANCH   6  16
TORSDOF 6
ENDMDL
MODEL 9
REMARK VINA RESULT:    -6.137      4.066      7.567
REMARK INTER + INTRA:          -8.929
REMARK INTER:                  -8.353
REMARK INTRA:                  -0.577
REMARK UNBOUND:                -0.640
REMARK  Name = 
REMARK  7 active torsions:
REMARK  status: ('A' for Active; 'I' for Inactive)
REMARK    1  A    between atoms: C_1  and  C_2
REMARK    2  A    between atoms: C_2  and  N_3
REMARK    3  A    between atoms: N_3  and  C_4
REMARK    4  A    between atoms: C_7  and  C_8
REMARK    5  A    between atoms: C_12  and  N_13
REMARK    6  A    between atoms: N_13  and  C_14
REMARK    7  A    between atoms: C_15  and  C_16
REMARK                            x       y       z     vdW  Elec       q    Type
REMARK                         _______ _______ _______ _____ _____    ______ ____
ROOT
ATOM      1  C   UNL     1      46.441   4.854  13.887  0.00  0.00    +0.000 A 
ATOM      2  N   UNL     1      46.210   3.541  13.671  0.00  0.00    +0.000 NA
ATOM      3  C   UNL     1      45.540   3.193  12.544  0.00  0.00    +0.000 A 
ATOM      4  C   UNL     1      45.086   4.096  11.598  0.00  0.00    +0.000 A 
ATOM      5  C   UNL     1      45.315   5.452  11.843  0.00  0.00    +0.000 A 
ATOM      6  C   UNL     1      45.965   5.864  13.013  0.00  0.00    +0.000 A 
ENDROOT
BRANCH   4   7
ATOM      7  C   UNL     1      44.381   3.706  10.351  0.00  0.00    +0.000 C 
ATOM      8  N   UNL     1      44.422   2.399   9.941  0.00  0.00    +0.000 N 
ATOM      9  O   UNL     1      43.773   4.529   9.683  0.00  0.00    +0.000 OA
ATOM     10  H   UNL     1      44.897   1.641  10.401  0.00  0.00    +0.000 HD
ATOM     11  H   UNL     1      43.934   2.188   9.078  0.00  0.00    +0.000 HD
ENDBRANCH   4   7
BRANCH   1  12
ATOM     12  N   UNL     1      47.160   5.262  15.045  0.00  0.00    +0.000 N 
ATOM     13  H   UNL     1      48.057   5.616  14.724  0.00  0.00    +0.000 HD
BRANCH  12  15
ATOM     14  C   UNL     1      48.199   4.679  17.165  0.00  0.00    +0.000 C 
ATOM     15  C   UNL     1      47.373   4.170  15.994  0.00  0.00    +0.000 C 
ENDBRANCH  12  15
ENDBRANCH   1  12
BRANCH   6  16
ATOM     16  N   UNL     1      46.262   7.220  13.277  0.00  0.00    +0.000 N 
ATOM     17  H   UNL     1      47.109   7.362  13.819  0.00  0.00    +0.000 HD
BRANCH  16  18
ATOM     18  C   UNL     1      45.556   8.331  12.902  0.00  0.00    +0.000 C 
ATOM     19  C   UNL     1      45.972   9.281  12.055  0.00  0.00    +0.000 C 
BRANCH  19  20
ATOM     20  C   UNL     1      45.074  10.354  11.629  0.00  0.00    +0.000 A 
ATOM     21  C   UNL     1      45.459  11.696  11.712  0.00  0.00    +0.000 A 
ATOM     22  C   UNL     1      44.566  12.706  11.345  0.00  0.00    +0.000 A 
ATOM     23  C   UNL     1      43.285  12.379  10.895  0.00  0.00    +0.000 A 
ATOM     24  C   UNL     1      42.907  11.040  10.804  0.00  0.00    +0.000 A 
ATOM     25 CL   UNL     1      41.329  10.633  10.252  0.00  0.00    +0.000 Cl
ATOM     26  C   UNL     1      43.793  10.028  11.167  0.00  0.00    +0.000 A 
ENDBRANCH  19  20
ENDBRANCH  16  18
ENDBRANCH   6  16
TORSDOF 6
ENDMDL
