MODEL 1
REMARK VINA RESULT:    -8.016      0.000      0.000
REMARK INTER + INTRA:         -11.656
REMARK INTER:                 -10.827
REMARK INTRA:                  -0.829
REMARK UNBOUND:                -0.829
REMARK  Name = 
REMARK  8 active torsions:
REMARK  status: ('A' for Active; 'I' for Inactive)
REMARK    1  A    between atoms: C_1  and  C_2
REMARK    2  A    between atoms: C_6  and  C_7
REMARK    3  A    between atoms: C_7  and  N_8
REMARK    4  A    between atoms: N_8  and  C_9
REMARK    5  A    between atoms: C_12  and  C_13
REMARK    6  A    between atoms: C_13  and  N_14
REMARK    7  A    between atoms: C_15  and  C_17
REMARK    8  A    between atoms: C_29  and  C_30
REMARK                            x       y       z     vdW  Elec       q    Type
REMARK                         _______ _______ _______ _____ _____    ______ ____
ROOT
ATOM      1  C   UNL     1      44.962   5.007  10.814  0.00  0.00    +0.000 A 
ATOM      2  C   UNL     1      45.970   5.825  10.285  0.00  0.00    +0.000 A 
ATOM      3  C   UNL     1      46.604   6.801  11.073  0.00  0.00    +0.000 A 
ATOM      4  C   UNL     1      46.222   6.999  12.404  0.00  0.00    +0.000 A 
ATOM      5  C   UNL     1      45.146   6.260  12.901  0.00  0.00    +0.000 A 
ATOM      6  C   UNL     1      44.523   5.292  12.112  0.00  0.00    +0.000 A 
ENDROOT
BRANCH   1   7
ATOM      7  N   UNL     1      44.345   4.041   9.999  0.00  0.00    +0.000 N 
ATOM      8  H   UNL     1      43.387   3.860  10.276  0.00  0.00    +0.000 HD
BRANCH   7   9
ATOM      9  C   UNL     1      44.459   4.231   8.551  0.00  0.00    +0.000 C 
BRANCH   9  15
ATOM     10  C   UNL     1      46.779  -0.268   7.744  0.00  0.00    +0.000 C 
ATOM     11  C   UNL     1      46.691   1.230   7.601  0.00  0.00    +0.000 A 
ATOM     12  C   UNL     1      47.724   1.904   6.934  0.00  0.00    +0.000 A 
ATOM     13  C   UNL     1      47.680   3.285   6.771  0.00  0.00    +0.000 A 
ATOM     14  C   UNL     1      46.599   4.007   7.268  0.00  0.00    +0.000 A 
ATOM     15  C   UNL     1      45.549   3.366   7.951  0.00  0.00    +0.000 A 
ATOM     16  C   UNL     1      45.600   1.962   8.135  0.00  0.00    +0.000 A 
ATOM     17  C   UNL     1      44.530   1.221   8.902  0.00  0.00    +0.000 C 
ENDBRANCH   9  15
ENDBRANCH   7   9
ENDBRANCH   1   7
BRANCH   4  18
ATOM     18  C   UNL     1      46.920   7.987  13.296  0.00  0.00    +0.000 C 
BRANCH  18  19
ATOM     19  N   UNL     1      47.378   7.386  14.522  0.00  0.00    +0.000 N 
ATOM     20  C   UNL     1      48.614   6.791  14.576  0.00  0.00    +0.000 C 
ATOM     21  O   UNL     1      49.376   6.793  13.613  0.00  0.00    +0.000 OA
ATOM     22  H   UNL     1      46.684   7.172  15.231  0.00  0.00    +0.000 HD
BRANCH  20  23
ATOM     23  C   UNL     1      49.013   6.201  15.858  0.00  0.00    +0.000 A 
ATOM     24  C   UNL     1      50.081   6.749  16.559  0.00  0.00    +0.000 A 
ATOM     25  S   UNL     1      50.398   5.972  18.042  0.00  0.00    +0.000 S 
ATOM     26  C   UNL     1      49.152   4.844  17.778  0.00  0.00    +0.000 A 
ATOM     27  N   UNL     1      48.905   3.854  18.678  0.00  0.00    +0.000 NA
ATOM     28  C   UNL     1      47.951   3.054  18.340  0.00  0.00    +0.000 A 
ATOM     29  N   UNL     1      47.216   3.158  17.187  0.00  0.00    +0.000 N 
ATOM     30  C   UNL     1      47.410   4.158  16.263  0.00  0.00    +0.000 A 
ATOM     31  O   UNL     1      46.708   4.248  15.261  0.00  0.00    +0.000 OA
ATOM     32  C   UNL     1      48.483   5.076  16.586  0.00  0.00    +0.000 A 
ATOM     33  H   UNL     1      46.471   2.505  16.990  0.00  0.00    +0.000 HD
ENDBRANCH  20  23
ENDBRANCH  18  19
ENDBRANCH   4  18
TORSDOF 6
ENDMDL
MODEL 2
REMARK VINA RESULT:    -7.918      1.867      3.154
REMARK INTER + INTRA:         -11.524
REMARK INTER:                 -10.173
REMARK INTRA:                  -1.351
REMARK UNBOUND:                -0.829
REMARK  Name = 
REMARK  8 active torsions:
REMARK  status: ('A' for Active; 'I' for Inactive)
REMARK    1  A    between atoms: C_1  and  C_2
REMARK    2  A    between atoms: C_6  and  C_7
REMARK    3  A    between atoms: C_7  and  N_8
REMARK    4  A    between atoms: N_8  and  C_9
REMARK    5  A    between atoms: C_12  and  C_13
REMARK    6  A    between atoms: C_13  and  N_14
REMARK    7  A    between atoms: C_15  and  C_17
REMARK    8  A    between atoms: C_29  and  C_30
REMARK                            x       y       z     vdW  Elec       q    Type
REMARK                         _______ _______ _______ _____ _____    ______ ____
ROOT
ATOM      1  C   UNL     1      45.667   5.256  11.061  0.00  0.00    +0.000 A 
ATOM      2  C   UNL     1      46.506   6.120  11.777  0.00  0.00    +0.000 A 
ATOM      3  C   UNL     1      46.908   5.824  13.090  0.00  0.00    +0.000 A 
ATOM      4  C   UNL     1      46.454   4.664  13.728  0.00  0.00    +0.000 A 
ATOM      5  C   UNL     1      45.533   3.857  13.057  0.00  0.00    +0.000 A 
ATOM      6  C   UNL     1      45.140   4.159  11.752  0.00  0.00    +0.000 A 
ENDROOT
BRANCH   1   7
ATOM      7  N   UNL     1      45.280   5.583   9.748  0.00  0.00    +0.000 N 
ATOM      8  H   UNL     1      46.035   6.006   9.219  0.00  0.00    +0.000 HD
BRANCH   7   9
ATOM      9  C   UNL     1      44.610   4.532   8.979  0.00  0.00    +0.000 C 
BRANCH   9  15
ATOM     10  C   UNL     1      46.661   0.013   7.696  0.00  0.00    +0.000 C 
ATOM     11  C   UNL     1      46.618   1.518   7.644  0.00  0.00    +0.000 A 
ATOM     12  C   UNL     1      47.603   2.196   6.910  0.00  0.00    +0.000 A 
ATOM     13  C   UNL     1      47.596   3.584   6.827  0.00  0.00    +0.000 A 
ATOM     14  C   UNL     1      46.599   4.311   7.471  0.00  0.00    +0.000 A 
ATOM     15  C   UNL     1      45.600   3.666   8.224  0.00  0.00    +0.000 A 
ATOM     16  C   UNL     1      45.615   2.253   8.326  0.00  0.00    +0.000 A 
ATOM     17  C   UNL     1      44.601   1.505   9.158  0.00  0.00    +0.000 C 
ENDBRANCH   9  15
ENDBRANCH   7   9
ENDBRANCH   1   7
BRANCH   4  18
ATOM     18  C   UNL     1      46.913   4.280  15.106  0.00  0.00    +0.000 C 
BRANCH  18  19
ATOM     19  N   UNL     1      47.570   5.366  15.786  0.00  0.00    +0.000 N 
ATOM     20  C   UNL     1      48.610   5.112  16.644  0.00  0.00    +0.000 C 
ATOM     21  O   UNL     1      49.041   3.974  16.821  0.00  0.00    +0.000 OA
ATOM     22  H   UNL     1      47.083   6.256  15.833  0.00  0.00    +0.000 HD
BRANCH  20  23
ATOM     23  C   UNL     1      49.230   6.268  17.300  0.00  0.00    +0.000 A 
ATOM     24  C   UNL     1      49.149   6.394  18.681  0.00  0.00    +0.000 A 
ATOM     25  S   UNL     1      49.944   7.772  19.292  0.00  0.00    +0.000 S 
ATOM     26  C   UNL     1      50.384   8.276  17.727  0.00  0.00    +0.000 A 
ATOM     27  N   UNL     1      51.074   9.432  17.536  0.00  0.00    +0.000 NA
ATOM     28  C   UNL     1      51.317   9.708  16.298  0.00  0.00    +0.000 A 
ATOM     29  N   UNL     1      50.940   8.928  15.236  0.00  0.00    +0.000 N 
ATOM     30  C   UNL     1      50.266   7.737  15.383  0.00  0.00    +0.000 A 
ATOM     31  O   UNL     1      49.979   7.042  14.415  0.00  0.00    +0.000 OA
ATOM     32  C   UNL     1      49.953   7.388  16.754  0.00  0.00    +0.000 A 
ATOM     33  H   UNL     1      51.176   9.195  14.291  0.00  0.00    +0.000 HD
ENDBRANCH  20  23
ENDBRANCH  18  19
ENDBRANCH   4  18
TORSDOF 6
ENDMDL
MODEL 3
REMARK VINA RESULT:    -7.692      2.073      2.539
REMARK INTER + INTRA:         -11.219
REMARK INTER:                 -10.390
REMARK INTRA:                  -0.829
REMARK UNBOUND:                -0.829
REMARK  Name = 
REMARK  8 active torsions:
REMARK  status: ('A' for Active; 'I' for Inactive)
REMARK    1  A    between atoms: C_1  and  C_2
REMARK    2  A    between atoms: C_6  and  C_7
REMARK    3  A    between atoms: C_7  and  N_8
REMARK    4  A    between atoms: N_8  and  C_9
REMARK    5  A    between atoms: C_12  and  C_13
REMARK    6  A    between atoms: C_13  and  N_14
REMARK    7  A    between atoms: C_15  and  C_17
REMARK    8  A    between atoms: C_29  and  C_30
REMARK                            x       y       z     vdW  Elec       q    Type
REMARK                         _______ _______ _______ _____ _____    ______ ____
ROOT
ATOM      1  C   UNL     1      45.237   4.767  11.336  0.00  0.00    +0.000 A 
ATOM      2  C   UNL     1      45.678   4.251  12.562  0.00  0.00    +0.000 A 
ATOM      3  C   UNL     1      46.570   4.969  13.377  0.00  0.00    +0.000 A 
ATOM      4  C   UNL     1      47.064   6.212  12.966  0.00  0.00    +0.000 A 
ATOM      5  C   UNL     1      46.711   6.679  11.698  0.00  0.00    +0.000 A 
ATOM      6  C   UNL     1      45.823   5.959  10.896  0.00  0.00    +0.000 A 
ENDROOT
BRANCH   1   7
ATOM      7  N   UNL     1      44.345   4.022  10.543  0.00  0.00    +0.000 N 
ATOM      8  H   UNL     1      43.414   3.985  10.943  0.00  0.00    +0.000 HD
BRANCH   7   9
ATOM      9  C   UNL     1      44.303   4.350   9.116  0.00  0.00    +0.000 C 
BRANCH   9  15
ATOM     10  C   UNL     1      46.744   0.088   7.651  0.00  0.00    +0.000 C 
ATOM     11  C   UNL     1      46.573   1.584   7.669  0.00  0.00    +0.000 A 
ATOM     12  C   UNL     1      47.503   2.378   6.980  0.00  0.00    +0.000 A 
ATOM     13  C   UNL     1      47.378   3.762   6.962  0.00  0.00    +0.000 A 
ATOM     14  C   UNL     1      46.317   4.371   7.626  0.00  0.00    +0.000 A 
ATOM     15  C   UNL     1      45.369   3.609   8.335  0.00  0.00    +0.000 A 
ATOM     16  C   UNL     1      45.505   2.199   8.371  0.00  0.00    +0.000 A 
ATOM     17  C   UNL     1      44.550   1.328   9.154  0.00  0.00    +0.000 C 
ENDBRANCH   9  15
ENDBRANCH   7   9
ENDBRANCH   1   7
BRANCH   4  18
ATOM     18  C   UNL     1      47.968   7.039  13.837  0.00  0.00    +0.000 C 
BRANCH  18  19
ATOM     19  N   UNL     1      47.875   6.670  15.225  0.00  0.00    +0.000 N 
ATOM     20  C   UNL     1      49.013   6.396  15.942  0.00  0.00    +0.000 C 
ATOM     21  O   UNL     1      50.132   6.501  15.445  0.00  0.00    +0.000 OA
ATOM     22  H   UNL     1      46.973   6.356  15.571  0.00  0.00    +0.000 HD
BRANCH  20  23
ATOM     23  C   UNL     1      48.840   6.028  17.351  0.00  0.00    +0.000 A 
ATOM     24  C   UNL     1      49.141   4.735  17.760  0.00  0.00    +0.000 A 
ATOM     25  S   UNL     1      48.919   4.475  19.430  0.00  0.00    +0.000 S 
ATOM     26  C   UNL     1      48.365   6.068  19.657  0.00  0.00    +0.000 A 
ATOM     27  N   UNL     1      47.968   6.499  20.884  0.00  0.00    +0.000 NA
ATOM     28  C   UNL     1      47.546   7.719  20.909  0.00  0.00    +0.000 A 
ATOM     29  N   UNL     1      47.492   8.548  19.818  0.00  0.00    +0.000 N 
ATOM     30  C   UNL     1      47.909   8.165  18.564  0.00  0.00    +0.000 A 
ATOM     31  O   UNL     1      47.886   8.944  17.618  0.00  0.00    +0.000 OA
ATOM     32  C   UNL     1      48.377   6.796  18.478  0.00  0.00    +0.000 A 
ATOM     33  H   UNL     1      47.164   9.499  19.910  0.00  0.00    +0.000 HD
ENDBRANCH  20  23
ENDBRANCH  18  19
ENDBRANCH   4  18
TORSDOF 6
ENDMDL
MODEL 4
REMARK VINA RESULT:    -7.657      1.963      2.241
REMARK INTER + INTRA:         -11.172
REMARK INTER:                 -10.368
REMARK INTRA:                  -0.804
REMARK UNBOUND:                -0.829
REMARK  Name = 
REMARK  8 active torsions:
REMARK  status: ('A' for Active; 'I' for Inactive)
REMARK    1  A    between atoms: C_1  and  C_2
REMARK    2  A    between atoms: C_6  and  C_7
REMARK    3  A    between atoms: C_7  and  N_8
REMARK    4  A    between atoms: N_8  and  C_9
REMARK    5  A    between atoms: C_12  and  C_13
REMARK    6  A    between atoms: C_13  and  N_14
REMARK    7  A    between atoms: C_15  and  C_17
REMARK    8  A    between atoms: C_29  and  C_30
REMARK                            x       y       z     vdW  Elec       q    Type
REMARK                         _______ _______ _______ _____ _____    ______ ____
ROOT
ATOM      1  C   UNL     1      45.213   4.567  11.850  0.00  0.00    +0.000 A 
ATOM      2  C   UNL     1      45.431   5.940  11.674  0.00  0.00    +0.000 A 
ATOM      3  C   UNL     1      46.446   6.613  12.376  0.00  0.00    +0.000 A 
ATOM      4  C   UNL     1      47.250   5.928  13.294  0.00  0.00    +0.000 A 
ATOM      5  C   UNL     1      46.965   4.585  13.551  0.00  0.00    +0.000 A 
ATOM      6  C   UNL     1      45.955   3.925  12.848  0.00  0.00    +0.000 A 
ENDROOT
BRANCH   1   7
ATOM      7  N   UNL     1      44.188   3.923  11.134  0.00  0.00    +0.000 N 
ATOM      8  H   UNL     1      43.312   3.909  11.645  0.00  0.00    +0.000 HD
BRANCH   7   9
ATOM      9  C   UNL     1      43.991   4.345   9.745  0.00  0.00    +0.000 C 
BRANCH   9  15
ATOM     10  C   UNL     1      46.653   0.519   7.611  0.00  0.00    +0.000 C 
ATOM     11  C   UNL     1      46.380   1.982   7.846  0.00  0.00    +0.000 A 
ATOM     12  C   UNL     1      47.223   2.930   7.246  0.00  0.00    +0.000 A 
ATOM     13  C   UNL     1      47.003   4.291   7.428  0.00  0.00    +0.000 A 
ATOM     14  C   UNL     1      45.932   4.722   8.206  0.00  0.00    +0.000 A 
ATOM     15  C   UNL     1      45.071   3.800   8.832  0.00  0.00    +0.000 A 
ATOM     16  C   UNL     1      45.304   2.413   8.663  0.00  0.00    +0.000 A 
ATOM     17  C   UNL     1      44.447   1.374   9.347  0.00  0.00    +0.000 C 
ENDBRANCH   9  15
ENDBRANCH   7   9
ENDBRANCH   1   7
BRANCH   4  18
ATOM     18  C   UNL     1      48.386   6.597  14.015  0.00  0.00    +0.000 C 
BRANCH  18  19
ATOM     19  N   UNL     1      48.089   6.833  15.403  0.00  0.00    +0.000 N 
ATOM     20  C   UNL     1      48.992   6.473  16.372  0.00  0.00    +0.000 C 
ATOM     21  O   UNL     1      50.086   5.990  16.089  0.00  0.00    +0.000 OA
ATOM     22  H   UNL     1      47.120   7.003  15.656  0.00  0.00    +0.000 HD
BRANCH  20  23
ATOM     23  C   UNL     1      48.620   6.744  17.764  0.00  0.00    +0.000 A 
ATOM     24  C   UNL     1      48.271   8.036  18.138  0.00  0.00    +0.000 A 
ATOM     25  S   UNL     1      47.834   8.181  19.778  0.00  0.00    +0.000 S 
ATOM     26  C   UNL     1      48.143   6.532  20.061  0.00  0.00    +0.000 A 
ATOM     27  N   UNL     1      47.994   5.997  21.302  0.00  0.00    +0.000 NA
ATOM     28  C   UNL     1      48.288   4.742  21.380  0.00  0.00    +0.000 A 
ATOM     29  N   UNL     1      48.712   3.973  20.327  0.00  0.00    +0.000 N 
ATOM     30  C   UNL     1      48.850   4.463  19.049  0.00  0.00    +0.000 A 
ATOM     31  O   UNL     1      49.191   3.739  18.120  0.00  0.00    +0.000 OA
ATOM     32  C   UNL     1      48.548   5.874  18.909  0.00  0.00    +0.000 A 
ATOM     33  H   UNL     1      48.912   2.991  20.454  0.00  0.00    +0.000 HD
ENDBRANCH  20  23
ENDBRANCH  18  19
ENDBRANCH   4  18
TORSDOF 6
ENDMDL
MODEL 5
REMARK VINA RESULT:    -7.507      3.004      8.320
REMARK INTER + INTRA:         -10.969
REMARK INTER:                  -9.482
REMARK INTRA:                  -1.487
REMARK UNBOUND:                -0.829
REMARK  Name = 
REMARK  8 active torsions:
REMARK  status: ('A' for Active; 'I' for Inactive)
REMARK    1  A    between atoms: C_1  and  C_2
REMARK    2  A    between atoms: C_6  and  C_7
REMARK    3  A    between atoms: C_7  and  N_8
REMARK    4  A    between atoms: N_8  and  C_9
REMARK    5  A    between atoms: C_12  and  C_13
REMARK    6  A    between atoms: C_13  and  N_14
REMARK    7  A    between atoms: C_15  and  C_17
REMARK    8  A    between atoms: C_29  and  C_30
REMARK                            x       y       z     vdW  Elec       q    Type
REMARK                         _______ _______ _______ _____ _____    ______ ____
ROOT
ATOM      1  C   UNL     1      49.512   7.804  15.974  0.00  0.00    +0.000 A 
ATOM      2  C   UNL     1      48.419   8.648  15.738  0.00  0.00    +0.000 A 
ATOM      3  C   UNL     1      47.798   8.704  14.478  0.00  0.00    +0.000 A 
ATOM      4  C   UNL     1      48.278   7.932  13.415  0.00  0.00    +0.000 A 
ATOM      5  C   UNL     1      49.433   7.172  13.616  0.00  0.00    +0.000 A 
ATOM      6  C   UNL     1      50.042   7.122  14.871  0.00  0.00    +0.000 A 
ENDROOT
BRANCH   1   7
ATOM      7  N   UNL     1      50.113   7.773  17.245  0.00  0.00    +0.000 N 
ATOM      8  H   UNL     1      50.398   8.695  17.558  0.00  0.00    +0.000 HD
BRANCH   7   9
ATOM      9  C   UNL     1      49.392   7.049  18.295  0.00  0.00    +0.000 C 
BRANCH   9  15
ATOM     10  C   UNL     1      50.834   2.243  17.250  0.00  0.00    +0.000 C 
ATOM     11  C   UNL     1      49.795   3.329  17.350  0.00  0.00    +0.000 A 
ATOM     12  C   UNL     1      48.474   3.034  16.982  0.00  0.00    +0.000 A 
ATOM     13  C   UNL     1      47.480   4.003  17.068  0.00  0.00    +0.000 A 
ATOM     14  C   UNL     1      47.794   5.278  17.530  0.00  0.00    +0.000 A 
ATOM     15  C   UNL     1      49.110   5.613  17.899  0.00  0.00    +0.000 A 
ATOM     16  C   UNL     1      50.128   4.633  17.795  0.00  0.00    +0.000 A 
ATOM     17  C   UNL     1      51.568   4.944  18.129  0.00  0.00    +0.000 C 
ENDBRANCH   9  15
ENDBRANCH   7   9
ENDBRANCH   1   7
BRANCH   4  18
ATOM     18  C   UNL     1      47.603   7.914  12.073  0.00  0.00    +0.000 C 
BRANCH  18  19
ATOM     19  N   UNL     1      46.934   6.665  11.814  0.00  0.00    +0.000 N 
ATOM     20  C   UNL     1      45.580   6.557  12.007  0.00  0.00    +0.000 C 
ATOM     21  O   UNL     1      44.897   7.518  12.354  0.00  0.00    +0.000 OA
ATOM     22  H   UNL     1      47.505   5.827  11.762  0.00  0.00    +0.000 HD
BRANCH  20  23
ATOM     23  C   UNL     1      44.969   5.255  11.723  0.00  0.00    +0.000 A 
ATOM     24  C   UNL     1      44.278   4.591  12.729  0.00  0.00    +0.000 A 
ATOM     25  S   UNL     1      43.600   3.108  12.233  0.00  0.00    +0.000 S 
ATOM     26  C   UNL     1      44.248   3.276  10.668  0.00  0.00    +0.000 A 
ATOM     27  N   UNL     1      44.062   2.310   9.729  0.00  0.00    +0.000 NA
ATOM     28  C   UNL     1      44.630   2.553   8.596  0.00  0.00    +0.000 A 
ATOM     29  N   UNL     1      45.362   3.678   8.315  0.00  0.00    +0.000 N 
ATOM     30  C   UNL     1      45.553   4.693   9.223  0.00  0.00    +0.000 A 
ATOM     31  O   UNL     1      46.178   5.706   8.927  0.00  0.00    +0.000 OA
ATOM     32  C   UNL     1      44.949   4.463  10.520  0.00  0.00    +0.000 A 
ATOM     33  H   UNL     1      45.769   3.813   7.400  0.00  0.00    +0.000 HD
ENDBRANCH  20  23
ENDBRANCH  18  19
ENDBRANCH   4  18
TORSDOF 6
ENDMDL
MODEL 6
REMARK VINA RESULT:    -7.346      4.060     10.023
REMARK INTER + INTRA:         -10.752
REMARK INTER:                  -9.745
REMARK INTRA:                  -1.007
REMARK UNBOUND:                -0.829
REMARK  Name = 
REMARK  8 active torsions:
REMARK  status: ('A' for Active; 'I' for Inactive)
REMARK    1  A    between atoms: C_1  and  C_2
REMARK    2  A    between atoms: C_6  and  C_7
REMARK    3  A    between atoms: C_7  and  N_8
REMARK    4  A    between atoms: N_8  and  C_9
REMARK    5  A    between atoms: C_12  and  C_13
REMARK    6  A    between atoms: C_13  and  N_14
REMARK    7  A    between atoms: C_15  and  C_17
REMARK    8  A    between atoms: C_29  and  C_30
REMARK                            x       y       z     vdW  Elec       q    Type
REMARK                         _______ _______ _______ _____ _____    ______ ____
ROOT
ATOM      1  C   UNL     1      48.534   5.647  20.173  0.00  0.00    +0.000 A 
ATOM      2  C   UNL     1      49.430   4.730  19.608  0.00  0.00    +0.000 A 
ATOM      3  C   UNL     1      49.149   4.092  18.388  0.00  0.00    +0.000 A 
ATOM      4  C   UNL     1      47.946   4.339  17.718  0.00  0.00    +0.000 A 
ATOM      5  C   UNL     1      47.004   5.169  18.331  0.00  0.00    +0.000 A 
ATOM      6  C   UNL     1      47.293   5.799  19.543  0.00  0.00    +0.000 A 
ENDROOT
BRANCH   1   7
ATOM      7  N   UNL     1      48.844   6.267  21.397  0.00  0.00    +0.000 N 
ATOM      8  H   UNL     1      49.270   5.625  22.056  0.00  0.00    +0.000 HD
BRANCH   7   9
ATOM      9  C   UNL     1      49.581   7.531  21.325  0.00  0.00    +0.000 C 
BRANCH   9  15
ATOM     10  C   UNL     1      45.684  10.755  20.493  0.00  0.00    +0.000 C 
ATOM     11  C   UNL     1      46.961  10.075  20.074  0.00  0.00    +0.000 A 
ATOM     12  C   UNL     1      47.486  10.349  18.803  0.00  0.00    +0.000 A 
ATOM     13  C   UNL     1      48.667   9.750  18.378  0.00  0.00    +0.000 A 
ATOM     14  C   UNL     1      49.343   8.876  19.224  0.00  0.00    +0.000 A 
ATOM     15  C   UNL     1      48.843   8.570  20.504  0.00  0.00    +0.000 A 
ATOM     16  C   UNL     1      47.629   9.163  20.931  0.00  0.00    +0.000 A 
ATOM     17  C   UNL     1      47.014   8.838  22.272  0.00  0.00    +0.000 C 
ENDBRANCH   9  15
ENDBRANCH   7   9
ENDBRANCH   1   7
BRANCH   4  18
ATOM     18  C   UNL     1      47.637   3.727  16.380  0.00  0.00    +0.000 C 
BRANCH  18  19
ATOM     19  N   UNL     1      46.970   4.650  15.499  0.00  0.00    +0.000 N 
ATOM     20  C   UNL     1      46.807   4.339  14.172  0.00  0.00    +0.000 C 
ATOM     21  O   UNL     1      47.174   3.261  13.710  0.00  0.00    +0.000 OA
ATOM     22  H   UNL     1      46.880   5.614  15.806  0.00  0.00    +0.000 HD
BRANCH  20  23
ATOM     23  C   UNL     1      46.118   5.327  13.336  0.00  0.00    +0.000 A 
ATOM     24  C   UNL     1      46.751   6.526  13.034  0.00  0.00    +0.000 A 
ATOM     25  S   UNL     1      45.834   7.552  12.029  0.00  0.00    +0.000 S 
ATOM     26  C   UNL     1      44.536   6.452  12.001  0.00  0.00    +0.000 A 
ATOM     27  N   UNL     1      43.391   6.741  11.327  0.00  0.00    +0.000 NA
ATOM     28  C   UNL     1      42.479   5.832  11.412  0.00  0.00    +0.000 A 
ATOM     29  N   UNL     1      42.612   4.656  12.105  0.00  0.00    +0.000 N 
ATOM     30  C   UNL     1      43.760   4.308  12.777  0.00  0.00    +0.000 A 
ATOM     31  O   UNL     1      43.862   3.230  13.353  0.00  0.00    +0.000 OA
ATOM     32  C   UNL     1      44.812   5.304  12.728  0.00  0.00    +0.000 A 
ATOM     33  H   UNL     1      41.862   3.979  12.119  0.00  0.00    +0.000 HD
ENDBRANCH  20  23
ENDBRANCH  18  19
ENDBRANCH   4  18
TORSDOF 6
ENDMDL
MODEL 7
REMARK VINA RESULT:    -7.154      2.857      4.364
REMARK INTER + INTRA:         -10.493
REMARK INTER:                  -9.502
REMARK INTRA:                  -0.991
REMARK UNBOUND:                -0.829
REMARK  Name = 
REMARK  8 active torsions:
REMARK  status: ('A' for Active; 'I' for Inactive)
REMARK    1  A    between atoms: C_1  and  C_2
REMARK    2  A    between atoms: C_6  and  C_7
REMARK    3  A    between atoms: C_7  and  N_8
REMARK    4  A    between atoms: N_8  and  C_9
REMARK    5  A    between atoms: C_12  and  C_13
REMARK    6  A    between atoms: C_13  and  N_14
REMARK    7  A    between atoms: C_15  and  C_17
REMARK    8  A    between atoms: C_29  and  C_30
REMARK                            x       y       z     vdW  Elec       q    Type
REMARK                         _______ _______ _______ _____ _____    ______ ____
ROOT
ATOM      1  C   UNL     1      46.927   5.546  13.099  0.00  0.00    +0.000 A 
ATOM      2  C   UNL     1      46.561   4.205  13.281  0.00  0.00    +0.000 A 
ATOM      3  C   UNL     1      46.759   3.556  14.511  0.00  0.00    +0.000 A 
ATOM      4  C   UNL     1      47.354   4.230  15.583  0.00  0.00    +0.000 A 
ATOM      5  C   UNL     1      47.818   5.530  15.373  0.00  0.00    +0.000 A 
ATOM      6  C   UNL     1      47.617   6.168  14.147  0.00  0.00    +0.000 A 
ENDROOT
BRANCH   1   7
ATOM      7  N   UNL     1      46.719   6.167  11.854  0.00  0.00    +0.000 N 
ATOM      8  H   UNL     1      47.457   5.957  11.191  0.00  0.00    +0.000 HD
BRANCH   7   9
ATOM      9  C   UNL     1      45.394   6.002  11.251  0.00  0.00    +0.000 C 
BRANCH   9  15
ATOM     10  C   UNL     1      44.253   1.544   8.993  0.00  0.00    +0.000 C 
ATOM     11  C   UNL     1      44.925   2.892   9.013  0.00  0.00    +0.000 A 
ATOM     12  C   UNL     1      45.704   3.274   7.911  0.00  0.00    +0.000 A 
ATOM     13  C   UNL     1      46.336   4.512   7.884  0.00  0.00    +0.000 A 
ATOM     14  C   UNL     1      46.189   5.389   8.955  0.00  0.00    +0.000 A 
ATOM     15  C   UNL     1      45.422   5.037  10.082  0.00  0.00    +0.000 A 
ATOM     16  C   UNL     1      44.794   3.768  10.121  0.00  0.00    +0.000 A 
ATOM     17  C   UNL     1      43.998   3.311  11.321  0.00  0.00    +0.000 C 
ENDBRANCH   9  15
ENDBRANCH   7   9
ENDBRANCH   1   7
BRANCH   4  18
ATOM     18  C   UNL     1      47.523   3.591  16.933  0.00  0.00    +0.000 C 
BRANCH  18  19
ATOM     19  N   UNL     1      48.905   3.498  17.324  0.00  0.00    +0.000 N 
ATOM     20  C   UNL     1      49.679   2.458  16.873  0.00  0.00    +0.000 C 
ATOM     21  O   UNL     1      49.240   1.614  16.095  0.00  0.00    +0.000 OA
ATOM     22  H   UNL     1      49.204   4.036  18.132  0.00  0.00    +0.000 HD
BRANCH  20  23
ATOM     23  C   UNL     1      51.078   2.429  17.313  0.00  0.00    +0.000 A 
ATOM     24  C   UNL     1      51.668   1.213  17.634  0.00  0.00    +0.000 A 
ATOM     25  S   UNL     1      53.303   1.344  18.095  0.00  0.00    +0.000 S 
ATOM     26  C   UNL     1      53.268   3.038  17.932  0.00  0.00    +0.000 A 
ATOM     27  N   UNL     1      54.366   3.789  18.214  0.00  0.00    +0.000 NA
ATOM     28  C   UNL     1      54.192   5.060  18.073  0.00  0.00    +0.000 A 
ATOM     29  N   UNL     1      53.021   5.647  17.669  0.00  0.00    +0.000 N 
ATOM     30  C   UNL     1      51.894   4.928  17.345  0.00  0.00    +0.000 A 
ATOM     31  O   UNL     1      50.875   5.481  16.946  0.00  0.00    +0.000 OA
ATOM     32  C   UNL     1      52.031   3.494  17.502  0.00  0.00    +0.000 A 
ATOM     33  H   UNL     1      52.956   6.650  17.565  0.00  0.00    +0.000 HD
ENDBRANCH  20  23
ENDBRANCH  18  19
ENDBRANCH   4  18
TORSDOF 6
ENDMDL
MODEL 8
REMARK VINA RESULT:    -7.129      3.719      8.139
REMARK INTER + INTRA:         -10.459
REMARK INTER:                  -8.522
REMARK INTRA:                  -1.937
REMARK UNBOUND:                -0.829
REMARK  Name = 
REMARK  8 active torsions:
REMARK  status: ('A' for Active; 'I' for Inactive)
REMARK    1  A    between atoms: C_1  and  C_2
REMARK    2  A    between atoms: C_6  and  C_7
REMARK    3  A    between atoms: C_7  and  N_8
REMARK    4  A    between atoms: N_8  and  C_9
REMARK    5  A    between atoms: C_12  and  C_13
REMARK    6  A    between atoms: C_13  and  N_14
REMARK    7  A    between atoms: C_15  and  C_17
REMARK    8  A    between atoms: C_29  and  C_30
REMARK                            x       y       z     vdW  Elec       q    Type
REMARK                         _______ _______ _______ _____ _____    ______ ____
ROOT
ATOM      1  C   UNL     1      50.913   7.288  17.618  0.00  0.00    +0.000 A 
ATOM      2  C   UNL     1      50.152   8.375  18.070  0.00  0.00    +0.000 A 
ATOM      3  C   UNL     1      49.262   9.047  17.214  0.00  0.00    +0.000 A 
ATOM      4  C   UNL     1      49.135   8.662  15.876  0.00  0.00    +0.000 A 
ATOM      5  C   UNL     1      49.970   7.651  15.395  0.00  0.00    +0.000 A 
ATOM      6  C   UNL     1      50.851   6.988  16.252  0.00  0.00    +0.000 A 
ENDROOT
BRANCH   1   7
ATOM      7  N   UNL     1      51.796   6.638  18.498  0.00  0.00    +0.000 N 
ATOM      8  H   UNL     1      52.353   7.292  19.038  0.00  0.00    +0.000 HD
BRANCH   7   9
ATOM      9  C   UNL     1      51.225   5.591  19.348  0.00  0.00    +0.000 C 
BRANCH   9  15
ATOM     10  C   UNL     1      47.259   2.944  17.465  0.00  0.00    +0.000 C 
ATOM     11  C   UNL     1      48.735   3.167  17.667  0.00  0.00    +0.000 A 
ATOM     12  C   UNL     1      49.637   2.234  17.133  0.00  0.00    +0.000 A 
ATOM     13  C   UNL     1      51.008   2.404  17.288  0.00  0.00    +0.000 A 
ATOM     14  C   UNL     1      51.496   3.513  17.973  0.00  0.00    +0.000 A 
ATOM     15  C   UNL     1      50.622   4.466  18.530  0.00  0.00    +0.000 A 
ATOM     16  C   UNL     1      49.223   4.285  18.391  0.00  0.00    +0.000 A 
ATOM     17  C   UNL     1      48.232   5.243  19.007  0.00  0.00    +0.000 C 
ENDBRANCH   9  15
ENDBRANCH   7   9
ENDBRANCH   1   7
BRANCH   4  18
ATOM     18  C   UNL     1      48.148   9.313  14.948  0.00  0.00    +0.000 C 
BRANCH  18  19
ATOM     19  N   UNL     1      47.205   8.371  14.406  0.00  0.00    +0.000 N 
ATOM     20  C   UNL     1      47.108   8.196  13.048  0.00  0.00    +0.000 C 
ATOM     21  O   UNL     1      47.844   8.793  12.265  0.00  0.00    +0.000 OA
ATOM     22  H   UNL     1      46.449   8.060  15.009  0.00  0.00    +0.000 HD
BRANCH  20  23
ATOM     23  C   UNL     1      46.125   7.219  12.570  0.00  0.00    +0.000 A 
ATOM     24  C   UNL     1      45.033   7.655  11.830  0.00  0.00    +0.000 A 
ATOM     25  S   UNL     1      44.002   6.397  11.322  0.00  0.00    +0.000 S 
ATOM     26  C   UNL     1      44.951   5.228  12.116  0.00  0.00    +0.000 A 
ATOM     27  N   UNL     1      44.596   3.916  12.102  0.00  0.00    +0.000 NA
ATOM     28  C   UNL     1      45.389   3.143  12.766  0.00  0.00    +0.000 A 
ATOM     29  N   UNL     1      46.509   3.564  13.436  0.00  0.00    +0.000 N 
ATOM     30  C   UNL     1      46.922   4.876  13.453  0.00  0.00    +0.000 A 
ATOM     31  O   UNL     1      47.952   5.214  14.027  0.00  0.00    +0.000 OA
ATOM     32  C   UNL     1      46.056   5.790  12.736  0.00  0.00    +0.000 A 
ATOM     33  H   UNL     1      47.096   2.903  13.925  0.00  0.00    +0.000 HD
ENDBRANCH  20  23
ENDBRANCH  18  19
ENDBRANCH   4  18
TORSDOF 6
ENDMDL
MODEL 9
REMARK VINA RESULT:    -6.946      3.968      9.870
REMARK INTER + INTRA:         -10.212
REMARK INTER:                  -8.831
REMARK INTRA:                  -1.382
REMARK UNBOUND:                -0.829
REMARK  Name = 
REMARK  8 active torsions:
REMARK  status: ('A' for Active; 'I' for Inactive)
REMARK    1  A    between atoms: C_1  and  C_2
REMARK    2  A    between atoms: C_6  and  C_7
REMARK    3  A    between atoms: C_7  and  N_8
REMARK    4  A    between atoms: N_8  and  C_9
REMARK    5  A    between atoms: C_12  and  C_13
REMARK    6  A    between atoms: C_13  and  N_14
REMARK    7  A    between atoms: C_15  and  C_17
REMARK    8  A    between atoms: C_29  and  C_30
REMARK                            x       y       z     vdW  Elec       q    Type
REMARK                         _______ _______ _______ _____ _____    ______ ____
ROOT
ATOM      1  C   UNL     1      49.420   5.557  19.756  0.00  0.00    +0.000 A 
ATOM      2  C   UNL     1      48.988   4.228  19.861  0.00  0.00    +0.000 A 
ATOM      3  C   UNL     1      48.344   3.584  18.791  0.00  0.00    +0.000 A 
ATOM      4  C   UNL     1      48.093   4.268  17.597  0.00  0.00    +0.000 A 
ATOM      5  C   UNL     1      48.425   5.623  17.527  0.00  0.00    +0.000 A 
ATOM      6  C   UNL     1      49.065   6.254  18.594  0.00  0.00    +0.000 A 
ENDROOT
BRANCH   1   7
ATOM      7  N   UNL     1      50.060   6.175  20.846  0.00  0.00    +0.000 N 
ATOM      8  H   UNL     1      49.989   5.625  21.695  0.00  0.00    +0.000 HD
BRANCH   7   9
ATOM      9  C   UNL     1      51.429   6.646  20.624  0.00  0.00    +0.000 C 
BRANCH   9  15
ATOM     10  C   UNL     1      54.411   3.546  17.836  0.00  0.00    +0.000 C 
ATOM     11  C   UNL     1      53.791   3.979  19.139  0.00  0.00    +0.000 A 
ATOM     12  C   UNL     1      54.061   3.232  20.295  0.00  0.00    +0.000 A 
ATOM     13  C   UNL     1      53.517   3.600  21.521  0.00  0.00    +0.000 A 
ATOM     14  C   UNL     1      52.703   4.726  21.608  0.00  0.00    +0.000 A 
ATOM     15  C   UNL     1      52.403   5.495  20.468  0.00  0.00    +0.000 A 
ATOM     16  C   UNL     1      52.940   5.111  19.214  0.00  0.00    +0.000 A 
ATOM     17  C   UNL     1      52.617   5.866  17.946  0.00  0.00    +0.000 C 
ENDBRANCH   9  15
ENDBRANCH   7   9
ENDBRANCH   1   7
BRANCH   4  18
ATOM     18  C   UNL     1      47.467   3.595  16.408  0.00  0.00    +0.000 C 
BRANCH  18  19
ATOM     19  N   UNL     1      46.789   4.528  15.546  0.00  0.00    +0.000 N 
ATOM     20  C   UNL     1      46.824   4.359  14.185  0.00  0.00    +0.000 C 
ATOM     21  O   UNL     1      47.384   3.395  13.667  0.00  0.00    +0.000 OA
ATOM     22  H   UNL     1      46.536   5.432  15.936  0.00  0.00    +0.000 HD
BRANCH  20  23
ATOM     23  C   UNL     1      46.111   5.349  13.372  0.00  0.00    +0.000 A 
ATOM     24  C   UNL     1      46.695   6.587  13.136  0.00  0.00    +0.000 A 
ATOM     25  S   UNL     1      45.757   7.612  12.149  0.00  0.00    +0.000 S 
ATOM     26  C   UNL     1      44.513   6.456  12.042  0.00  0.00    +0.000 A 
ATOM     27  N   UNL     1      43.373   6.721  11.350  0.00  0.00    +0.000 NA
ATOM     28  C   UNL     1      42.503   5.768  11.373  0.00  0.00    +0.000 A 
ATOM     29  N   UNL     1      42.673   4.572  12.020  0.00  0.00    +0.000 N 
ATOM     30  C   UNL     1      43.819   4.248  12.708  0.00  0.00    +0.000 A 
ATOM     31  O   UNL     1      43.956   3.153  13.242  0.00  0.00    +0.000 OA
ATOM     32  C   UNL     1      44.824   5.292  12.728  0.00  0.00    +0.000 A 
ATOM     33  H   UNL     1      41.955   3.861  11.986  0.00  0.00    +0.000 HD
ENDBRANCH  20  23
ENDBRANCH  18  19
ENDBRANCH   4  18
TORSDOF 6
ENDMDL
