MODEL 1
REMARK VINA RESULT:    -8.630      0.000      0.000
REMARK INTER + INTRA:         -13.467
REMARK INTER:                 -12.414
REMARK INTRA:                  -1.053
REMARK UNBOUND:                -1.053
REMARK  Name = 
REMARK  8 active torsions:
REMARK  status: ('A' for Active; 'I' for Inactive)
REMARK    1  A    between atoms: N_1  and  C_2
REMARK    2  A    between atoms: C_2  and  N_3
REMARK    3  A    between atoms: C_2  and  C_11
REMARK    4  A    between atoms: N_3  and  C_4
REMARK    5  A    between atoms: C_4  and  C_5
REMARK    6  A    between atoms: C_14  and  C_15
REMARK    7  A    between atoms: C_15  and  N_16
REMARK    8  A    between atoms: C_17  and  C_19
REMARK                            x       y       z     vdW  Elec       q    Type
REMARK                         _______ _______ _______ _____ _____    ______ ____
ROOT
ATOM      1  C   UNL     1      44.962   5.306  11.657  0.00  0.00    +0.000 A 
ATOM      2  C   UNL     1      45.863   6.242  11.114  0.00  0.00    +0.000 A 
ATOM      3  C   UNL     1      46.980   6.673  11.836  0.00  0.00    +0.000 A 
ATOM      4  C   UNL     1      47.245   6.144  13.103  0.00  0.00    +0.000 A 
ATOM      5  C   UNL     1      46.344   5.225  13.655  0.00  0.00    +0.000 A 
ATOM      6  C   UNL     1      45.218   4.812  12.943  0.00  0.00    +0.000 A 
ENDROOT
BRANCH   1   7
ATOM      7  C   UNL     1      43.697   4.954  10.889  0.00  0.00    +0.000 C 
BRANCH   7   8
ATOM      8  N   UNL     1      42.825   6.091  10.691  0.00  0.00    +0.000 NA
ATOM      9  H   UNL     1      42.515   6.058   9.722  0.00  0.00    +0.000 HD
ATOM     10  H   UNL     1      43.390   6.933  10.746  0.00  0.00    +0.000 HD
ENDBRANCH   7   8
BRANCH   7  11
ATOM     11  N   UNL     1      43.956   4.487   9.543  0.00  0.00    +0.000 NA
ATOM     12  H   UNL     1      44.723   5.032   9.157  0.00  0.00    +0.000 HD
BRANCH  11  13
ATOM     13  C   UNL     1      44.383   3.081   9.533  0.00  0.00    +0.000 C 
BRANCH  13  14
ATOM     14  C   UNL     1      45.435   2.770   8.496  0.00  0.00    +0.000 A 
ATOM     15  C   UNL     1      45.941   3.814   7.698  0.00  0.00    +0.000 A 
ATOM     16  C   UNL     1      46.977   3.584   6.797  0.00  0.00    +0.000 A 
ATOM     17  C   UNL     1      47.525   2.312   6.677  0.00  0.00    +0.000 A 
ATOM     18  C   UNL     1      47.028   1.265   7.451  0.00  0.00    +0.000 A 
ATOM     19  C   UNL     1      45.991   1.497   8.361  0.00  0.00    +0.000 A 
ENDBRANCH  13  14
ENDBRANCH  11  13
ENDBRANCH   7  11
ENDBRANCH   1   7
BRANCH   4  20
ATOM     20  C   UNL     1      48.461   6.560  13.886  0.00  0.00    +0.000 C 
BRANCH  20  21
ATOM     21  N   UNL     1      48.150   6.770  15.276  0.00  0.00    +0.000 N 
ATOM     22  C   UNL     1      49.091   6.545  16.246  0.00  0.00    +0.000 C 
ATOM     23  O   UNL     1      50.239   6.201  15.974  0.00  0.00    +0.000 OA
ATOM     24  H   UNL     1      47.166   6.787  15.532  0.00  0.00    +0.000 HD
BRANCH  22  25
ATOM     25  C   UNL     1      48.677   6.806  17.628  0.00  0.00    +0.000 A 
ATOM     26  C   UNL     1      48.295   8.088  18.001  0.00  0.00    +0.000 A 
ATOM     27  S   UNL     1      47.789   8.205  19.625  0.00  0.00    +0.000 S 
ATOM     28  C   UNL     1      48.119   6.558  19.903  0.00  0.00    +0.000 A 
ATOM     29  N   UNL     1      47.926   6.003  21.129  0.00  0.00    +0.000 NA
ATOM     30  C   UNL     1      48.245   4.755  21.206  0.00  0.00    +0.000 A 
ATOM     31  N   UNL     1      48.732   4.007  20.165  0.00  0.00    +0.000 N 
ATOM     32  C   UNL     1      48.915   4.517  18.900  0.00  0.00    +0.000 A 
ATOM     33  O   UNL     1      49.306   3.805  17.980  0.00  0.00    +0.000 OA
ATOM     34  C   UNL     1      48.585   5.923  18.765  0.00  0.00    +0.000 A 
ATOM     35  H   UNL     1      48.952   3.029  20.288  0.00  0.00    +0.000 HD
ENDBRANCH  22  25
ENDBRANCH  20  21
ENDBRANCH   4  20
TORSDOF 8
ENDMDL
MODEL 2
REMARK VINA RESULT:    -8.341      1.349      2.174
REMARK INTER + INTRA:         -13.051
REMARK INTER:                 -11.821
REMARK INTRA:                  -1.230
REMARK UNBOUND:                -1.053
REMARK  Name = 
REMARK  8 active torsions:
REMARK  status: ('A' for Active; 'I' for Inactive)
REMARK    1  A    between atoms: N_1  and  C_2
REMARK    2  A    between atoms: C_2  and  N_3
REMARK    3  A    between atoms: C_2  and  C_11
REMARK    4  A    between atoms: N_3  and  C_4
REMARK    5  A    between atoms: C_4  and  C_5
REMARK    6  A    between atoms: C_14  and  C_15
REMARK    7  A    between atoms: C_15  and  N_16
REMARK    8  A    between atoms: C_17  and  C_19
REMARK                            x       y       z     vdW  Elec       q    Type
REMARK                         _______ _______ _______ _____ _____    ______ ____
ROOT
ATOM      1  C   UNL     1      44.717   5.712  11.963  0.00  0.00    +0.000 A 
ATOM      2  C   UNL     1      45.551   6.790  11.607  0.00  0.00    +0.000 A 
ATOM      3  C   UNL     1      46.716   7.071  12.327  0.00  0.00    +0.000 A 
ATOM      4  C   UNL     1      47.097   6.252  13.395  0.00  0.00    +0.000 A 
ATOM      5  C   UNL     1      46.264   5.189  13.764  0.00  0.00    +0.000 A 
ATOM      6  C   UNL     1      45.090   4.922  13.058  0.00  0.00    +0.000 A 
ENDROOT
BRANCH   1   7
ATOM      7  C   UNL     1      43.399   5.513  11.230  0.00  0.00    +0.000 C 
BRANCH   7   8
ATOM      8  N   UNL     1      42.691   6.754  11.000  0.00  0.00    +0.000 NA
ATOM      9  H   UNL     1      43.373   7.503  11.094  0.00  0.00    +0.000 HD
ATOM     10  H   UNL     1      42.049   6.897  11.774  0.00  0.00    +0.000 HD
ENDBRANCH   7   8
BRANCH   7  11
ATOM     11  N   UNL     1      43.562   4.964   9.900  0.00  0.00    +0.000 NA
ATOM     12  H   UNL     1      44.310   5.470   9.434  0.00  0.00    +0.000 HD
BRANCH  11  13
ATOM     13  C   UNL     1      43.964   3.552   9.945  0.00  0.00    +0.000 C 
BRANCH  13  14
ATOM     14  C   UNL     1      45.093   3.208   9.005  0.00  0.00    +0.000 A 
ATOM     15  C   UNL     1      45.471   1.859   8.853  0.00  0.00    +0.000 A 
ATOM     16  C   UNL     1      46.444   1.493   7.926  0.00  0.00    +0.000 A 
ATOM     17  C   UNL     1      47.054   2.463   7.138  0.00  0.00    +0.000 A 
ATOM     18  C   UNL     1      46.700   3.802   7.285  0.00  0.00    +0.000 A 
ATOM     19  C   UNL     1      45.718   4.171   8.210  0.00  0.00    +0.000 A 
ENDBRANCH  13  14
ENDBRANCH  11  13
ENDBRANCH   7  11
ENDBRANCH   1   7
BRANCH   4  20
ATOM     20  C   UNL     1      48.366   6.507  14.162  0.00  0.00    +0.000 C 
BRANCH  20  21
ATOM     21  N   UNL     1      48.170   6.346  15.579  0.00  0.00    +0.000 N 
ATOM     22  C   UNL     1      49.240   6.186  16.420  0.00  0.00    +0.000 C 
ATOM     23  O   UNL     1      50.399   6.216  16.015  0.00  0.00    +0.000 OA
ATOM     24  H   UNL     1      47.247   6.053  15.888  0.00  0.00    +0.000 HD
BRANCH  22  25
ATOM     25  C   UNL     1      48.932   6.047  17.847  0.00  0.00    +0.000 A 
ATOM     26  C   UNL     1      49.188   4.844  18.492  0.00  0.00    +0.000 A 
ATOM     27  S   UNL     1      48.825   4.872  20.158  0.00  0.00    +0.000 S 
ATOM     28  C   UNL     1      48.258   6.474  20.063  0.00  0.00    +0.000 A 
ATOM     29  N   UNL     1      47.765   7.108  21.160  0.00  0.00    +0.000 NA
ATOM     30  C   UNL     1      47.342   8.307  20.939  0.00  0.00    +0.000 A 
ATOM     31  N   UNL     1      47.376   8.935  19.720  0.00  0.00    +0.000 N 
ATOM     32  C   UNL     1      47.893   8.345  18.589  0.00  0.00    +0.000 A 
ATOM     33  O   UNL     1      47.953   8.956  17.527  0.00  0.00    +0.000 OA
ATOM     34  C   UNL     1      48.367   6.988  18.783  0.00  0.00    +0.000 A 
ATOM     35  H   UNL     1      47.040   9.881  19.616  0.00  0.00    +0.000 HD
ENDBRANCH  22  25
ENDBRANCH  20  21
ENDBRANCH   4  20
TORSDOF 8
ENDMDL
MODEL 3
REMARK VINA RESULT:    -7.501      1.455      2.151
REMARK INTER + INTRA:         -11.842
REMARK INTER:                 -11.001
REMARK INTRA:                  -0.841
REMARK UNBOUND:                -1.053
REMARK  Name = 
REMARK  8 active torsions:
REMARK  status: ('A' for Active; 'I' for Inactive)
REMARK    1  A    between atoms: N_1  and  C_2
REMARK    2  A    between atoms: C_2  and  N_3
REMARK    3  A    between atoms: C_2  and  C_11
REMARK    4  A    between atoms: N_3  and  C_4
REMARK    5  A    between atoms: C_4  and  C_5
REMARK    6  A    between atoms: C_14  and  C_15
REMARK    7  A    between atoms: C_15  and  N_16
REMARK    8  A    between atoms: C_17  and  C_19
REMARK                            x       y       z     vdW  Elec       q    Type
REMARK                         _______ _______ _______ _____ _____    ______ ____
ROOT
ATOM      1  C   UNL     1      45.125   5.524  11.604  0.00  0.00    +0.000 A 
ATOM      2  C   UNL     1      45.344   5.131  12.939  0.00  0.00    +0.000 A 
ATOM      3  C   UNL     1      46.447   5.601  13.659  0.00  0.00    +0.000 A 
ATOM      4  C   UNL     1      47.333   6.511  13.073  0.00  0.00    +0.000 A 
ATOM      5  C   UNL     1      47.129   6.893  11.741  0.00  0.00    +0.000 A 
ATOM      6  C   UNL     1      46.041   6.406  11.016  0.00  0.00    +0.000 A 
ENDROOT
BRANCH   1   7
ATOM      7  C   UNL     1      43.983   4.898  10.819  0.00  0.00    +0.000 C 
BRANCH   7   8
ATOM      8  N   UNL     1      42.849   5.785  10.671  0.00  0.00    +0.000 NA
ATOM      9  H   UNL     1      42.024   5.255  10.947  0.00  0.00    +0.000 HD
ATOM     10  H   UNL     1      42.716   5.961   9.680  0.00  0.00    +0.000 HD
ENDBRANCH   7   8
BRANCH   7  11
ATOM     11  N   UNL     1      44.338   4.573   9.453  0.00  0.00    +0.000 NA
ATOM     12  H   UNL     1      45.240   4.995   9.248  0.00  0.00    +0.000 HD
BRANCH  11  13
ATOM     13  C   UNL     1      44.491   3.124   9.266  0.00  0.00    +0.000 C 
BRANCH  13  14
ATOM     14  C   UNL     1      45.564   2.746   8.274  0.00  0.00    +0.000 A 
ATOM     15  C   UNL     1      46.108   1.448   8.314  0.00  0.00    +0.000 A 
ATOM     16  C   UNL     1      47.030   1.032   7.357  0.00  0.00    +0.000 A 
ATOM     17  C   UNL     1      47.423   1.902   6.346  0.00  0.00    +0.000 A 
ATOM     18  C   UNL     1      46.903   3.193   6.299  0.00  0.00    +0.000 A 
ATOM     19  C   UNL     1      45.971   3.609   7.255  0.00  0.00    +0.000 A 
ENDBRANCH  13  14
ENDBRANCH  11  13
ENDBRANCH   7  11
ENDBRANCH   1   7
BRANCH   4  20
ATOM     20  C   UNL     1      48.505   7.064  13.837  0.00  0.00    +0.000 C 
BRANCH  20  21
ATOM     21  N   UNL     1      48.744   6.325  15.049  0.00  0.00    +0.000 N 
ATOM     22  C   UNL     1      49.160   6.963  16.189  0.00  0.00    +0.000 C 
ATOM     23  O   UNL     1      49.302   8.182  16.238  0.00  0.00    +0.000 OA
ATOM     24  H   UNL     1      48.893   5.324  14.958  0.00  0.00    +0.000 HD
BRANCH  22  25
ATOM     25  C   UNL     1      49.358   6.121  17.371  0.00  0.00    +0.000 A 
ATOM     26  C   UNL     1      50.241   5.051  17.314  0.00  0.00    +0.000 A 
ATOM     27  S   UNL     1      50.395   4.211  18.790  0.00  0.00    +0.000 S 
ATOM     28  C   UNL     1      49.243   5.213  19.542  0.00  0.00    +0.000 A 
ATOM     29  N   UNL     1      48.881   5.012  20.837  0.00  0.00    +0.000 NA
ATOM     30  C   UNL     1      47.976   5.824  21.270  0.00  0.00    +0.000 A 
ATOM     31  N   UNL     1      47.406   6.826  20.528  0.00  0.00    +0.000 N 
ATOM     32  C   UNL     1      47.762   7.087  19.224  0.00  0.00    +0.000 A 
ATOM     33  O   UNL     1      47.266   8.024  18.607  0.00  0.00    +0.000 OA
ATOM     34  C   UNL     1      48.765   6.189  18.685  0.00  0.00    +0.000 A 
ATOM     35  H   UNL     1      46.710   7.438  20.931  0.00  0.00    +0.000 HD
ENDBRANCH  22  25
ENDBRANCH  20  21
ENDBRANCH   4  20
TORSDOF 8
ENDMDL
MODEL 4
REMARK VINA RESULT:    -7.459      3.104      3.820
REMARK INTER + INTRA:         -11.782
REMARK INTER:                 -10.713
REMARK INTRA:                  -1.069
REMARK UNBOUND:                -1.053
REMARK  Name = 
REMARK  8 active torsions:
REMARK  status: ('A' for Active; 'I' for Inactive)
REMARK    1  A    between atoms: N_1  and  C_2
REMARK    2  A    between atoms: C_2  and  N_3
REMARK    3  A    between atoms: C_2  and  C_11
REMARK    4  A    between atoms: N_3  and  C_4
REMARK    5  A    between atoms: C_4  and  C_5
REMARK    6  A    between atoms: C_14  and  C_15
REMARK    7  A    between atoms: C_15  and  N_16
REMARK    8  A    between atoms: C_17  and  C_19
REMARK                            x       y       z     vdW  Elec       q    Type
REMARK                         _______ _______ _______ _____ _____    ______ ____
ROOT
ATOM      1  C   UNL     1      46.647   4.596  13.622  0.00  0.00    +0.000 A 
ATOM      2  C   UNL     1      47.384   5.780  13.424  0.00  0.00    +0.000 A 
ATOM      3  C   UNL     1      48.104   6.367  14.469  0.00  0.00    +0.000 A 
ATOM      4  C   UNL     1      48.139   5.758  15.728  0.00  0.00    +0.000 A 
ATOM      5  C   UNL     1      47.395   4.590  15.936  0.00  0.00    +0.000 A 
ATOM      6  C   UNL     1      46.658   4.017  14.897  0.00  0.00    +0.000 A 
ENDROOT
BRANCH   1   7
ATOM      7  C   UNL     1      45.782   4.056  12.493  0.00  0.00    +0.000 C 
BRANCH   7   8
ATOM      8  N   UNL     1      44.530   3.501  12.961  0.00  0.00    +0.000 NA
ATOM      9  H   UNL     1      44.743   2.584  13.349  0.00  0.00    +0.000 HD
ATOM     10  H   UNL     1      43.953   3.303  12.149  0.00  0.00    +0.000 HD
ENDBRANCH   7   8
BRANCH   7  11
ATOM     11  N   UNL     1      45.369   5.076  11.552  0.00  0.00    +0.000 NA
ATOM     12  H   UNL     1      46.189   5.391  11.040  0.00  0.00    +0.000 HD
BRANCH  11  13
ATOM     13  C   UNL     1      44.425   4.543  10.560  0.00  0.00    +0.000 C 
BRANCH  13  14
ATOM     14  C   UNL     1      45.084   3.778   9.439  0.00  0.00    +0.000 A 
ATOM     15  C   UNL     1      45.765   4.490   8.432  0.00  0.00    +0.000 A 
ATOM     16  C   UNL     1      46.465   3.818   7.434  0.00  0.00    +0.000 A 
ATOM     17  C   UNL     1      46.497   2.427   7.422  0.00  0.00    +0.000 A 
ATOM     18  C   UNL     1      45.819   1.709   8.404  0.00  0.00    +0.000 A 
ATOM     19  C   UNL     1      45.121   2.383   9.411  0.00  0.00    +0.000 A 
ENDBRANCH  13  14
ENDBRANCH  11  13
ENDBRANCH   7  11
ENDBRANCH   1   7
BRANCH   4  20
ATOM     20  C   UNL     1      48.937   6.346  16.859  0.00  0.00    +0.000 C 
BRANCH  20  21
ATOM     21  N   UNL     1      49.923   5.419  17.349  0.00  0.00    +0.000 N 
ATOM     22  C   UNL     1      51.242   5.550  17.001  0.00  0.00    +0.000 C 
ATOM     23  O   UNL     1      51.642   6.477  16.301  0.00  0.00    +0.000 OA
ATOM     24  H   UNL     1      49.586   4.523  17.690  0.00  0.00    +0.000 HD
BRANCH  22  25
ATOM     25  C   UNL     1      52.166   4.564  17.568  0.00  0.00    +0.000 A 
ATOM     26  C   UNL     1      53.377   4.984  18.104  0.00  0.00    +0.000 A 
ATOM     27  S   UNL     1      54.305   3.718  18.772  0.00  0.00    +0.000 S 
ATOM     28  C   UNL     1      53.147   2.557  18.315  0.00  0.00    +0.000 A 
ATOM     29  N   UNL     1      53.344   1.236  18.571  0.00  0.00    +0.000 NA
ATOM     30  C   UNL     1      52.402   0.464  18.143  0.00  0.00    +0.000 A 
ATOM     31  N   UNL     1      51.275   0.894  17.490  0.00  0.00    +0.000 N 
ATOM     32  C   UNL     1      51.019   2.222  17.237  0.00  0.00    +0.000 A 
ATOM     33  O   UNL     1      49.976   2.574  16.694  0.00  0.00    +0.000 OA
ATOM     34  C   UNL     1      52.057   3.130  17.684  0.00  0.00    +0.000 A 
ATOM     35  H   UNL     1      50.568   0.238  17.191  0.00  0.00    +0.000 HD
ENDBRANCH  22  25
ENDBRANCH  20  21
ENDBRANCH   4  20
TORSDOF 8
ENDMDL
MODEL 5
REMARK VINA RESULT:    -7.455      4.211      6.109
REMARK INTER + INTRA:         -11.777
REMARK INTER:                 -10.860
REMARK INTRA:                  -0.916
REMARK UNBOUND:                -1.053
REMARK  Name = 
REMARK  8 active torsions:
REMARK  status: ('A' for Active; 'I' for Inactive)
REMARK    1  A    between atoms: N_1  and  C_2
REMARK    2  A    between atoms: C_2  and  N_3
REMARK    3  A    between atoms: C_2  and  C_11
REMARK    4  A    between atoms: N_3  and  C_4
REMARK    5  A    between atoms: C_4  and  C_5
REMARK    6  A    between atoms: C_14  and  C_15
REMARK    7  A    between atoms: C_15  and  N_16
REMARK    8  A    between atoms: C_17  and  C_19
REMARK                            x       y       z     vdW  Elec       q    Type
REMARK                         _______ _______ _______ _____ _____    ______ ____
ROOT
ATOM      1  C   UNL     1      45.046   3.971  12.159  0.00  0.00    +0.000 A 
ATOM      2  C   UNL     1      45.152   5.276  11.641  0.00  0.00    +0.000 A 
ATOM      3  C   UNL     1      46.157   6.147  12.075  0.00  0.00    +0.000 A 
ATOM      4  C   UNL     1      47.106   5.716  13.006  0.00  0.00    +0.000 A 
ATOM      5  C   UNL     1      46.997   4.425  13.537  0.00  0.00    +0.000 A 
ATOM      6  C   UNL     1      45.981   3.564  13.120  0.00  0.00    +0.000 A 
ENDROOT
BRANCH   1   7
ATOM      7  C   UNL     1      43.870   3.098  11.750  0.00  0.00    +0.000 C 
BRANCH   7   8
ATOM      8  N   UNL     1      42.689   3.865  11.418  0.00  0.00    +0.000 NA
ATOM      9  H   UNL     1      41.897   3.230  11.488  0.00  0.00    +0.000 HD
ATOM     10  H   UNL     1      42.736   4.102  10.431  0.00  0.00    +0.000 HD
ENDBRANCH   7   8
BRANCH   7  11
ATOM     11  N   UNL     1      44.120   2.326  10.550  0.00  0.00    +0.000 NA
ATOM     12  H   UNL     1      43.296   1.765  10.353  0.00  0.00    +0.000 HD
BRANCH  11  13
ATOM     13  C   UNL     1      44.336   3.195   9.386  0.00  0.00    +0.000 C 
BRANCH  13  14
ATOM     14  C   UNL     1      45.417   2.709   8.452  0.00  0.00    +0.000 A 
ATOM     15  C   UNL     1      46.101   3.643   7.650  0.00  0.00    +0.000 A 
ATOM     16  C   UNL     1      47.167   3.246   6.847  0.00  0.00    +0.000 A 
ATOM     17  C   UNL     1      47.568   1.914   6.831  0.00  0.00    +0.000 A 
ATOM     18  C   UNL     1      46.895   0.977   7.610  0.00  0.00    +0.000 A 
ATOM     19  C   UNL     1      45.828   1.375   8.422  0.00  0.00    +0.000 A 
ENDBRANCH  13  14
ENDBRANCH  11  13
ENDBRANCH   7  11
ENDBRANCH   1   7
BRANCH   4  20
ATOM     20  C   UNL     1      48.222   6.618  13.461  0.00  0.00    +0.000 C 
BRANCH  20  21
ATOM     21  N   UNL     1      48.247   7.847  12.713  0.00  0.00    +0.000 N 
ATOM     22  C   UNL     1      48.003   9.047  13.330  0.00  0.00    +0.000 C 
ATOM     23  O   UNL     1      47.800   9.130  14.538  0.00  0.00    +0.000 OA
ATOM     24  H   UNL     1      48.145   7.777  11.705  0.00  0.00    +0.000 HD
BRANCH  22  25
ATOM     25  C   UNL     1      48.071  10.240  12.481  0.00  0.00    +0.000 A 
ATOM     26  C   UNL     1      49.295  10.856  12.255  0.00  0.00    +0.000 A 
ATOM     27  S   UNL     1      49.203  12.194  11.201  0.00  0.00    +0.000 S 
ATOM     28  C   UNL     1      47.515  12.032  11.057  0.00  0.00    +0.000 A 
ATOM     29  N   UNL     1      46.792  12.901  10.300  0.00  0.00    +0.000 NA
ATOM     30  C   UNL     1      45.521  12.680  10.304  0.00  0.00    +0.000 A 
ATOM     31  N   UNL     1      44.906  11.664  10.989  0.00  0.00    +0.000 N 
ATOM     32  C   UNL     1      45.598  10.743  11.742  0.00  0.00    +0.000 A 
ATOM     33  O   UNL     1      45.019   9.817  12.301  0.00  0.00    +0.000 OA
ATOM     34  C   UNL     1      47.032  10.958  11.783  0.00  0.00    +0.000 A 
ATOM     35  H   UNL     1      43.905  11.537  10.940  0.00  0.00    +0.000 HD
ENDBRANCH  22  25
ENDBRANCH  20  21
ENDBRANCH   4  20
TORSDOF 8
ENDMDL
MODEL 6
REMARK VINA RESULT:    -7.396      4.087      5.811
REMARK INTER + INTRA:         -11.691
REMARK INTER:                 -10.510
REMARK INTRA:                  -1.181
REMARK UNBOUND:                -1.053
REMARK  Name = 
REMARK  8 active torsions:
REMARK  status: ('A' for Active; 'I' for Inactive)
REMARK    1  A    between atoms: N_1  and  C_2
REMARK    2  A    between atoms: C_2  and  N_3
REMARK    3  A    between atoms: C_2  and  C_11
REMARK    4  A    between atoms: N_3  and  C_4
REMARK    5  A    between atoms: C_4  and  C_5
REMARK    6  A    between atoms: C_14  and  C_15
REMARK    7  A    between atoms: C_15  and  N_16
REMARK    8  A    between atoms: C_17  and  C_19
REMARK                            x       y       z     vdW  Elec       q    Type
REMARK                         _______ _______ _______ _____ _____    ______ ____
ROOT
ATOM      1  C   UNL     1      44.802   3.830  12.274  0.00  0.00    +0.000 A 
ATOM      2  C   UNL     1      44.667   5.231  12.225  0.00  0.00    +0.000 A 
ATOM      3  C   UNL     1      45.644   6.071  12.768  0.00  0.00    +0.000 A 
ATOM      4  C   UNL     1      46.801   5.528  13.335  0.00  0.00    +0.000 A 
ATOM      5  C   UNL     1      46.934   4.135  13.401  0.00  0.00    +0.000 A 
ATOM      6  C   UNL     1      45.948   3.297  12.879  0.00  0.00    +0.000 A 
ENDROOT
BRANCH   1   7
ATOM      7  C   UNL     1      43.663   2.951  11.780  0.00  0.00    +0.000 C 
BRANCH   7   8
ATOM      8  N   UNL     1      42.458   3.701  11.493  0.00  0.00    +0.000 NA
ATOM      9  H   UNL     1      42.755   4.614  11.157  0.00  0.00    +0.000 HD
ATOM     10  H   UNL     1      41.992   3.894  12.374  0.00  0.00    +0.000 HD
ENDBRANCH   7   8
BRANCH   7  11
ATOM     11  N   UNL     1      43.955   2.287  10.527  0.00  0.00    +0.000 NA
ATOM     12  H   UNL     1      43.128   1.771  10.238  0.00  0.00    +0.000 HD
BRANCH  11  13
ATOM     13  C   UNL     1      44.251   3.254   9.461  0.00  0.00    +0.000 C 
BRANCH  13  14
ATOM     14  C   UNL     1      45.329   2.800   8.508  0.00  0.00    +0.000 A 
ATOM     15  C   UNL     1      45.953   3.751   7.677  0.00  0.00    +0.000 A 
ATOM     16  C   UNL     1      47.016   3.388   6.853  0.00  0.00    +0.000 A 
ATOM     17  C   UNL     1      47.472   2.074   6.844  0.00  0.00    +0.000 A 
ATOM     18  C   UNL     1      46.858   1.120   7.651  0.00  0.00    +0.000 A 
ATOM     19  C   UNL     1      45.795   1.484   8.484  0.00  0.00    +0.000 A 
ENDBRANCH  13  14
ENDBRANCH  11  13
ENDBRANCH   7  11
ENDBRANCH   1   7
BRANCH   4  20
ATOM     20  C   UNL     1      47.887   6.409  13.891  0.00  0.00    +0.000 C 
BRANCH  20  21
ATOM     21  N   UNL     1      48.243   7.457  12.970  0.00  0.00    +0.000 N 
ATOM     22  C   UNL     1      48.179   8.773  13.349  0.00  0.00    +0.000 C 
ATOM     23  O   UNL     1      47.863   9.109  14.487  0.00  0.00    +0.000 OA
ATOM     24  H   UNL     1      48.241   7.224  11.981  0.00  0.00    +0.000 HD
BRANCH  22  25
ATOM     25  C   UNL     1      48.578   9.760  12.342  0.00  0.00    +0.000 A 
ATOM     26  C   UNL     1      47.673  10.731  11.933  0.00  0.00    +0.000 A 
ATOM     27  S   UNL     1      48.317  11.832  10.801  0.00  0.00    +0.000 S 
ATOM     28  C   UNL     1      49.809  11.014  10.774  0.00  0.00    +0.000 A 
ATOM     29  N   UNL     1      50.822  11.434   9.969  0.00  0.00    +0.000 NA
ATOM     30  C   UNL     1      51.885  10.705  10.025  0.00  0.00    +0.000 A 
ATOM     31  N   UNL     1      52.032   9.597  10.820  0.00  0.00    +0.000 N 
ATOM     32  C   UNL     1      51.047   9.153  11.673  0.00  0.00    +0.000 A 
ATOM     33  O   UNL     1      51.233   8.187  12.407  0.00  0.00    +0.000 OA
ATOM     34  C   UNL     1      49.824   9.931  11.634  0.00  0.00    +0.000 A 
ATOM     35  H   UNL     1      52.897   9.076  10.827  0.00  0.00    +0.000 HD
ENDBRANCH  22  25
ENDBRANCH  20  21
ENDBRANCH   4  20
TORSDOF 8
ENDMDL
MODEL 7
REMARK VINA RESULT:    -7.207      3.451      8.664
REMARK INTER + INTRA:         -11.419
REMARK INTER:                  -9.103
REMARK INTRA:                  -2.316
REMARK UNBOUND:                -1.053
REMARK  Name = 
REMARK  8 active torsions:
REMARK  status: ('A' for Active; 'I' for Inactive)
REMARK    1  A    between atoms: N_1  and  C_2
REMARK    2  A    between atoms: C_2  and  N_3
REMARK    3  A    between atoms: C_2  and  C_11
REMARK    4  A    between atoms: N_3  and  C_4
REMARK    5  A    between atoms: C_4  and  C_5
REMARK    6  A    between atoms: C_14  and  C_15
REMARK    7  A    between atoms: C_15  and  N_16
REMARK    8  A    between atoms: C_17  and  C_19
REMARK                            x       y       z     vdW  Elec       q    Type
REMARK                         _______ _______ _______ _____ _____    ______ ____
ROOT
ATOM      1  C   UNL     1      49.965   6.734  18.721  0.00  0.00    +0.000 A 
ATOM      2  C   UNL     1      50.565   6.260  17.539  0.00  0.00    +0.000 A 
ATOM      3  C   UNL     1      50.110   6.670  16.282  0.00  0.00    +0.000 A 
ATOM      4  C   UNL     1      49.070   7.599  16.180  0.00  0.00    +0.000 A 
ATOM      5  C   UNL     1      48.458   8.062  17.351  0.00  0.00    +0.000 A 
ATOM      6  C   UNL     1      48.898   7.635  18.605  0.00  0.00    +0.000 A 
ENDROOT
BRANCH   1   7
ATOM      7  C   UNL     1      50.410   6.172  20.063  0.00  0.00    +0.000 C 
BRANCH   7   8
ATOM      8  N   UNL     1      49.604   6.648  21.167  0.00  0.00    +0.000 NA
ATOM      9  H   UNL     1      48.635   6.618  20.857  0.00  0.00    +0.000 HD
ATOM     10  H   UNL     1      49.798   7.637  21.293  0.00  0.00    +0.000 HD
ENDBRANCH   7   8
BRANCH   7  11
ATOM     11  N   UNL     1      50.285   4.732  20.150  0.00  0.00    +0.000 NA
ATOM     12  H   UNL     1      50.632   4.435  21.057  0.00  0.00    +0.000 HD
BRANCH  11  13
ATOM     13  C   UNL     1      48.881   4.307  20.068  0.00  0.00    +0.000 C 
BRANCH  13  14
ATOM     14  C   UNL     1      48.465   3.834  18.696  0.00  0.00    +0.000 A 
ATOM     15  C   UNL     1      47.362   4.443  18.066  0.00  0.00    +0.000 A 
ATOM     16  C   UNL     1      47.007   4.100  16.764  0.00  0.00    +0.000 A 
ATOM     17  C   UNL     1      47.743   3.145  16.071  0.00  0.00    +0.000 A 
ATOM     18  C   UNL     1      48.829   2.526  16.684  0.00  0.00    +0.000 A 
ATOM     19  C   UNL     1      49.192   2.875  17.989  0.00  0.00    +0.000 A 
ENDBRANCH  13  14
ENDBRANCH  11  13
ENDBRANCH   7  11
ENDBRANCH   1   7
BRANCH   4  20
ATOM     20  C   UNL     1      48.587   8.089  14.842  0.00  0.00    +0.000 C 
BRANCH  20  21
ATOM     21  N   UNL     1      47.521   7.268  14.331  0.00  0.00    +0.000 N 
ATOM     22  C   UNL     1      47.759   6.342  13.348  0.00  0.00    +0.000 C 
ATOM     23  O   UNL     1      48.884   6.145  12.898  0.00  0.00    +0.000 OA
ATOM     24  H   UNL     1      46.571   7.594  14.487  0.00  0.00    +0.000 HD
BRANCH  22  25
ATOM     25  C   UNL     1      46.608   5.546  12.911  0.00  0.00    +0.000 A 
ATOM     26  C   UNL     1      46.640   4.164  13.037  0.00  0.00    +0.000 A 
ATOM     27  S   UNL     1      45.201   3.398  12.536  0.00  0.00    +0.000 S 
ATOM     28  C   UNL     1      44.507   4.883  12.078  0.00  0.00    +0.000 A 
ATOM     29  N   UNL     1      43.263   4.935  11.532  0.00  0.00    +0.000 NA
ATOM     30  C   UNL     1      42.873   6.120  11.203  0.00  0.00    +0.000 A 
ATOM     31  N   UNL     1      43.612   7.262  11.379  0.00  0.00    +0.000 N 
ATOM     32  C   UNL     1      44.862   7.263  11.954  0.00  0.00    +0.000 A 
ATOM     33  O   UNL     1      45.473   8.311  12.141  0.00  0.00    +0.000 OA
ATOM     34  C   UNL     1      45.352   5.950  12.327  0.00  0.00    +0.000 A 
ATOM     35  H   UNL     1      43.243   8.164  11.111  0.00  0.00    +0.000 HD
ENDBRANCH  22  25
ENDBRANCH  20  21
ENDBRANCH   4  20
TORSDOF 8
ENDMDL
MODEL 8
REMARK VINA RESULT:    -7.183      3.368      9.091
REMARK INTER + INTRA:         -11.385
REMARK INTER:                  -9.561
REMARK INTRA:                  -1.824
REMARK UNBOUND:                -1.053
REMARK  Name = 
REMARK  8 active torsions:
REMARK  status: ('A' for Active; 'I' for Inactive)
REMARK    1  A    between atoms: N_1  and  C_2
REMARK    2  A    between atoms: C_2  and  N_3
REMARK    3  A    between atoms: C_2  and  C_11
REMARK    4  A    between atoms: N_3  and  C_4
REMARK    5  A    between atoms: C_4  and  C_5
REMARK    6  A    between atoms: C_14  and  C_15
REMARK    7  A    between atoms: C_15  and  N_16
REMARK    8  A    between atoms: C_17  and  C_19
REMARK                            x       y       z     vdW  Elec       q    Type
REMARK                         _______ _______ _______ _____ _____    ______ ____
ROOT
ATOM      1  C   UNL     1      48.865   7.825  16.224  0.00  0.00    +0.000 A 
ATOM      2  C   UNL     1      48.360   8.990  15.615  0.00  0.00    +0.000 A 
ATOM      3  C   UNL     1      47.916   8.979  14.289  0.00  0.00    +0.000 A 
ATOM      4  C   UNL     1      47.927   7.789  13.554  0.00  0.00    +0.000 A 
ATOM      5  C   UNL     1      48.444   6.631  14.148  0.00  0.00    +0.000 A 
ATOM      6  C   UNL     1      48.907   6.648  15.464  0.00  0.00    +0.000 A 
ENDROOT
BRANCH   1   7
ATOM      7  C   UNL     1      49.448   7.906  17.626  0.00  0.00    +0.000 C 
BRANCH   7   8
ATOM      8  N   UNL     1      49.872   9.244  17.982  0.00  0.00    +0.000 NA
ATOM      9  H   UNL     1      50.611   9.143  18.675  0.00  0.00    +0.000 HD
ATOM     10  H   UNL     1      49.112   9.690  18.486  0.00  0.00    +0.000 HD
ENDBRANCH   7   8
BRANCH   7  11
ATOM     11  N   UNL     1      48.495   7.567  18.662  0.00  0.00    +0.000 NA
ATOM     12  H   UNL     1      47.602   7.362  18.222  0.00  0.00    +0.000 HD
BRANCH  11  13
ATOM     13  C   UNL     1      48.900   6.357  19.391  0.00  0.00    +0.000 C 
BRANCH  13  14
ATOM     14  C   UNL     1      48.690   5.079  18.617  0.00  0.00    +0.000 A 
ATOM     15  C   UNL     1      47.406   4.784  18.117  0.00  0.00    +0.000 A 
ATOM     16  C   UNL     1      47.193   3.663  17.319  0.00  0.00    +0.000 A 
ATOM     17  C   UNL     1      48.253   2.819  17.007  0.00  0.00    +0.000 A 
ATOM     18  C   UNL     1      49.526   3.091  17.503  0.00  0.00    +0.000 A 
ATOM     19  C   UNL     1      49.743   4.220  18.299  0.00  0.00    +0.000 A 
ENDBRANCH  13  14
ENDBRANCH  11  13
ENDBRANCH   7  11
ENDBRANCH   1   7
BRANCH   4  20
ATOM     20  C   UNL     1      47.419   7.739  12.139  0.00  0.00    +0.000 C 
BRANCH  20  21
ATOM     21  N   UNL     1      46.770   6.486  11.853  0.00  0.00    +0.000 N 
ATOM     22  C   UNL     1      45.402   6.394  11.836  0.00  0.00    +0.000 C 
ATOM     23  O   UNL     1      44.680   7.371  12.017  0.00  0.00    +0.000 OA
ATOM     24  H   UNL     1      47.323   5.642  11.969  0.00  0.00    +0.000 HD
BRANCH  22  25
ATOM     25  C   UNL     1      44.843   5.077  11.517  0.00  0.00    +0.000 A 
ATOM     26  C   UNL     1      44.101   4.395  12.473  0.00  0.00    +0.000 A 
ATOM     27  S   UNL     1      43.477   2.907  11.921  0.00  0.00    +0.000 S 
ATOM     28  C   UNL     1      44.225   3.096  10.404  0.00  0.00    +0.000 A 
ATOM     29  N   UNL     1      44.111   2.139   9.444  0.00  0.00    +0.000 NA
ATOM     30  C   UNL     1      44.753   2.396   8.355  0.00  0.00    +0.000 A 
ATOM     31  N   UNL     1      45.493   3.530   8.133  0.00  0.00    +0.000 N 
ATOM     32  C   UNL     1      45.612   4.538   9.062  0.00  0.00    +0.000 A 
ATOM     33  O   UNL     1      46.242   5.561   8.809  0.00  0.00    +0.000 OA
ATOM     34  C   UNL     1      44.921   4.288  10.312  0.00  0.00    +0.000 A 
ATOM     35  H   UNL     1      45.962   3.677   7.251  0.00  0.00    +0.000 HD
ENDBRANCH  22  25
ENDBRANCH  20  21
ENDBRANCH   4  20
TORSDOF 8
ENDMDL
MODEL 9
REMARK VINA RESULT:    -7.133      3.431      9.247
REMARK INTER + INTRA:         -11.314
REMARK INTER:                  -9.279
REMARK INTRA:                  -2.035
REMARK UNBOUND:                -1.053
REMARK  Name = 
REMARK  8 active torsions:
REMARK  status: ('A' for Active; 'I' for Inactive)
REMARK    1  A    between atoms: N_1  and  C_2
REMARK    2  A    between atoms: C_2  and  N_3
REMARK    3  A    between atoms: C_2  and  C_11
REMARK    4  A    between atoms: N_3  and  C_4
REMARK    5  A    between atoms: C_4  and  C_5
REMARK    6  A    between atoms: C_14  and  C_15
REMARK    7  A    between atoms: C_15  and  N_16
REMARK    8  A    between atoms: C_17  and  C_19
REMARK                            x       y       z     vdW  Elec       q    Type
REMARK                         _______ _______ _______ _____ _____    ______ ____
ROOT
ATOM      1  C   UNL     1      48.342   5.574  18.998  0.00  0.00    +0.000 A 
ATOM      2  C   UNL     1      48.614   6.872  18.524  0.00  0.00    +0.000 A 
ATOM      3  C   UNL     1      48.683   7.141  17.154  0.00  0.00    +0.000 A 
ATOM      4  C   UNL     1      48.438   6.126  16.224  0.00  0.00    +0.000 A 
ATOM      5  C   UNL     1      48.183   4.829  16.689  0.00  0.00    +0.000 A 
ATOM      6  C   UNL     1      48.137   4.557  18.057  0.00  0.00    +0.000 A 
ENDROOT
BRANCH   1   7
ATOM      7  C   UNL     1      48.394   5.297  20.493  0.00  0.00    +0.000 C 
BRANCH   7   8
ATOM      8  N   UNL     1      48.453   3.885  20.802  0.00  0.00    +0.000 NA
ATOM      9  H   UNL     1      47.889   3.408  20.102  0.00  0.00    +0.000 HD
ATOM     10  H   UNL     1      47.955   3.734  21.674  0.00  0.00    +0.000 HD
ENDBRANCH   7   8
BRANCH   7  11
ATOM     11  N   UNL     1      49.578   5.833  21.132  0.00  0.00    +0.000 NA
ATOM     12  H   UNL     1      49.404   5.891  22.132  0.00  0.00    +0.000 HD
BRANCH  11  13
ATOM     13  C   UNL     1      50.736   4.946  20.951  0.00  0.00    +0.000 C 
BRANCH  13  14
ATOM     14  C   UNL     1      51.516   5.212  19.687  0.00  0.00    +0.000 A 
ATOM     15  C   UNL     1      51.644   4.184  18.732  0.00  0.00    +0.000 A 
ATOM     16  C   UNL     1      52.274   4.419  17.513  0.00  0.00    +0.000 A 
ATOM     17  C   UNL     1      52.787   5.680  17.227  0.00  0.00    +0.000 A 
ATOM     18  C   UNL     1      52.680   6.703  18.165  0.00  0.00    +0.000 A 
ATOM     19  C   UNL     1      52.040   6.471  19.387  0.00  0.00    +0.000 A 
ENDBRANCH  13  14
ENDBRANCH  11  13
ENDBRANCH   7  11
ENDBRANCH   1   7
BRANCH   4  20
ATOM     20  C   UNL     1      48.466   6.396  14.744  0.00  0.00    +0.000 C 
BRANCH  20  21
ATOM     21  N   UNL     1      47.211   6.067  14.122  0.00  0.00    +0.000 N 
ATOM     22  C   UNL     1      46.896   6.554  12.879  0.00  0.00    +0.000 C 
ATOM     23  O   UNL     1      47.678   7.247  12.234  0.00  0.00    +0.000 OA
ATOM     24  H   UNL     1      46.466   5.737  14.729  0.00  0.00    +0.000 HD
BRANCH  22  25
ATOM     25  C   UNL     1      45.601   6.145  12.329  0.00  0.00    +0.000 A 
ATOM     26  C   UNL     1      44.749   7.101  11.791  0.00  0.00    +0.000 A 
ATOM     27  S   UNL     1      43.312   6.449  11.144  0.00  0.00    +0.000 S 
ATOM     28  C   UNL     1      43.752   4.873  11.612  0.00  0.00    +0.000 A 
ATOM     29  N   UNL     1      42.929   3.818  11.375  0.00  0.00    +0.000 NA
ATOM     30  C   UNL     1      43.372   2.687  11.810  0.00  0.00    +0.000 A 
ATOM     31  N   UNL     1      44.571   2.513  12.454  0.00  0.00    +0.000 N 
ATOM     32  C   UNL     1      45.450   3.545  12.688  0.00  0.00    +0.000 A 
ATOM     33  O   UNL     1      46.537   3.343  13.223  0.00  0.00    +0.000 OA
ATOM     34  C   UNL     1      44.989   4.842  12.232  0.00  0.00    +0.000 A 
ATOM     35  H   UNL     1      44.867   1.597  12.759  0.00  0.00    +0.000 HD
ENDBRANCH  22  25
ENDBRANCH  20  21
ENDBRANCH   4  20
TORSDOF 8
ENDMDL
