MODEL 1
REMARK VINA RESULT:    -8.073      0.000      0.000
REMARK INTER + INTRA:         -12.213
REMARK INTER:                 -11.377
REMARK INTRA:                  -0.837
REMARK UNBOUND:                -0.837
REMARK  Name = 
REMARK  9 active torsions:
REMARK  status: ('A' for Active; 'I' for Inactive)
REMARK    1  A    between atoms: C_1  and  O_2
REMARK    2  A    between atoms: O_2  and  C_3
REMARK    3  A    between atoms: C_5  and  C_6
REMARK    4  A    between atoms: C_6  and  C_7
REMARK    5  A    between atoms: C_7  and  N_8
REMARK    6  A    between atoms: C_12  and  C_13
REMARK    7  A    between atoms: C_21  and  O_22
REMARK    8  A    between atoms: O_22  and  C_23
REMARK    9  A    between atoms: N_25  and  C_26
REMARK                            x       y       z     vdW  Elec       q    Type
REMARK                         _______ _______ _______ _____ _____    ______ ____
ROOT
ATOM      1  C   UNL     1      46.918   4.902  13.799  0.00  0.00    +0.000 A 
ATOM      2  C   UNL     1      45.568   4.661  13.464  0.00  0.00    +0.000 A 
ATOM      3  C   UNL     1      44.819   5.615  12.768  0.00  0.00    +0.000 A 
ATOM      4  C   UNL     1      45.464   6.814  12.428  0.00  0.00    +0.000 A 
ATOM      5  C   UNL     1      46.795   7.085  12.781  0.00  0.00    +0.000 A 
ATOM      6 CL   UNL     1      47.321   8.685  12.385  0.00  0.00    +0.000 Cl
ATOM      7  C   UNL     1      47.549   6.128  13.458  0.00  0.00    +0.000 A 
ENDROOT
BRANCH   1   9
ATOM      8  C   UNL     1      47.315   3.840  15.897  0.00  0.00    +0.000 C 
ATOM      9  O   UNL     1      47.677   4.020  14.533  0.00  0.00    +0.000 OA
ENDBRANCH   1   9
BRANCH   3  10
ATOM     10  C   UNL     1      43.341   5.366  12.451  0.00  0.00    +0.000 C 
BRANCH  10  11
ATOM     11  C   UNL     1      43.144   4.627  11.122  0.00  0.00    +0.000 C 
BRANCH  11  12
ATOM     12  N   UNL     1      43.881   5.166   9.976  0.00  0.00    +0.000 N 
ATOM     13  C   UNL     1      44.601   4.116   9.344  0.00  0.00    +0.000 A 
ATOM     14  C   UNL     1      45.395   4.396   8.239  0.00  0.00    +0.000 A 
ATOM     15  C   UNL     1      46.124   3.365   7.637  0.00  0.00    +0.000 A 
ATOM     16  C   UNL     1      46.052   2.066   8.148  0.00  0.00    +0.000 A 
ATOM     17  C   UNL     1      45.222   1.868   9.230  0.00  0.00    +0.000 A 
ATOM     18  N   UNL     1      44.502   2.853   9.824  0.00  0.00    +0.000 NA
ATOM     19  H   UNL     1      44.557   5.877  10.250  0.00  0.00    +0.000 HD
BRANCH  16  20
ATOM     20  C   UNL     1      46.856   0.982   7.532  0.00  0.00    +0.000 C 
ATOM     21  N   UNL     1      47.775   1.297   6.568  0.00  0.00    +0.000 N 
ATOM     22  O   UNL     1      46.699  -0.186   7.866  0.00  0.00    +0.000 OA
ATOM     23  H   UNL     1      47.968   2.217   6.200  0.00  0.00    +0.000 HD
ATOM     24  H   UNL     1      48.282   0.524   6.162  0.00  0.00    +0.000 HD
ENDBRANCH  16  20
ENDBRANCH  11  12
ENDBRANCH  10  11
ENDBRANCH   3  10
BRANCH   7  25
ATOM     25  O   UNL     1      48.848   6.264  13.908  0.00  0.00    +0.000 OA
BRANCH  25  26
ATOM     26  C   UNL     1      49.222   7.299  14.850  0.00  0.00    +0.000 C 
ATOM     27  C   UNL     1      50.717   7.529  15.154  0.00  0.00    +0.000 C 
ATOM     28  N   UNL     1      50.489   7.292  16.591  0.00  0.00    +0.000 NA
ATOM     29  C   UNL     1      50.569   8.542  17.344  0.00  0.00    +0.000 C 
ATOM     30  C   UNL     1      49.088   6.920  16.341  0.00  0.00    +0.000 C 
ENDBRANCH  25  26
ENDBRANCH   7  25
TORSDOF 7
ENDMDL
MODEL 2
REMARK VINA RESULT:    -7.799      1.387      2.151
REMARK INTER + INTRA:         -11.827
REMARK INTER:                 -11.072
REMARK INTRA:                  -0.755
REMARK UNBOUND:                -0.837
REMARK  Name = 
REMARK  9 active torsions:
REMARK  status: ('A' for Active; 'I' for Inactive)
REMARK    1  A    between atoms: C_1  and  O_2
REMARK    2  A    between atoms: O_2  and  C_3
REMARK    3  A    between atoms: C_5  and  C_6
REMARK    4  A    between atoms: C_6  and  C_7
REMARK    5  A    between atoms: C_7  and  N_8
REMARK    6  A    between atoms: C_12  and  C_13
REMARK    7  A    between atoms: C_21  and  O_22
REMARK    8  A    between atoms: O_22  and  C_23
REMARK    9  A    between atoms: N_25  and  C_26
REMARK                            x       y       z     vdW  Elec       q    Type
REMARK                         _______ _______ _______ _____ _____    ______ ____
ROOT
ATOM      1  C   UNL     1      46.672   6.989  12.956  0.00  0.00    +0.000 A 
ATOM      2  C   UNL     1      45.342   6.815  12.517  0.00  0.00    +0.000 A 
ATOM      3  C   UNL     1      44.634   5.646  12.818  0.00  0.00    +0.000 A 
ATOM      4  C   UNL     1      45.304   4.664  13.563  0.00  0.00    +0.000 A 
ATOM      5  C   UNL     1      46.636   4.805  13.980  0.00  0.00    +0.000 A 
ATOM      6 CL   UNL     1      47.290   3.403  14.752  0.00  0.00    +0.000 Cl
ATOM      7  C   UNL     1      47.337   5.977  13.696  0.00  0.00    +0.000 A 
ENDROOT
BRANCH   1   9
ATOM      8  C   UNL     1      46.739   9.335  12.532  0.00  0.00    +0.000 C 
ATOM      9  O   UNL     1      47.427   8.094  12.635  0.00  0.00    +0.000 OA
ENDBRANCH   1   9
BRANCH   3  10
ATOM     10  C   UNL     1      43.207   5.443  12.297  0.00  0.00    +0.000 C 
BRANCH  10  11
ATOM     11  C   UNL     1      43.163   4.582  11.030  0.00  0.00    +0.000 C 
BRANCH  11  12
ATOM     12  N   UNL     1      43.880   5.117   9.869  0.00  0.00    +0.000 N 
ATOM     13  C   UNL     1      44.622   4.073   9.252  0.00  0.00    +0.000 A 
ATOM     14  C   UNL     1      45.402   4.353   8.137  0.00  0.00    +0.000 A 
ATOM     15  C   UNL     1      46.153   3.329   7.549  0.00  0.00    +0.000 A 
ATOM     16  C   UNL     1      46.117   2.038   8.086  0.00  0.00    +0.000 A 
ATOM     17  C   UNL     1      45.299   1.840   9.177  0.00  0.00    +0.000 A 
ATOM     18  N   UNL     1      44.558   2.818   9.757  0.00  0.00    +0.000 NA
ATOM     19  H   UNL     1      44.539   5.850  10.125  0.00  0.00    +0.000 HD
BRANCH  16  20
ATOM     20  C   UNL     1      46.945   0.964   7.485  0.00  0.00    +0.000 C 
ATOM     21  N   UNL     1      47.946   1.299   6.614  0.00  0.00    +0.000 N 
ATOM     22  O   UNL     1      46.736  -0.214   7.749  0.00  0.00    +0.000 OA
ATOM     23  H   UNL     1      48.188   2.229   6.307  0.00  0.00    +0.000 HD
ATOM     24  H   UNL     1      48.467   0.532   6.214  0.00  0.00    +0.000 HD
ENDBRANCH  16  20
ENDBRANCH  11  12
ENDBRANCH  10  11
ENDBRANCH   3  10
BRANCH   7  25
ATOM     25  O   UNL     1      48.658   6.245  14.001  0.00  0.00    +0.000 OA
BRANCH  25  26
ATOM     26  C   UNL     1      49.036   6.894  15.240  0.00  0.00    +0.000 C 
ATOM     27  C   UNL     1      50.522   6.909  15.654  0.00  0.00    +0.000 C 
ATOM     28  N   UNL     1      50.203   6.239  16.927  0.00  0.00    +0.000 NA
ATOM     29  C   UNL     1      50.309   7.171  18.047  0.00  0.00    +0.000 C 
ATOM     30  C   UNL     1      48.799   6.065  16.522  0.00  0.00    +0.000 C 
ENDBRANCH  25  26
ENDBRANCH   7  25
TORSDOF 7
ENDMDL
MODEL 3
REMARK VINA RESULT:    -7.454      2.083      2.988
REMARK INTER + INTRA:         -11.341
REMARK INTER:                 -10.394
REMARK INTRA:                  -0.948
REMARK UNBOUND:                -0.837
REMARK  Name = 
REMARK  9 active torsions:
REMARK  status: ('A' for Active; 'I' for Inactive)
REMARK    1  A    between atoms: C_1  and  O_2
REMARK    2  A    between atoms: O_2  and  C_3
REMARK    3  A    between atoms: C_5  and  C_6
REMARK    4  A    between atoms: C_6  and  C_7
REMARK    5  A    between atoms: C_7  and  N_8
REMARK    6  A    between atoms: C_12  and  C_13
REMARK    7  A    between atoms: C_21  and  O_22
REMARK    8  A    between atoms: O_22  and  C_23
REMARK    9  A    between atoms: N_25  and  C_26
REMARK                            x       y       z     vdW  Elec       q    Type
REMARK                         _______ _______ _______ _____ _____    ______ ____
ROOT
ATOM      1  C   UNL     1      45.818   7.612  12.921  0.00  0.00    +0.000 A 
ATOM      2  C   UNL     1      44.560   7.104  12.529  0.00  0.00    +0.000 A 
ATOM      3  C   UNL     1      44.248   5.751  12.702  0.00  0.00    +0.000 A 
ATOM      4  C   UNL     1      45.235   4.932  13.270  0.00  0.00    +0.000 A 
ATOM      5  C   UNL     1      46.501   5.412  13.636  0.00  0.00    +0.000 A 
ATOM      6 CL   UNL     1      47.597   4.187  14.175  0.00  0.00    +0.000 Cl
ATOM      7  C   UNL     1      46.808   6.764  13.482  0.00  0.00    +0.000 A 
ENDROOT
BRANCH   1   9
ATOM      8  C   UNL     1      45.355   9.706  11.877  0.00  0.00    +0.000 C 
ATOM      9  O   UNL     1      46.192   8.921  12.718  0.00  0.00    +0.000 OA
ENDBRANCH   1   9
BRANCH   3  10
ATOM     10  C   UNL     1      42.900   5.196  12.230  0.00  0.00    +0.000 C 
BRANCH  10  11
ATOM     11  C   UNL     1      43.018   4.403  10.923  0.00  0.00    +0.000 C 
BRANCH  11  12
ATOM     12  N   UNL     1      43.826   5.023   9.870  0.00  0.00    +0.000 N 
ATOM     13  C   UNL     1      44.616   4.026   9.235  0.00  0.00    +0.000 A 
ATOM     14  C   UNL     1      45.484   4.388   8.212  0.00  0.00    +0.000 A 
ATOM     15  C   UNL     1      46.280   3.409   7.608  0.00  0.00    +0.000 A 
ATOM     16  C   UNL     1      46.201   2.080   8.036  0.00  0.00    +0.000 A 
ATOM     17  C   UNL     1      45.297   1.801   9.038  0.00  0.00    +0.000 A 
ATOM     18  N   UNL     1      44.511   2.735   9.632  0.00  0.00    +0.000 NA
ATOM     19  H   UNL     1      44.463   5.729  10.236  0.00  0.00    +0.000 HD
BRANCH  16  20
ATOM     20  C   UNL     1      47.075   1.051   7.421  0.00  0.00    +0.000 C 
ATOM     21  N   UNL     1      48.075   1.443   6.574  0.00  0.00    +0.000 N 
ATOM     22  O   UNL     1      46.904  -0.140   7.652  0.00  0.00    +0.000 OA
ATOM     23  H   UNL     1      48.288   2.389   6.294  0.00  0.00    +0.000 HD
ATOM     24  H   UNL     1      48.629   0.705   6.162  0.00  0.00    +0.000 HD
ENDBRANCH  16  20
ENDBRANCH  11  12
ENDBRANCH  10  11
ENDBRANCH   3  10
BRANCH   7  25
ATOM     25  O   UNL     1      48.018   7.374  13.754  0.00  0.00    +0.000 OA
BRANCH  25  26
ATOM     26  C   UNL     1      49.193   7.128  12.944  0.00  0.00    +0.000 C 
ATOM     27  C   UNL     1      50.341   8.159  12.958  0.00  0.00    +0.000 C 
ATOM     28  N   UNL     1      50.240   8.332  11.497  0.00  0.00    +0.000 NA
ATOM     29  C   UNL     1      51.369   7.701  10.819  0.00  0.00    +0.000 C 
ATOM     30  C   UNL     1      49.048   7.470  11.444  0.00  0.00    +0.000 C 
ENDBRANCH  25  26
ENDBRANCH   7  25
TORSDOF 7
ENDMDL
MODEL 4
REMARK VINA RESULT:    -6.866      2.256      2.789
REMARK INTER + INTRA:         -10.512
REMARK INTER:                  -9.651
REMARK INTRA:                  -0.862
REMARK UNBOUND:                -0.837
REMARK  Name = 
REMARK  9 active torsions:
REMARK  status: ('A' for Active; 'I' for Inactive)
REMARK    1  A    between atoms: C_1  and  O_2
REMARK    2  A    between atoms: O_2  and  C_3
REMARK    3  A    between atoms: C_5  and  C_6
REMARK    4  A    between atoms: C_6  and  C_7
REMARK    5  A    between atoms: C_7  and  N_8
REMARK    6  A    between atoms: C_12  and  C_13
REMARK    7  A    between atoms: C_21  and  O_22
REMARK    8  A    between atoms: O_22  and  C_23
REMARK    9  A    between atoms: N_25  and  C_26
REMARK                            x       y       z     vdW  Elec       q    Type
REMARK                         _______ _______ _______ _____ _____    ______ ____
ROOT
ATOM      1  C   UNL     1      47.260   6.661  13.086  0.00  0.00    +0.000 A 
ATOM      2  C   UNL     1      46.065   5.926  12.921  0.00  0.00    +0.000 A 
ATOM      3  C   UNL     1      44.940   6.509  12.329  0.00  0.00    +0.000 A 
ATOM      4  C   UNL     1      45.052   7.845  11.916  0.00  0.00    +0.000 A 
ATOM      5  C   UNL     1      46.219   8.601  12.101  0.00  0.00    +0.000 A 
ATOM      6 CL   UNL     1      46.066  10.264  11.650  0.00  0.00    +0.000 Cl
ATOM      7  C   UNL     1      47.347   8.017  12.675  0.00  0.00    +0.000 A 
ENDROOT
BRANCH   1   9
ATOM      8  C   UNL     1      48.339   6.097  15.137  0.00  0.00    +0.000 C 
ATOM      9  O   UNL     1      48.372   6.150  13.716  0.00  0.00    +0.000 OA
ENDBRANCH   1   9
BRANCH   3  10
ATOM     10  C   UNL     1      43.633   5.721  12.197  0.00  0.00    +0.000 C 
BRANCH  10  11
ATOM     11  C   UNL     1      43.457   5.106  10.803  0.00  0.00    +0.000 C 
BRANCH  11  12
ATOM     12  N   UNL     1      43.657   3.658  10.715  0.00  0.00    +0.000 N 
ATOM     13  C   UNL     1      44.610   3.376   9.698  0.00  0.00    +0.000 A 
ATOM     14  C   UNL     1      44.945   2.058   9.418  0.00  0.00    +0.000 A 
ATOM     15  C   UNL     1      45.862   1.782   8.398  0.00  0.00    +0.000 A 
ATOM     16  C   UNL     1      46.431   2.830   7.668  0.00  0.00    +0.000 A 
ATOM     17  C   UNL     1      46.065   4.110   8.025  0.00  0.00    +0.000 A 
ATOM     18  N   UNL     1      45.182   4.397   9.015  0.00  0.00    +0.000 NA
ATOM     19  H   UNL     1      42.801   3.162  10.476  0.00  0.00    +0.000 HD
BRANCH  16  20
ATOM     20  C   UNL     1      47.373   2.535   6.560  0.00  0.00    +0.000 C 
ATOM     21  N   UNL     1      47.335   3.303   5.428  0.00  0.00    +0.000 N 
ATOM     22  O   UNL     1      48.170   1.608   6.641  0.00  0.00    +0.000 OA
ATOM     23  H   UNL     1      46.706   4.070   5.244  0.00  0.00    +0.000 HD
ATOM     24  H   UNL     1      47.979   3.049   4.692  0.00  0.00    +0.000 HD
ENDBRANCH  16  20
ENDBRANCH  11  12
ENDBRANCH  10  11
ENDBRANCH   3  10
BRANCH   7  25
ATOM     25  O   UNL     1      48.548   8.640  12.960  0.00  0.00    +0.000 OA
BRANCH  25  26
ATOM     26  C   UNL     1      49.490   8.988  11.916  0.00  0.00    +0.000 C 
ATOM     27  C   UNL     1      50.500   7.925  11.435  0.00  0.00    +0.000 C 
ATOM     28  N   UNL     1      51.631   8.809  11.770  0.00  0.00    +0.000 NA
ATOM     29  C   UNL     1      52.249   9.347  10.561  0.00  0.00    +0.000 C 
ATOM     30  C   UNL     1      50.723   9.796  12.377  0.00  0.00    +0.000 C 
ENDBRANCH  25  26
ENDBRANCH   7  25
TORSDOF 7
ENDMDL
MODEL 5
REMARK VINA RESULT:    -6.131      2.781      8.488
REMARK INTER + INTRA:          -9.476
REMARK INTER:                  -8.523
REMARK INTRA:                  -0.953
REMARK UNBOUND:                -0.837
REMARK  Name = 
REMARK  9 active torsions:
REMARK  status: ('A' for Active; 'I' for Inactive)
REMARK    1  A    between atoms: C_1  and  O_2
REMARK    2  A    between atoms: O_2  and  C_3
REMARK    3  A    between atoms: C_5  and  C_6
REMARK    4  A    between atoms: C_6  and  C_7
REMARK    5  A    between atoms: C_7  and  N_8
REMARK    6  A    between atoms: C_12  and  C_13
REMARK    7  A    between atoms: C_21  and  O_22
REMARK    8  A    between atoms: O_22  and  C_23
REMARK    9  A    between atoms: N_25  and  C_26
REMARK                            x       y       z     vdW  Elec       q    Type
REMARK                         _______ _______ _______ _____ _____    ______ ____
ROOT
ATOM      1  C   UNL     1      45.696   7.369  11.926  0.00  0.00    +0.000 A 
ATOM      2  C   UNL     1      46.923   8.033  12.138  0.00  0.00    +0.000 A 
ATOM      3  C   UNL     1      48.010   7.366  12.713  0.00  0.00    +0.000 A 
ATOM      4  C   UNL     1      47.822   6.022  13.070  0.00  0.00    +0.000 A 
ATOM      5  C   UNL     1      46.600   5.355  12.897  0.00  0.00    +0.000 A 
ATOM      6 CL   UNL     1      46.567   3.754  13.550  0.00  0.00    +0.000 Cl
ATOM      7  C   UNL     1      45.521   6.013  12.307  0.00  0.00    +0.000 A 
ENDROOT
BRANCH   1   9
ATOM      8  C   UNL     1      44.581   9.422  11.443  0.00  0.00    +0.000 C 
ATOM      9  O   UNL     1      44.582   7.999  11.418  0.00  0.00    +0.000 OA
ENDBRANCH   1   9
BRANCH   3  10
ATOM     10  C   UNL     1      49.324   8.106  12.984  0.00  0.00    +0.000 C 
BRANCH  10  11
ATOM     11  C   UNL     1      49.961   7.697  14.318  0.00  0.00    +0.000 C 
BRANCH  11  12
ATOM     12  N   UNL     1      49.383   8.310  15.516  0.00  0.00    +0.000 N 
ATOM     13  C   UNL     1      49.221   7.316  16.520  0.00  0.00    +0.000 A 
ATOM     14  C   UNL     1      48.665   7.663  17.745  0.00  0.00    +0.000 A 
ATOM     15  C   UNL     1      48.481   6.677  18.721  0.00  0.00    +0.000 A 
ATOM     16  C   UNL     1      48.852   5.356  18.458  0.00  0.00    +0.000 A 
ATOM     17  C   UNL     1      49.419   5.100  17.228  0.00  0.00    +0.000 A 
ATOM     18  N   UNL     1      49.612   6.043  16.272  0.00  0.00    +0.000 NA
ATOM     19  H   UNL     1      48.466   8.717  15.339  0.00  0.00    +0.000 HD
BRANCH  16  20
ATOM     20  C   UNL     1      48.620   4.305  19.479  0.00  0.00    +0.000 C 
ATOM     21  N   UNL     1      48.400   3.016  19.074  0.00  0.00    +0.000 N 
ATOM     22  O   UNL     1      48.609   4.577  20.674  0.00  0.00    +0.000 OA
ATOM     23  H   UNL     1      48.361   2.685  18.121  0.00  0.00    +0.000 HD
ATOM     24  H   UNL     1      48.223   2.340  19.803  0.00  0.00    +0.000 HD
ENDBRANCH  16  20
ENDBRANCH  11  12
ENDBRANCH  10  11
ENDBRANCH   3  10
BRANCH   7  25
ATOM     25  O   UNL     1      44.251   5.507  12.110  0.00  0.00    +0.000 OA
BRANCH  25  26
ATOM     26  C   UNL     1      43.950   4.615  11.008  0.00  0.00    +0.000 C 
ATOM     27  C   UNL     1      43.960   3.092  11.255  0.00  0.00    +0.000 C 
ATOM     28  N   UNL     1      44.976   2.901  10.204  0.00  0.00    +0.000 NA
ATOM     29  C   UNL     1      44.388   2.288   9.016  0.00  0.00    +0.000 C 
ATOM     30  C   UNL     1      45.116   4.355  10.029  0.00  0.00    +0.000 C 
ENDBRANCH  25  26
ENDBRANCH   7  25
TORSDOF 7
ENDMDL
MODEL 6
REMARK VINA RESULT:    -5.697      4.205      6.293
REMARK INTER + INTRA:          -8.865
REMARK INTER:                  -8.102
REMARK INTRA:                  -0.763
REMARK UNBOUND:                -0.837
REMARK  Name = 
REMARK  9 active torsions:
REMARK  status: ('A' for Active; 'I' for Inactive)
REMARK    1  A    between atoms: C_1  and  O_2
REMARK    2  A    between atoms: O_2  and  C_3
REMARK    3  A    between atoms: C_5  and  C_6
REMARK    4  A    between atoms: C_6  and  C_7
REMARK    5  A    between atoms: C_7  and  N_8
REMARK    6  A    between atoms: C_12  and  C_13
REMARK    7  A    between atoms: C_21  and  O_22
REMARK    8  A    between atoms: O_22  and  C_23
REMARK    9  A    between atoms: N_25  and  C_26
REMARK                            x       y       z     vdW  Elec       q    Type
REMARK                         _______ _______ _______ _____ _____    ______ ____
ROOT
ATOM      1  C   UNL     1      51.183   5.726  17.743  0.00  0.00    +0.000 A 
ATOM      2  C   UNL     1      50.498   6.757  17.064  0.00  0.00    +0.000 A 
ATOM      3  C   UNL     1      49.237   6.533  16.502  0.00  0.00    +0.000 A 
ATOM      4  C   UNL     1      48.693   5.246  16.639  0.00  0.00    +0.000 A 
ATOM      5  C   UNL     1      49.372   4.201  17.282  0.00  0.00    +0.000 A 
ATOM      6 CL   UNL     1      48.568   2.672  17.193  0.00  0.00    +0.000 Cl
ATOM      7  C   UNL     1      50.622   4.427  17.858  0.00  0.00    +0.000 A 
ENDROOT
BRANCH   1   9
ATOM      8  C   UNL     1      52.578   6.724  19.400  0.00  0.00    +0.000 C 
ATOM      9  O   UNL     1      52.449   5.882  18.260  0.00  0.00    +0.000 OA
ENDBRANCH   1   9
BRANCH   3  10
ATOM     10  C   UNL     1      48.521   7.642  15.725  0.00  0.00    +0.000 C 
BRANCH  10  11
ATOM     11  C   UNL     1      48.339   7.295  14.243  0.00  0.00    +0.000 C 
BRANCH  11  12
ATOM     12  N   UNL     1      47.153   7.861  13.595  0.00  0.00    +0.000 N 
ATOM     13  C   UNL     1      46.277   6.808  13.216  0.00  0.00    +0.000 A 
ATOM     14  C   UNL     1      45.089   7.106  12.562  0.00  0.00    +0.000 A 
ATOM     15  C   UNL     1      44.242   6.065  12.165  0.00  0.00    +0.000 A 
ATOM     16  C   UNL     1      44.595   4.738  12.426  0.00  0.00    +0.000 A 
ATOM     17  C   UNL     1      45.778   4.529  13.101  0.00  0.00    +0.000 A 
ATOM     18  N   UNL     1      46.609   5.525  13.500  0.00  0.00    +0.000 NA
ATOM     19  H   UNL     1      47.384   8.384  12.752  0.00  0.00    +0.000 HD
BRANCH  16  20
ATOM     20  C   UNL     1      43.716   3.634  11.969  0.00  0.00    +0.000 C 
ATOM     21  N   UNL     1      43.867   2.388  12.516  0.00  0.00    +0.000 N 
ATOM     22  O   UNL     1      42.869   3.820  11.104  0.00  0.00    +0.000 OA
ATOM     23  H   UNL     1      44.546   2.117  13.212  0.00  0.00    +0.000 HD
ATOM     24  H   UNL     1      43.262   1.664  12.157  0.00  0.00    +0.000 HD
ENDBRANCH  16  20
ENDBRANCH  11  12
ENDBRANCH  10  11
ENDBRANCH   3  10
BRANCH   7  25
ATOM     25  O   UNL     1      51.426   3.494  18.483  0.00  0.00    +0.000 OA
BRANCH  25  26
ATOM     26  C   UNL     1      52.289   2.607  17.729  0.00  0.00    +0.000 C 
ATOM     27  C   UNL     1      51.864   1.136  17.536  0.00  0.00    +0.000 C 
ATOM     28  N   UNL     1      53.112   0.665  18.162  0.00  0.00    +0.000 NA
ATOM     29  C   UNL     1      54.016   0.102  17.162  0.00  0.00    +0.000 C 
ATOM     30  C   UNL     1      53.500   2.042  18.504  0.00  0.00    +0.000 C 
ENDBRANCH  25  26
ENDBRANCH   7  25
TORSDOF 7
ENDMDL
MODEL 7
REMARK VINA RESULT:    -5.653      3.934      5.511
REMARK INTER + INTRA:          -8.802
REMARK INTER:                  -8.011
REMARK INTRA:                  -0.792
REMARK UNBOUND:                -0.837
REMARK  Name = 
REMARK  9 active torsions:
REMARK  status: ('A' for Active; 'I' for Inactive)
REMARK    1  A    between atoms: C_1  and  O_2
REMARK    2  A    between atoms: O_2  and  C_3
REMARK    3  A    between atoms: C_5  and  C_6
REMARK    4  A    between atoms: C_6  and  C_7
REMARK    5  A    between atoms: C_7  and  N_8
REMARK    6  A    between atoms: C_12  and  C_13
REMARK    7  A    between atoms: C_21  and  O_22
REMARK    8  A    between atoms: O_22  and  C_23
REMARK    9  A    between atoms: N_25  and  C_26
REMARK                            x       y       z     vdW  Elec       q    Type
REMARK                         _______ _______ _______ _____ _____    ______ ____
ROOT
ATOM      1  C   UNL     1      49.437   4.857  17.043  0.00  0.00    +0.000 A 
ATOM      2  C   UNL     1      48.771   5.827  16.263  0.00  0.00    +0.000 A 
ATOM      3  C   UNL     1      49.471   6.896  15.694  0.00  0.00    +0.000 A 
ATOM      4  C   UNL     1      50.852   6.961  15.939  0.00  0.00    +0.000 A 
ATOM      5  C   UNL     1      51.525   6.025  16.738  0.00  0.00    +0.000 A 
ATOM      6 CL   UNL     1      53.191   6.398  17.016  0.00  0.00    +0.000 Cl
ATOM      7  C   UNL     1      50.832   4.949  17.290  0.00  0.00    +0.000 A 
ENDROOT
BRANCH   1   9
ATOM      8  C   UNL     1      47.953   2.999  16.858  0.00  0.00    +0.000 C 
ATOM      9  O   UNL     1      48.782   3.822  17.671  0.00  0.00    +0.000 OA
ENDBRANCH   1   9
BRANCH   3  10
ATOM     10  C   UNL     1      48.735   7.971  14.889  0.00  0.00    +0.000 C 
BRANCH  10  11
ATOM     11  C   UNL     1      47.424   7.455  14.285  0.00  0.00    +0.000 C 
BRANCH  11  12
ATOM     12  N   UNL     1      47.330   7.507  12.823  0.00  0.00    +0.000 N 
ATOM     13  C   UNL     1      46.488   6.456  12.368  0.00  0.00    +0.000 A 
ATOM     14  C   UNL     1      46.268   6.295  11.006  0.00  0.00    +0.000 A 
ATOM     15  C   UNL     1      45.462   5.242  10.560  0.00  0.00    +0.000 A 
ATOM     16  C   UNL     1      44.887   4.362  11.481  0.00  0.00    +0.000 A 
ATOM     17  C   UNL     1      45.134   4.607  12.815  0.00  0.00    +0.000 A 
ATOM     18  N   UNL     1      45.908   5.626  13.268  0.00  0.00    +0.000 NA
ATOM     19  H   UNL     1      48.236   7.389  12.373  0.00  0.00    +0.000 HD
BRANCH  16  20
ATOM     20  C   UNL     1      44.065   3.223  11.004  0.00  0.00    +0.000 C 
ATOM     21  N   UNL     1      44.591   2.359  10.082  0.00  0.00    +0.000 N 
ATOM     22  O   UNL     1      42.922   3.056  11.413  0.00  0.00    +0.000 OA
ATOM     23  H   UNL     1      45.506   2.415   9.660  0.00  0.00    +0.000 HD
ATOM     24  H   UNL     1      43.986   1.613   9.770  0.00  0.00    +0.000 HD
ENDBRANCH  16  20
ENDBRANCH  11  12
ENDBRANCH  10  11
ENDBRANCH   3  10
BRANCH   7  25
ATOM     25  O   UNL     1      51.345   3.976  18.128  0.00  0.00    +0.000 OA
BRANCH  25  26
ATOM     26  C   UNL     1      52.242   2.949  17.640  0.00  0.00    +0.000 C 
ATOM     27  C   UNL     1      51.801   1.473  17.713  0.00  0.00    +0.000 C 
ATOM     28  N   UNL     1      52.986   1.130  18.520  0.00  0.00    +0.000 NA
ATOM     29  C   UNL     1      53.952   0.371  17.729  0.00  0.00    +0.000 C 
ATOM     30  C   UNL     1      53.377   2.546  18.607  0.00  0.00    +0.000 C 
ENDBRANCH  25  26
ENDBRANCH   7  25
TORSDOF 7
ENDMDL
MODEL 8
REMARK VINA RESULT:    -5.501      3.215      4.904
REMARK INTER + INTRA:          -8.588
REMARK INTER:                  -7.745
REMARK INTRA:                  -0.843
REMARK UNBOUND:                -0.837
REMARK  Name = 
REMARK  9 active torsions:
REMARK  status: ('A' for Active; 'I' for Inactive)
REMARK    1  A    between atoms: C_1  and  O_2
REMARK    2  A    between atoms: O_2  and  C_3
REMARK    3  A    between atoms: C_5  and  C_6
REMARK    4  A    between atoms: C_6  and  C_7
REMARK    5  A    between atoms: C_7  and  N_8
REMARK    6  A    between atoms: C_12  and  C_13
REMARK    7  A    between atoms: C_21  and  O_22
REMARK    8  A    between atoms: O_22  and  C_23
REMARK    9  A    between atoms: N_25  and  C_26
REMARK                            x       y       z     vdW  Elec       q    Type
REMARK                         _______ _______ _______ _____ _____    ______ ____
ROOT
ATOM      1  C   UNL     1      49.078   5.911  16.334  0.00  0.00    +0.000 A 
ATOM      2  C   UNL     1      48.579   6.648  15.238  0.00  0.00    +0.000 A 
ATOM      3  C   UNL     1      48.916   7.995  15.065  0.00  0.00    +0.000 A 
ATOM      4  C   UNL     1      49.760   8.573  16.026  0.00  0.00    +0.000 A 
ATOM      5  C   UNL     1      50.240   7.867  17.138  0.00  0.00    +0.000 A 
ATOM      6 CL   UNL     1      51.137   8.831  18.259  0.00  0.00    +0.000 Cl
ATOM      7  C   UNL     1      49.919   6.519  17.303  0.00  0.00    +0.000 A 
ENDROOT
BRANCH   1   9
ATOM      8  C   UNL     1      47.394   4.225  16.261  0.00  0.00    +0.000 C 
ATOM      9  O   UNL     1      48.728   4.603  16.578  0.00  0.00    +0.000 OA
ENDBRANCH   1   9
BRANCH   3  10
ATOM     10  C   UNL     1      48.332   8.801  13.901  0.00  0.00    +0.000 C 
BRANCH  10  11
ATOM     11  C   UNL     1      46.953   8.291  13.468  0.00  0.00    +0.000 C 
BRANCH  11  12
ATOM     12  N   UNL     1      46.801   7.998  12.040  0.00  0.00    +0.000 N 
ATOM     13  C   UNL     1      46.091   6.777  11.884  0.00  0.00    +0.000 A 
ATOM     14  C   UNL     1      45.845   6.285  10.608  0.00  0.00    +0.000 A 
ATOM     15  C   UNL     1      45.171   5.067  10.459  0.00  0.00    +0.000 A 
ATOM     16  C   UNL     1      44.753   4.357  11.587  0.00  0.00    +0.000 A 
ATOM     17  C   UNL     1      45.014   4.926  12.815  0.00  0.00    +0.000 A 
ATOM     18  N   UNL     1      45.660   6.108  12.980  0.00  0.00    +0.000 NA
ATOM     19  H   UNL     1      47.697   7.893  11.568  0.00  0.00    +0.000 HD
BRANCH  16  20
ATOM     20  C   UNL     1      44.074   3.047  11.427  0.00  0.00    +0.000 C 
ATOM     21  N   UNL     1      43.600   2.400  12.536  0.00  0.00    +0.000 N 
ATOM     22  O   UNL     1      43.944   2.535  10.322  0.00  0.00    +0.000 OA
ATOM     23  H   UNL     1      43.675   2.714  13.492  0.00  0.00    +0.000 HD
ATOM     24  H   UNL     1      43.166   1.501  12.380  0.00  0.00    +0.000 HD
ENDBRANCH  16  20
ENDBRANCH  11  12
ENDBRANCH  10  11
ENDBRANCH   3  10
BRANCH   7  25
ATOM     25  O   UNL     1      50.278   5.706  18.361  0.00  0.00    +0.000 OA
BRANCH  25  26
ATOM     26  C   UNL     1      49.654   5.833  19.662  0.00  0.00    +0.000 C 
ATOM     27  C   UNL     1      48.640   4.761  20.113  0.00  0.00    +0.000 C 
ATOM     28  N   UNL     1      47.597   5.786  20.299  0.00  0.00    +0.000 NA
ATOM     29  C   UNL     1      47.349   6.025  21.718  0.00  0.00    +0.000 C 
ATOM     30  C   UNL     1      48.474   6.826  19.738  0.00  0.00    +0.000 C 
ENDBRANCH  25  26
ENDBRANCH   7  25
TORSDOF 7
ENDMDL
MODEL 9
REMARK VINA RESULT:    -5.282      3.824      5.665
REMARK INTER + INTRA:          -8.280
REMARK INTER:                  -7.065
REMARK INTRA:                  -1.215
REMARK UNBOUND:                -0.837
REMARK  Name = 
REMARK  9 active torsions:
REMARK  status: ('A' for Active; 'I' for Inactive)
REMARK    1  A    between atoms: C_1  and  O_2
REMARK    2  A    between atoms: O_2  and  C_3
REMARK    3  A    between atoms: C_5  and  C_6
REMARK    4  A    between atoms: C_6  and  C_7
REMARK    5  A    between atoms: C_7  and  N_8
REMARK    6  A    between atoms: C_12  and  C_13
REMARK    7  A    between atoms: C_21  and  O_22
REMARK    8  A    between atoms: O_22  and  C_23
REMARK    9  A    between atoms: N_25  and  C_26
REMARK                            x       y       z     vdW  Elec       q    Type
REMARK                         _______ _______ _______ _____ _____    ______ ____
ROOT
ATOM      1  C   UNL     1      48.584   8.744  16.729  0.00  0.00    +0.000 A 
ATOM      2  C   UNL     1      48.520   9.334  15.448  0.00  0.00    +0.000 A 
ATOM      3  C   UNL     1      49.446   8.997  14.455  0.00  0.00    +0.000 A 
ATOM      4  C   UNL     1      50.435   8.060  14.792  0.00  0.00    +0.000 A 
ATOM      5  C   UNL     1      50.535   7.488  16.069  0.00  0.00    +0.000 A 
ATOM      6 CL   UNL     1      51.922   6.478  16.288  0.00  0.00    +0.000 Cl
ATOM      7  C   UNL     1      49.601   7.809  17.054  0.00  0.00    +0.000 A 
ENDROOT
BRANCH   1   9
ATOM      8  C   UNL     1      47.799  10.427  18.226  0.00  0.00    +0.000 C 
ATOM      9  O   UNL     1      47.732   9.086  17.754  0.00  0.00    +0.000 OA
ENDBRANCH   1   9
BRANCH   3  10
ATOM     10  C   UNL     1      49.401   9.676  13.083  0.00  0.00    +0.000 C 
BRANCH  10  11
ATOM     11  C   UNL     1      48.600   8.868  12.056  0.00  0.00    +0.000 C 
BRANCH  11  12
ATOM     12  N   UNL     1      47.144   9.020  12.119  0.00  0.00    +0.000 N 
ATOM     13  C   UNL     1      46.548   7.749  12.348  0.00  0.00    +0.000 A 
ATOM     14  C   UNL     1      45.166   7.644  12.424  0.00  0.00    +0.000 A 
ATOM     15  C   UNL     1      44.582   6.387  12.621  0.00  0.00    +0.000 A 
ATOM     16  C   UNL     1      45.388   5.252  12.739  0.00  0.00    +0.000 A 
ATOM     17  C   UNL     1      46.751   5.446  12.677  0.00  0.00    +0.000 A 
ATOM     18  N   UNL     1      47.337   6.657  12.493  0.00  0.00    +0.000 NA
ATOM     19  H   UNL     1      46.755   9.387  11.252  0.00  0.00    +0.000 HD
BRANCH  16  20
ATOM     20  C   UNL     1      44.766   3.916  12.908  0.00  0.00    +0.000 C 
ATOM     21  N   UNL     1      45.490   2.797  12.598  0.00  0.00    +0.000 N 
ATOM     22  O   UNL     1      43.613   3.804  13.309  0.00  0.00    +0.000 OA
ATOM     23  H   UNL     1      46.432   2.773  12.237  0.00  0.00    +0.000 HD
ATOM     24  H   UNL     1      45.016   1.911  12.707  0.00  0.00    +0.000 HD
ENDBRANCH  16  20
ENDBRANCH  11  12
ENDBRANCH  10  11
ENDBRANCH   3  10
BRANCH   7  25
ATOM     25  O   UNL     1      49.592   7.363  18.362  0.00  0.00    +0.000 OA
BRANCH  25  26
ATOM     26  C   UNL     1      49.036   6.075  18.723  0.00  0.00    +0.000 C 
ATOM     27  C   UNL     1      49.972   4.851  18.799  0.00  0.00    +0.000 C 
ATOM     28  N   UNL     1      49.157   4.131  17.804  0.00  0.00    +0.000 NA
ATOM     29  C   UNL     1      48.387   3.062  18.436  0.00  0.00    +0.000 C 
ATOM     30  C   UNL     1      48.318   5.320  17.582  0.00  0.00    +0.000 C 
ENDBRANCH  25  26
ENDBRANCH   7  25
TORSDOF 7
ENDMDL
