MODEL 1
REMARK VINA RESULT:    -7.534      0.000      0.000
REMARK INTER + INTRA:         -11.458
REMARK INTER:                 -10.177
REMARK INTRA:                  -1.281
REMARK UNBOUND:                -1.281
REMARK  Name = 
REMARK  7 active torsions:
REMARK  status: ('A' for Active; 'I' for Inactive)
REMARK    1  A    between atoms: C_1  and  N_2
REMARK    2  A    between atoms: N_2  and  C_3
REMARK    3  A    between atoms: C_3  and  C_4
REMARK    4  A    between atoms: C_7  and  C_8
REMARK    5  A    between atoms: C_8  and  N_9
REMARK    6  A    between atoms: N_9  and  C_10
REMARK    7  A    between atoms: C_18  and  C_20
REMARK                            x       y       z     vdW  Elec       q    Type
REMARK                         _______ _______ _______ _____ _____    ______ ____
ROOT
ATOM      1  C   UNL     1      47.318   6.225  12.613  0.00  0.00    +0.000 C 
ENDROOT
BRANCH   1   2
ATOM      2  C   UNL     1      47.608   5.768  13.999  0.00  0.00    +0.000 A 
ATOM      3  C   UNL     1      48.470   6.533  14.799  0.00  0.00    +0.000 A 
ATOM      4  C   UNL     1      48.690   6.169  16.117  0.00  0.00    +0.000 A 
ATOM      5  C   UNL     1      48.057   5.039  16.645  0.00  0.00    +0.000 A 
ATOM      6  C   UNL     1      47.223   4.262  15.826  0.00  0.00    +0.000 A 
ATOM      7  C   UNL     1      47.002   4.620  14.504  0.00  0.00    +0.000 A 
BRANCH   5   8
ATOM      8  C   UNL     1      48.263   4.619  18.078  0.00  0.00    +0.000 C 
BRANCH   8   9
ATOM      9  N   UNL     1      47.243   5.172  18.961  0.00  0.00    +0.000 NA
ATOM     10  H   UNL     1      46.834   4.413  19.505  0.00  0.00    +0.000 HD
BRANCH   9  11
ATOM     11  C   UNL     1      47.755   6.215  19.859  0.00  0.00    +0.000 C 
ATOM     12  C   UNL     1      47.264   6.074  21.313  0.00  0.00    +0.000 C 
ATOM     13  C   UNL     1      47.701   7.250  22.182  0.00  0.00    +0.000 C 
ATOM     14  C   UNL     1      47.221   8.567  21.588  0.00  0.00    +0.000 C 
ATOM     15  C   UNL     1      47.742   8.746  20.166  0.00  0.00    +0.000 C 
ATOM     16  C   UNL     1      47.341   7.575  19.270  0.00  0.00    +0.000 C 
ENDBRANCH   9  11
ENDBRANCH   8   9
ENDBRANCH   5   8
ENDBRANCH   1   2
BRANCH   1  18
ATOM     17  C   UNL     1      46.620   8.647  12.447  0.00  0.00    +0.000 C 
ATOM     18  N   UNL     1      46.273   7.238  12.452  0.00  0.00    +0.000 N 
ATOM     19  C   UNL     1      45.055   6.936  11.798  0.00  0.00    +0.000 C 
ATOM     20  O   UNL     1      44.346   7.813  11.337  0.00  0.00    +0.000 OA
BRANCH  19  21
ATOM     21  C   UNL     1      44.654   5.527  11.727  0.00  0.00    +0.000 A 
ATOM     22  C   UNL     1      43.984   4.857  12.740  0.00  0.00    +0.000 A 
ATOM     23  S   UNL     1      43.563   3.256  12.359  0.00  0.00    +0.000 S 
ATOM     24  C   UNL     1      44.206   3.421  10.794  0.00  0.00    +0.000 A 
ATOM     25  N   UNL     1      44.078   2.421   9.886  0.00  0.00    +0.000 NA
ATOM     26  C   UNL     1      44.560   2.706   8.722  0.00  0.00    +0.000 A 
ATOM     27  N   UNL     1      45.200   3.877   8.403  0.00  0.00    +0.000 N 
ATOM     28  C   UNL     1      45.469   4.869   9.323  0.00  0.00    +0.000 A 
ATOM     29  O   UNL     1      46.234   5.777   9.063  0.00  0.00    +0.000 OA
ATOM     30  C   UNL     1      44.813   4.648  10.603  0.00  0.00    +0.000 A 
ATOM     31  H   UNL     1      45.591   4.021   7.482  0.00  0.00    +0.000 HD
ENDBRANCH  19  21
ENDBRANCH   1  18
TORSDOF 6
ENDMDL
MODEL 2
REMARK VINA RESULT:    -7.490      2.158      3.534
REMARK INTER + INTRA:         -11.399
REMARK INTER:                 -10.075
REMARK INTRA:                  -1.324
REMARK UNBOUND:                -1.281
REMARK  Name = 
REMARK  7 active torsions:
REMARK  status: ('A' for Active; 'I' for Inactive)
REMARK    1  A    between atoms: C_1  and  N_2
REMARK    2  A    between atoms: N_2  and  C_3
REMARK    3  A    between atoms: C_3  and  C_4
REMARK    4  A    between atoms: C_7  and  C_8
REMARK    5  A    between atoms: C_8  and  N_9
REMARK    6  A    between atoms: N_9  and  C_10
REMARK    7  A    between atoms: C_18  and  C_20
REMARK                            x       y       z     vdW  Elec       q    Type
REMARK                         _______ _______ _______ _____ _____    ______ ____
ROOT
ATOM      1  C   UNL     1      47.162   6.211  12.580  0.00  0.00    +0.000 C 
ENDROOT
BRANCH   1   2
ATOM      2  C   UNL     1      47.497   5.784  13.965  0.00  0.00    +0.000 A 
ATOM      3  C   UNL     1      46.934   4.600  14.464  0.00  0.00    +0.000 A 
ATOM      4  C   UNL     1      47.296   4.142  15.720  0.00  0.00    +0.000 A 
ATOM      5  C   UNL     1      48.215   4.864  16.490  0.00  0.00    +0.000 A 
ATOM      6  C   UNL     1      48.745   6.065  15.994  0.00  0.00    +0.000 A 
ATOM      7  C   UNL     1      48.384   6.529  14.739  0.00  0.00    +0.000 A 
BRANCH   5   8
ATOM      8  C   UNL     1      48.639   4.391  17.857  0.00  0.00    +0.000 C 
BRANCH   8   9
ATOM      9  N   UNL     1      49.066   2.997  17.843  0.00  0.00    +0.000 NA
ATOM     10  H   UNL     1      48.461   2.474  17.210  0.00  0.00    +0.000 HD
BRANCH   9  11
ATOM     11  C   UNL     1      50.471   2.822  17.452  0.00  0.00    +0.000 C 
ATOM     12  C   UNL     1      51.007   1.398  17.693  0.00  0.00    +0.000 C 
ATOM     13  C   UNL     1      52.503   1.293  17.408  0.00  0.00    +0.000 C 
ATOM     14  C   UNL     1      53.282   2.299  18.244  0.00  0.00    +0.000 C 
ATOM     15  C   UNL     1      52.798   3.720  17.979  0.00  0.00    +0.000 C 
ATOM     16  C   UNL     1      51.299   3.858  18.234  0.00  0.00    +0.000 C 
ENDBRANCH   9  11
ENDBRANCH   8   9
ENDBRANCH   5   8
ENDBRANCH   1   2
BRANCH   1  18
ATOM     17  C   UNL     1      46.370   8.607  12.452  0.00  0.00    +0.000 C 
ATOM     18  N   UNL     1      46.080   7.185  12.428  0.00  0.00    +0.000 N 
ATOM     19  C   UNL     1      44.881   6.847  11.755  0.00  0.00    +0.000 C 
ATOM     20  O   UNL     1      44.142   7.704  11.304  0.00  0.00    +0.000 OA
BRANCH  19  21
ATOM     21  C   UNL     1      44.536   5.426  11.654  0.00  0.00    +0.000 A 
ATOM     22  C   UNL     1      43.857   4.718  12.635  0.00  0.00    +0.000 A 
ATOM     23  S   UNL     1      43.512   3.107  12.221  0.00  0.00    +0.000 S 
ATOM     24  C   UNL     1      44.203   3.317  10.681  0.00  0.00    +0.000 A 
ATOM     25  N   UNL     1      44.146   2.324   9.758  0.00  0.00    +0.000 NA
ATOM     26  C   UNL     1      44.657   2.642   8.615  0.00  0.00    +0.000 A 
ATOM     27  N   UNL     1      45.262   3.841   8.333  0.00  0.00    +0.000 N 
ATOM     28  C   UNL     1      45.460   4.830   9.272  0.00  0.00    +0.000 A 
ATOM     29  O   UNL     1      46.199   5.770   9.051  0.00  0.00    +0.000 OA
ATOM     30  C   UNL     1      44.768   4.567  10.527  0.00  0.00    +0.000 A 
ATOM     31  H   UNL     1      45.679   4.010   7.427  0.00  0.00    +0.000 HD
ENDBRANCH  19  21
ENDBRANCH   1  18
TORSDOF 6
ENDMDL
MODEL 3
REMARK VINA RESULT:    -7.444      2.944      9.268
REMARK INTER + INTRA:         -11.336
REMARK INTER:                 -10.178
REMARK INTRA:                  -1.159
REMARK UNBOUND:                -1.281
REMARK  Name = 
REMARK  7 active torsions:
REMARK  status: ('A' for Active; 'I' for Inactive)
REMARK    1  A    between atoms: C_1  and  N_2
REMARK    2  A    between atoms: N_2  and  C_3
REMARK    3  A    between atoms: C_3  and  C_4
REMARK    4  A    between atoms: C_7  and  C_8
REMARK    5  A    between atoms: C_8  and  N_9
REMARK    6  A    between atoms: N_9  and  C_10
REMARK    7  A    between atoms: C_18  and  C_20
REMARK                            x       y       z     vdW  Elec       q    Type
REMARK                         _______ _______ _______ _____ _____    ______ ____
ROOT
ATOM      1  C   UNL     1      47.408   7.259  13.819  0.00  0.00    +0.000 C 
ENDROOT
BRANCH   1   2
ATOM      2  C   UNL     1      46.661   6.370  12.890  0.00  0.00    +0.000 A 
ATOM      3  C   UNL     1      45.970   5.267  13.414  0.00  0.00    +0.000 A 
ATOM      4  C   UNL     1      45.202   4.475  12.578  0.00  0.00    +0.000 A 
ATOM      5  C   UNL     1      45.122   4.771  11.212  0.00  0.00    +0.000 A 
ATOM      6  C   UNL     1      45.844   5.857  10.693  0.00  0.00    +0.000 A 
ATOM      7  C   UNL     1      46.617   6.652  11.526  0.00  0.00    +0.000 A 
BRANCH   5   8
ATOM      8  C   UNL     1      44.288   3.937  10.274  0.00  0.00    +0.000 C 
BRANCH   8   9
ATOM      9  N   UNL     1      44.468   4.337   8.883  0.00  0.00    +0.000 NA
ATOM     10  H   UNL     1      45.051   5.173   8.854  0.00  0.00    +0.000 HD
BRANCH   9  11
ATOM     11  C   UNL     1      45.059   3.284   8.046  0.00  0.00    +0.000 C 
ATOM     12  C   UNL     1      45.527   2.052   8.844  0.00  0.00    +0.000 C 
ATOM     13  C   UNL     1      46.260   1.044   7.963  0.00  0.00    +0.000 C 
ATOM     14  C   UNL     1      47.442   1.700   7.263  0.00  0.00    +0.000 C 
ATOM     15  C   UNL     1      46.988   2.891   6.427  0.00  0.00    +0.000 C 
ATOM     16  C   UNL     1      46.231   3.914   7.272  0.00  0.00    +0.000 C 
ENDBRANCH   9  11
ENDBRANCH   8   9
ENDBRANCH   5   8
ENDBRANCH   1   2
BRANCH   1  18
ATOM     17  C   UNL     1      49.676   7.703  12.798  0.00  0.00    +0.000 C 
ATOM     18  N   UNL     1      48.865   7.116  13.849  0.00  0.00    +0.000 N 
ATOM     19  C   UNL     1      49.554   6.903  15.066  0.00  0.00    +0.000 C 
ATOM     20  O   UNL     1      50.745   7.139  15.172  0.00  0.00    +0.000 OA
BRANCH  19  21
ATOM     21  C   UNL     1      48.794   6.348  16.190  0.00  0.00    +0.000 A 
ATOM     22  C   UNL     1      48.392   5.024  16.279  0.00  0.00    +0.000 A 
ATOM     23  S   UNL     1      47.600   4.630  17.729  0.00  0.00    +0.000 S 
ATOM     24  C   UNL     1      47.825   6.208  18.322  0.00  0.00    +0.000 A 
ATOM     25  N   UNL     1      47.461   6.528  19.589  0.00  0.00    +0.000 NA
ATOM     26  C   UNL     1      47.744   7.742  19.925  0.00  0.00    +0.000 A 
ATOM     27  N   UNL     1      48.311   8.674  19.093  0.00  0.00    +0.000 N 
ATOM     28  C   UNL     1      48.580   8.437  17.761  0.00  0.00    +0.000 A 
ATOM     29  O   UNL     1      48.859   9.347  17.004  0.00  0.00    +0.000 OA
ATOM     30  C   UNL     1      48.412   7.040  17.388  0.00  0.00    +0.000 A 
ATOM     31  H   UNL     1      48.469   9.622  19.407  0.00  0.00    +0.000 HD
ENDBRANCH  19  21
ENDBRANCH   1  18
TORSDOF 6
ENDMDL
MODEL 4
REMARK VINA RESULT:    -7.182      3.136      8.751
REMARK INTER + INTRA:         -10.982
REMARK INTER:                  -9.709
REMARK INTRA:                  -1.273
REMARK UNBOUND:                -1.281
REMARK  Name = 
REMARK  7 active torsions:
REMARK  status: ('A' for Active; 'I' for Inactive)
REMARK    1  A    between atoms: C_1  and  N_2
REMARK    2  A    between atoms: N_2  and  C_3
REMARK    3  A    between atoms: C_3  and  C_4
REMARK    4  A    between atoms: C_7  and  C_8
REMARK    5  A    between atoms: C_8  and  N_9
REMARK    6  A    between atoms: N_9  and  C_10
REMARK    7  A    between atoms: C_18  and  C_20
REMARK                            x       y       z     vdW  Elec       q    Type
REMARK                         _______ _______ _______ _____ _____    ______ ____
ROOT
ATOM      1  C   UNL     1      47.356   7.796  13.555  0.00  0.00    +0.000 C 
ENDROOT
BRANCH   1   2
ATOM      2  C   UNL     1      46.429   6.671  13.261  0.00  0.00    +0.000 A 
ATOM      3  C   UNL     1      45.216   6.943  12.610  0.00  0.00    +0.000 A 
ATOM      4  C   UNL     1      44.376   5.902  12.255  0.00  0.00    +0.000 A 
ATOM      5  C   UNL     1      44.736   4.581  12.550  0.00  0.00    +0.000 A 
ATOM      6  C   UNL     1      45.936   4.323  13.230  0.00  0.00    +0.000 A 
ATOM      7  C   UNL     1      46.778   5.363  13.592  0.00  0.00    +0.000 A 
BRANCH   5   8
ATOM      8  C   UNL     1      43.852   3.422  12.169  0.00  0.00    +0.000 C 
BRANCH   8   9
ATOM      9  N   UNL     1      43.591   3.383  10.734  0.00  0.00    +0.000 NA
ATOM     10  H   UNL     1      43.052   4.209  10.477  0.00  0.00    +0.000 HD
BRANCH   9  11
ATOM     11  C   UNL     1      44.813   3.308   9.922  0.00  0.00    +0.000 C 
ATOM     12  C   UNL     1      44.942   4.448   8.894  0.00  0.00    +0.000 C 
ATOM     13  C   UNL     1      46.148   4.258   7.978  0.00  0.00    +0.000 C 
ATOM     14  C   UNL     1      46.080   2.912   7.269  0.00  0.00    +0.000 C 
ATOM     15  C   UNL     1      46.004   1.770   8.275  0.00  0.00    +0.000 C 
ATOM     16  C   UNL     1      44.819   1.936   9.224  0.00  0.00    +0.000 C 
ENDBRANCH   9  11
ENDBRANCH   8   9
ENDBRANCH   5   8
ENDBRANCH   1   2
BRANCH   1  18
ATOM     17  C   UNL     1      49.392   7.213  12.179  0.00  0.00    +0.000 C 
ATOM     18  N   UNL     1      48.790   7.517  13.464  0.00  0.00    +0.000 N 
ATOM     19  C   UNL     1      49.696   8.022  14.426  0.00  0.00    +0.000 C 
ATOM     20  O   UNL     1      50.888   8.118  14.189  0.00  0.00    +0.000 OA
BRANCH  19  21
ATOM     21  C   UNL     1      49.158   8.390  15.739  0.00  0.00    +0.000 A 
ATOM     22  C   UNL     1      48.867   9.691  16.124  0.00  0.00    +0.000 A 
ATOM     23  S   UNL     1      48.172   9.824  17.668  0.00  0.00    +0.000 S 
ATOM     24  C   UNL     1      48.175   8.133  17.854  0.00  0.00    +0.000 A 
ATOM     25  N   UNL     1      47.606   7.558  18.943  0.00  0.00    +0.000 NA
ATOM     26  C   UNL     1      47.628   6.267  18.924  0.00  0.00    +0.000 A 
ATOM     27  N   UNL     1      48.210   5.506  17.942  0.00  0.00    +0.000 N 
ATOM     28  C   UNL     1      48.911   6.043  16.883  0.00  0.00    +0.000 A 
ATOM     29  O   UNL     1      49.605   5.345  16.169  0.00  0.00    +0.000 OA
ATOM     30  C   UNL     1      48.781   7.491  16.793  0.00  0.00    +0.000 A 
ATOM     31  H   UNL     1      48.227   4.497  18.009  0.00  0.00    +0.000 HD
ENDBRANCH  19  21
ENDBRANCH   1  18
TORSDOF 6
ENDMDL
MODEL 5
REMARK VINA RESULT:    -7.085      3.695      9.058
REMARK INTER + INTRA:         -10.852
REMARK INTER:                  -9.852
REMARK INTRA:                  -1.000
REMARK UNBOUND:                -1.281
REMARK  Name = 
REMARK  7 active torsions:
REMARK  status: ('A' for Active; 'I' for Inactive)
REMARK    1  A    between atoms: C_1  and  N_2
REMARK    2  A    between atoms: N_2  and  C_3
REMARK    3  A    between atoms: C_3  and  C_4
REMARK    4  A    between atoms: C_7  and  C_8
REMARK    5  A    between atoms: C_8  and  N_9
REMARK    6  A    between atoms: N_9  and  C_10
REMARK    7  A    between atoms: C_18  and  C_20
REMARK                            x       y       z     vdW  Elec       q    Type
REMARK                         _______ _______ _______ _____ _____    ______ ____
ROOT
ATOM      1  C   UNL     1      48.529   6.711  13.502  0.00  0.00    +0.000 C 
ENDROOT
BRANCH   1   2
ATOM      2  C   UNL     1      47.420   6.066  12.750  0.00  0.00    +0.000 A 
ATOM      3  C   UNL     1      46.763   4.965  13.321  0.00  0.00    +0.000 A 
ATOM      4  C   UNL     1      45.676   4.401  12.675  0.00  0.00    +0.000 A 
ATOM      5  C   UNL     1      45.240   4.925  11.453  0.00  0.00    +0.000 A 
ATOM      6  C   UNL     1      45.925   6.005  10.875  0.00  0.00    +0.000 A 
ATOM      7  C   UNL     1      47.016   6.572  11.516  0.00  0.00    +0.000 A 
BRANCH   5   8
ATOM      8  C   UNL     1      44.054   4.343  10.726  0.00  0.00    +0.000 C 
BRANCH   8   9
ATOM      9  N   UNL     1      44.075   4.666   9.304  0.00  0.00    +0.000 NA
ATOM     10  H   UNL     1      44.631   5.509   9.166  0.00  0.00    +0.000 HD
BRANCH   9  11
ATOM     11  C   UNL     1      44.599   3.578   8.468  0.00  0.00    +0.000 C 
ATOM     12  C   UNL     1      45.000   2.323   9.267  0.00  0.00    +0.000 C 
ATOM     13  C   UNL     1      45.668   1.272   8.386  0.00  0.00    +0.000 C 
ATOM     14  C   UNL     1      46.882   1.856   7.675  0.00  0.00    +0.000 C 
ATOM     15  C   UNL     1      46.491   3.069   6.838  0.00  0.00    +0.000 C 
ATOM     16  C   UNL     1      45.800   4.136   7.684  0.00  0.00    +0.000 C 
ENDBRANCH   9  11
ENDBRANCH   8   9
ENDBRANCH   5   8
ENDBRANCH   1   2
BRANCH   1  18
ATOM     17  C   UNL     1      46.970   8.631  14.020  0.00  0.00    +0.000 C 
ATOM     18  N   UNL     1      48.195   7.900  14.289  0.00  0.00    +0.000 N 
ATOM     19  C   UNL     1      48.703   8.078  15.597  0.00  0.00    +0.000 C 
ATOM     20  O   UNL     1      48.174   8.840  16.388  0.00  0.00    +0.000 OA
BRANCH  19  21
ATOM     21  C   UNL     1      49.919   7.342  15.960  0.00  0.00    +0.000 A 
ATOM     22  C   UNL     1      51.206   7.825  15.773  0.00  0.00    +0.000 A 
ATOM     23  S   UNL     1      52.428   6.803  16.363  0.00  0.00    +0.000 S 
ATOM     24  C   UNL     1      51.273   5.703  16.952  0.00  0.00    +0.000 A 
ATOM     25  N   UNL     1      51.656   4.622  17.677  0.00  0.00    +0.000 NA
ATOM     26  C   UNL     1      50.672   3.907  18.111  0.00  0.00    +0.000 A 
ATOM     27  N   UNL     1      49.348   4.148  17.842  0.00  0.00    +0.000 N 
ATOM     28  C   UNL     1      48.916   5.156  17.006  0.00  0.00    +0.000 A 
ATOM     29  O   UNL     1      47.768   5.194  16.608  0.00  0.00    +0.000 OA
ATOM     30  C   UNL     1      49.983   6.069  16.620  0.00  0.00    +0.000 A 
ATOM     31  H   UNL     1      48.628   3.524  18.179  0.00  0.00    +0.000 HD
ENDBRANCH  19  21
ENDBRANCH   1  18
TORSDOF 6
ENDMDL
MODEL 6
REMARK VINA RESULT:    -7.050      5.064     10.781
REMARK INTER + INTRA:         -10.804
REMARK INTER:                 -10.850
REMARK INTRA:                   0.045
REMARK UNBOUND:                -1.281
REMARK  Name = 
REMARK  7 active torsions:
REMARK  status: ('A' for Active; 'I' for Inactive)
REMARK    1  A    between atoms: C_1  and  N_2
REMARK    2  A    between atoms: N_2  and  C_3
REMARK    3  A    between atoms: C_3  and  C_4
REMARK    4  A    between atoms: C_7  and  C_8
REMARK    5  A    between atoms: C_8  and  N_9
REMARK    6  A    between atoms: N_9  and  C_10
REMARK    7  A    between atoms: C_18  and  C_20
REMARK                            x       y       z     vdW  Elec       q    Type
REMARK                         _______ _______ _______ _____ _____    ______ ____
ROOT
ATOM      1  C   UNL     1      44.150   4.180   9.805  0.00  0.00    +0.000 C 
ENDROOT
BRANCH   1   2
ATOM      2  C   UNL     1      45.067   3.409   8.924  0.00  0.00    +0.000 A 
ATOM      3  C   UNL     1      45.197   2.026   9.125  0.00  0.00    +0.000 A 
ATOM      4  C   UNL     1      45.982   1.277   8.265  0.00  0.00    +0.000 A 
ATOM      5  C   UNL     1      46.648   1.900   7.204  0.00  0.00    +0.000 A 
ATOM      6  C   UNL     1      46.537   3.288   7.033  0.00  0.00    +0.000 A 
ATOM      7  C   UNL     1      45.755   4.044   7.892  0.00  0.00    +0.000 A 
BRANCH   5   8
ATOM      8  C   UNL     1      47.502   1.115   6.242  0.00  0.00    +0.000 C 
BRANCH   8   9
ATOM      9  N   UNL     1      47.581   1.755   4.934  0.00  0.00    +0.000 NA
ATOM     10  H   UNL     1      48.521   2.128   4.807  0.00  0.00    +0.000 HD
BRANCH   9  11
ATOM     11  C   UNL     1      47.245   0.853   3.824  0.00  0.00    +0.000 C 
ATOM     12  C   UNL     1      45.923   1.210   3.116  0.00  0.00    +0.000 C 
ATOM     13  C   UNL     1      45.538   0.173   2.065  0.00  0.00    +0.000 C 
ATOM     14  C   UNL     1      45.447  -1.215   2.685  0.00  0.00    +0.000 C 
ATOM     15  C   UNL     1      46.765  -1.604   3.346  0.00  0.00    +0.000 C 
ATOM     16  C   UNL     1      47.193  -0.577   4.391  0.00  0.00    +0.000 C 
ENDBRANCH   9  11
ENDBRANCH   8   9
ENDBRANCH   5   8
ENDBRANCH   1   2
BRANCH   1  18
ATOM     17  C   UNL     1      43.476   2.286  11.335  0.00  0.00    +0.000 C 
ATOM     18  N   UNL     1      43.923   3.655  11.153  0.00  0.00    +0.000 N 
ATOM     19  C   UNL     1      44.590   4.203  12.274  0.00  0.00    +0.000 C 
ATOM     20  O   UNL     1      44.705   3.578  13.314  0.00  0.00    +0.000 OA
BRANCH  19  21
ATOM     21  C   UNL     1      45.107   5.570  12.155  0.00  0.00    +0.000 A 
ATOM     22  C   UNL     1      46.441   5.914  12.318  0.00  0.00    +0.000 A 
ATOM     23  S   UNL     1      46.778   7.556  12.040  0.00  0.00    +0.000 S 
ATOM     24  C   UNL     1      45.156   7.855  11.626  0.00  0.00    +0.000 A 
ATOM     25  N   UNL     1      44.772   9.076  11.176  0.00  0.00    +0.000 NA
ATOM     26  C   UNL     1      43.526   9.144  10.843  0.00  0.00    +0.000 A 
ATOM     27  N   UNL     1      42.624   8.118  10.969  0.00  0.00    +0.000 N 
ATOM     28  C   UNL     1      42.933   6.902  11.540  0.00  0.00    +0.000 A 
ATOM     29  O   UNL     1      42.063   6.110  11.846  0.00  0.00    +0.000 OA
ATOM     30  C   UNL     1      44.359   6.739  11.790  0.00  0.00    +0.000 A 
ATOM     31  H   UNL     1      41.651   8.250  10.727  0.00  0.00    +0.000 HD
ENDBRANCH  19  21
ENDBRANCH   1  18
TORSDOF 6
ENDMDL
MODEL 7
REMARK VINA RESULT:    -6.828      3.543      8.987
REMARK INTER + INTRA:         -10.504
REMARK INTER:                  -9.368
REMARK INTRA:                  -1.135
REMARK UNBOUND:                -1.281
REMARK  Name = 
REMARK  7 active torsions:
REMARK  status: ('A' for Active; 'I' for Inactive)
REMARK    1  A    between atoms: C_1  and  N_2
REMARK    2  A    between atoms: N_2  and  C_3
REMARK    3  A    between atoms: C_3  and  C_4
REMARK    4  A    between atoms: C_7  and  C_8
REMARK    5  A    between atoms: C_8  and  N_9
REMARK    6  A    between atoms: N_9  and  C_10
REMARK    7  A    between atoms: C_18  and  C_20
REMARK                            x       y       z     vdW  Elec       q    Type
REMARK                         _______ _______ _______ _____ _____    ______ ____
ROOT
ATOM      1  C   UNL     1      49.156   6.762  14.685  0.00  0.00    +0.000 C 
ENDROOT
BRANCH   1   2
ATOM      2  C   UNL     1      47.982   6.413  13.841  0.00  0.00    +0.000 A 
ATOM      3  C   UNL     1      47.735   7.160  12.679  0.00  0.00    +0.000 A 
ATOM      4  C   UNL     1      46.696   6.800  11.837  0.00  0.00    +0.000 A 
ATOM      5  C   UNL     1      45.892   5.698  12.150  0.00  0.00    +0.000 A 
ATOM      6  C   UNL     1      46.127   4.979  13.331  0.00  0.00    +0.000 A 
ATOM      7  C   UNL     1      47.164   5.336  14.179  0.00  0.00    +0.000 A 
BRANCH   5   8
ATOM      8  C   UNL     1      44.759   5.272  11.252  0.00  0.00    +0.000 C 
BRANCH   8   9
ATOM      9  N   UNL     1      45.059   5.509   9.845  0.00  0.00    +0.000 NA
ATOM     10  H   UNL     1      45.991   5.915   9.772  0.00  0.00    +0.000 HD
BRANCH   9  11
ATOM     11  C   UNL     1      44.973   4.297   9.019  0.00  0.00    +0.000 C 
ATOM     12  C   UNL     1      44.939   2.993   9.839  0.00  0.00    +0.000 C 
ATOM     13  C   UNL     1      44.991   1.755   8.948  0.00  0.00    +0.000 C 
ATOM     14  C   UNL     1      46.225   1.786   8.055  0.00  0.00    +0.000 C 
ATOM     15  C   UNL     1      46.247   3.047   7.199  0.00  0.00    +0.000 C 
ATOM     16  C   UNL     1      46.174   4.309   8.057  0.00  0.00    +0.000 C 
ENDBRANCH   9  11
ENDBRANCH   8   9
ENDBRANCH   5   8
ENDBRANCH   1   2
BRANCH   1  18
ATOM     17  C   UNL     1      48.470   9.031  15.555  0.00  0.00    +0.000 C 
ATOM     18  N   UNL     1      48.922   7.675  15.805  0.00  0.00    +0.000 N 
ATOM     19  C   UNL     1      48.610   7.185  17.095  0.00  0.00    +0.000 C 
ATOM     20  O   UNL     1      48.068   7.889  17.929  0.00  0.00    +0.000 OA
BRANCH  19  21
ATOM     21  C   UNL     1      48.999   5.807  17.412  0.00  0.00    +0.000 A 
ATOM     22  C   UNL     1      48.106   4.751  17.517  0.00  0.00    +0.000 A 
ATOM     23  S   UNL     1      48.836   3.245  17.807  0.00  0.00    +0.000 S 
ATOM     24  C   UNL     1      50.385   3.943  17.738  0.00  0.00    +0.000 A 
ATOM     25  N   UNL     1      51.495   3.166  17.808  0.00  0.00    +0.000 NA
ATOM     26  C   UNL     1      52.601   3.821  17.683  0.00  0.00    +0.000 A 
ATOM     27  N   UNL     1      52.695   5.183  17.544  0.00  0.00    +0.000 N 
ATOM     28  C   UNL     1      51.606   6.027  17.596  0.00  0.00    +0.000 A 
ATOM     29  O   UNL     1      51.746   7.230  17.705  0.00  0.00    +0.000 OA
ATOM     30  C   UNL     1      50.336   5.315  17.588  0.00  0.00    +0.000 A 
ATOM     31  H   UNL     1      53.596   5.638  17.492  0.00  0.00    +0.000 HD
ENDBRANCH  19  21
ENDBRANCH   1  18
TORSDOF 6
ENDMDL
MODEL 8
REMARK VINA RESULT:    -6.796      4.058     10.764
REMARK INTER + INTRA:         -10.461
REMARK INTER:                 -10.899
REMARK INTRA:                   0.438
REMARK UNBOUND:                -1.281
REMARK  Name = 
REMARK  7 active torsions:
REMARK  status: ('A' for Active; 'I' for Inactive)
REMARK    1  A    between atoms: C_1  and  N_2
REMARK    2  A    between atoms: N_2  and  C_3
REMARK    3  A    between atoms: C_3  and  C_4
REMARK    4  A    between atoms: C_7  and  C_8
REMARK    5  A    between atoms: C_8  and  N_9
REMARK    6  A    between atoms: N_9  and  C_10
REMARK    7  A    between atoms: C_18  and  C_20
REMARK                            x       y       z     vdW  Elec       q    Type
REMARK                         _______ _______ _______ _____ _____    ______ ____
ROOT
ATOM      1  C   UNL     1      44.164   4.514   9.942  0.00  0.00    +0.000 C 
ENDROOT
BRANCH   1   2
ATOM      2  C   UNL     1      45.027   3.663   9.080  0.00  0.00    +0.000 A 
ATOM      3  C   UNL     1      45.035   2.275   9.286  0.00  0.00    +0.000 A 
ATOM      4  C   UNL     1      45.768   1.458   8.443  0.00  0.00    +0.000 A 
ATOM      5  C   UNL     1      46.504   2.017   7.392  0.00  0.00    +0.000 A 
ATOM      6  C   UNL     1      46.516   3.409   7.215  0.00  0.00    +0.000 A 
ATOM      7  C   UNL     1      45.786   4.233   8.059  0.00  0.00    +0.000 A 
BRANCH   5   8
ATOM      8  C   UNL     1      47.306   1.158   6.448  0.00  0.00    +0.000 C 
BRANCH   8   9
ATOM      9  N   UNL     1      47.513   1.810   5.160  0.00  0.00    +0.000 NA
ATOM     10  H   UNL     1      48.473   2.152   5.116  0.00  0.00    +0.000 HD
BRANCH   9  11
ATOM     11  C   UNL     1      47.239   0.933   4.014  0.00  0.00    +0.000 C 
ATOM     12  C   UNL     1      45.972   1.321   3.228  0.00  0.00    +0.000 C 
ATOM     13  C   UNL     1      45.643   0.309   2.134  0.00  0.00    +0.000 C 
ATOM     14  C   UNL     1      45.494  -1.088   2.721  0.00  0.00    +0.000 C 
ATOM     15  C   UNL     1      46.761  -1.508   3.458  0.00  0.00    +0.000 C 
ATOM     16  C   UNL     1      47.133  -0.506   4.549  0.00  0.00    +0.000 C 
ENDBRANCH   9  11
ENDBRANCH   8   9
ENDBRANCH   5   8
ENDBRANCH   1   2
BRANCH   1  18
ATOM     17  C   UNL     1      43.380   2.649  11.455  0.00  0.00    +0.000 C 
ATOM     18  N   UNL     1      43.858   4.008  11.281  0.00  0.00    +0.000 N 
ATOM     19  C   UNL     1      44.474   4.560  12.430  0.00  0.00    +0.000 C 
ATOM     20  O   UNL     1      44.524   3.947  13.482  0.00  0.00    +0.000 OA
BRANCH  19  21
ATOM     21  C   UNL     1      45.018   5.917  12.323  0.00  0.00    +0.000 A 
ATOM     22  C   UNL     1      44.345   6.983  11.744  0.00  0.00    +0.000 A 
ATOM     23  S   UNL     1      45.172   8.464  11.833  0.00  0.00    +0.000 S 
ATOM     24  C   UNL     1      46.439   7.744  12.710  0.00  0.00    +0.000 A 
ATOM     25  N   UNL     1      47.453   8.499  13.203  0.00  0.00    +0.000 NA
ATOM     26  C   UNL     1      48.312   7.831  13.898  0.00  0.00    +0.000 A 
ATOM     27  N   UNL     1      48.274   6.475  14.101  0.00  0.00    +0.000 N 
ATOM     28  C   UNL     1      47.338   5.648  13.516  0.00  0.00    +0.000 A 
ATOM     29  O   UNL     1      47.473   4.439  13.527  0.00  0.00    +0.000 OA
ATOM     30  C   UNL     1      46.271   6.380  12.849  0.00  0.00    +0.000 A 
ATOM     31  H   UNL     1      49.002   6.008  14.623  0.00  0.00    +0.000 HD
ENDBRANCH  19  21
ENDBRANCH   1  18
TORSDOF 6
ENDMDL
MODEL 9
REMARK VINA RESULT:    -6.512      3.842      8.814
REMARK INTER + INTRA:         -10.077
REMARK INTER:                  -8.826
REMARK INTRA:                  -1.251
REMARK UNBOUND:                -1.281
REMARK  Name = 
REMARK  7 active torsions:
REMARK  status: ('A' for Active; 'I' for Inactive)
REMARK    1  A    between atoms: C_1  and  N_2
REMARK    2  A    between atoms: N_2  and  C_3
REMARK    3  A    between atoms: C_3  and  C_4
REMARK    4  A    between atoms: C_7  and  C_8
REMARK    5  A    between atoms: C_8  and  N_9
REMARK    6  A    between atoms: N_9  and  C_10
REMARK    7  A    between atoms: C_18  and  C_20
REMARK                            x       y       z     vdW  Elec       q    Type
REMARK                         _______ _______ _______ _____ _____    ______ ____
ROOT
ATOM      1  C   UNL     1      48.626   6.618  13.240  0.00  0.00    +0.000 C 
ENDROOT
BRANCH   1   2
ATOM      2  C   UNL     1      47.345   6.132  12.663  0.00  0.00    +0.000 A 
ATOM      3  C   UNL     1      46.807   6.793  11.548  0.00  0.00    +0.000 A 
ATOM      4  C   UNL     1      45.659   6.307  10.947  0.00  0.00    +0.000 A 
ATOM      5  C   UNL     1      45.034   5.162  11.455  0.00  0.00    +0.000 A 
ATOM      6  C   UNL     1      45.562   4.528  12.590  0.00  0.00    +0.000 A 
ATOM      7  C   UNL     1      46.709   5.013  13.198  0.00  0.00    +0.000 A 
BRANCH   5   8
ATOM      8  C   UNL     1      43.789   4.598  10.820  0.00  0.00    +0.000 C 
BRANCH   8   9
ATOM      9  N   UNL     1      43.936   4.438   9.378  0.00  0.00    +0.000 NA
ATOM     10  H   UNL     1      43.913   5.359   8.941  0.00  0.00    +0.000 HD
BRANCH   9  11
ATOM     11  C   UNL     1      45.165   3.731   8.994  0.00  0.00    +0.000 C 
ATOM     12  C   UNL     1      45.795   4.252   7.687  0.00  0.00    +0.000 C 
ATOM     13  C   UNL     1      46.986   3.406   7.248  0.00  0.00    +0.000 C 
ATOM     14  C   UNL     1      46.581   1.946   7.094  0.00  0.00    +0.000 C 
ATOM     15  C   UNL     1      46.003   1.400   8.395  0.00  0.00    +0.000 C 
ATOM     16  C   UNL     1      44.820   2.236   8.877  0.00  0.00    +0.000 C 
ENDBRANCH   9  11
ENDBRANCH   8   9
ENDBRANCH   5   8
ENDBRANCH   1   2
BRANCH   1  18
ATOM     17  C   UNL     1      48.703   6.724  15.762  0.00  0.00    +0.000 C 
ATOM     18  N   UNL     1      48.546   7.389  14.482  0.00  0.00    +0.000 N 
ATOM     19  C   UNL     1      48.840   8.773  14.505  0.00  0.00    +0.000 C 
ATOM     20  O   UNL     1      49.131   9.344  15.541  0.00  0.00    +0.000 OA
BRANCH  19  21
ATOM     21  C   UNL     1      48.742   9.510  13.241  0.00  0.00    +0.000 A 
ATOM     22  C   UNL     1      47.589  10.137  12.794  0.00  0.00    +0.000 A 
ATOM     23  S   UNL     1      47.779  10.992  11.338  0.00  0.00    +0.000 S 
ATOM     24  C   UNL     1      49.434  10.607  11.286  0.00  0.00    +0.000 A 
ATOM     25  N   UNL     1      50.234  11.127  10.321  0.00  0.00    +0.000 NA
ATOM     26  C   UNL     1      51.477  10.797  10.439  0.00  0.00    +0.000 A 
ATOM     27  N   UNL     1      51.979   9.958  11.401  0.00  0.00    +0.000 N 
ATOM     28  C   UNL     1      51.190   9.304  12.323  0.00  0.00    +0.000 A 
ATOM     29  O   UNL     1      51.634   8.397  13.001  0.00  0.00    +0.000 OA
ATOM     30  C   UNL     1      49.808   9.764  12.314  0.00  0.00    +0.000 A 
ATOM     31  H   UNL     1      52.959   9.708  11.412  0.00  0.00    +0.000 HD
ENDBRANCH  19  21
ENDBRANCH   1  18
TORSDOF 6
ENDMDL
