MODEL 1
REMARK VINA RESULT:    -8.498      0.000      0.000
REMARK INTER + INTRA:         -13.753
REMARK INTER:                 -12.473
REMARK INTRA:                  -1.280
REMARK UNBOUND:                -1.280
REMARK  Name = 
REMARK  9 active torsions:
REMARK  status: ('A' for Active; 'I' for Inactive)
REMARK    1  A    between atoms: C_1  and  C_2
REMARK    2  A    between atoms: C_2  and  C_3
REMARK    3  A    between atoms: C_3  and  N_4
REMARK    4  A    between atoms: C_3  and  C_12
REMARK    5  A    between atoms: N_4  and  C_5
REMARK    6  A    between atoms: C_5  and  C_6
REMARK    7  A    between atoms: C_15  and  C_16
REMARK    8  A    between atoms: C_16  and  N_17
REMARK    9  A    between atoms: C_18  and  C_20
REMARK                            x       y       z     vdW  Elec       q    Type
REMARK                         _______ _______ _______ _____ _____    ______ ____
ROOT
ATOM      1  C   UNL     1      45.417   4.408  12.208  0.00  0.00    +0.000 A 
ATOM      2  C   UNL     1      45.846   5.576  11.551  0.00  0.00    +0.000 A 
ATOM      3  C   UNL     1      46.796   6.428  12.129  0.00  0.00    +0.000 A 
ATOM      4  C   UNL     1      47.386   6.097  13.354  0.00  0.00    +0.000 A 
ATOM      5  C   UNL     1      46.981   4.929  14.004  0.00  0.00    +0.000 A 
ATOM      6  C   UNL     1      46.006   4.103  13.445  0.00  0.00    +0.000 A 
ENDROOT
BRANCH   1   7
ATOM      7  C   UNL     1      44.270   3.571  11.624  0.00  0.00    +0.000 C 
BRANCH   7   9
ATOM      8  C   UNL     1      42.395   5.394  11.763  0.00  0.00    +0.000 C 
ATOM      9  C   UNL     1      43.239   4.475  10.890  0.00  0.00    +0.000 C 
ENDBRANCH   7   9
BRANCH   7  10
ATOM     10  N   UNL     1      44.766   2.505  10.728  0.00  0.00    +0.000 NA
ATOM     11  H   UNL     1      44.384   1.612  11.037  0.00  0.00    +0.000 HD
BRANCH  10  12
ATOM     12  C   UNL     1      44.379   2.711   9.327  0.00  0.00    +0.000 C 
BRANCH  12  13
ATOM     13  C   UNL     1      45.540   2.592   8.367  0.00  0.00    +0.000 A 
ATOM     14  C   UNL     1      46.224   1.373   8.220  0.00  0.00    +0.000 A 
ATOM     15  C   UNL     1      47.239   1.240   7.273  0.00  0.00    +0.000 A 
ATOM     16  C   UNL     1      47.580   2.325   6.466  0.00  0.00    +0.000 A 
ATOM     17  C   UNL     1      46.919   3.544   6.617  0.00  0.00    +0.000 A 
ATOM     18  C   UNL     1      45.904   3.679   7.565  0.00  0.00    +0.000 A 
ENDBRANCH  12  13
ENDBRANCH  10  12
ENDBRANCH   7  10
ENDBRANCH   1   7
BRANCH   4  19
ATOM     19  C   UNL     1      48.416   6.983  13.999  0.00  0.00    +0.000 C 
BRANCH  19  20
ATOM     20  N   UNL     1      48.242   7.023  15.430  0.00  0.00    +0.000 N 
ATOM     21  C   UNL     1      49.210   6.636  16.319  0.00  0.00    +0.000 C 
ATOM     22  O   UNL     1      50.288   6.172  15.963  0.00  0.00    +0.000 OA
ATOM     23  H   UNL     1      47.314   7.258  15.763  0.00  0.00    +0.000 HD
BRANCH  21  24
ATOM     24  C   UNL     1      48.918   6.886  17.737  0.00  0.00    +0.000 A 
ATOM     25  C   UNL     1      48.759   8.188  18.194  0.00  0.00    +0.000 A 
ATOM     26  S   UNL     1      48.368   8.286  19.852  0.00  0.00    +0.000 S 
ATOM     27  C   UNL     1      48.449   6.597  20.032  0.00  0.00    +0.000 A 
ATOM     28  N   UNL     1      48.232   6.010  21.237  0.00  0.00    +0.000 NA
ATOM     29  C   UNL     1      48.365   4.720  21.232  0.00  0.00    +0.000 A 
ATOM     30  N   UNL     1      48.682   3.972  20.135  0.00  0.00    +0.000 N 
ATOM     31  C   UNL     1      48.849   4.514  18.882  0.00  0.00    +0.000 A 
ATOM     32  O   UNL     1      49.034   3.800  17.907  0.00  0.00    +0.000 OA
ATOM     33  C   UNL     1      48.751   5.961  18.837  0.00  0.00    +0.000 A 
ATOM     34  H   UNL     1      48.746   2.968  20.195  0.00  0.00    +0.000 HD
ENDBRANCH  21  24
ENDBRANCH  19  20
ENDBRANCH   4  19
TORSDOF 8
ENDMDL
MODEL 2
REMARK VINA RESULT:    -8.282      1.446      2.193
REMARK INTER + INTRA:         -13.435
REMARK INTER:                 -11.994
REMARK INTRA:                  -1.441
REMARK UNBOUND:                -1.280
REMARK  Name = 
REMARK  9 active torsions:
REMARK  status: ('A' for Active; 'I' for Inactive)
REMARK    1  A    between atoms: C_1  and  C_2
REMARK    2  A    between atoms: C_2  and  C_3
REMARK    3  A    between atoms: C_3  and  N_4
REMARK    4  A    between atoms: C_3  and  C_12
REMARK    5  A    between atoms: N_4  and  C_5
REMARK    6  A    between atoms: C_5  and  C_6
REMARK    7  A    between atoms: C_15  and  C_16
REMARK    8  A    between atoms: C_16  and  N_17
REMARK    9  A    between atoms: C_18  and  C_20
REMARK                            x       y       z     vdW  Elec       q    Type
REMARK                         _______ _______ _______ _____ _____    ______ ____
ROOT
ATOM      1  C   UNL     1      45.637   4.980  11.888  0.00  0.00    +0.000 A 
ATOM      2  C   UNL     1      45.965   4.403  13.129  0.00  0.00    +0.000 A 
ATOM      3  C   UNL     1      46.901   5.000  13.983  0.00  0.00    +0.000 A 
ATOM      4  C   UNL     1      47.486   6.225  13.642  0.00  0.00    +0.000 A 
ATOM      5  C   UNL     1      47.150   6.815  12.421  0.00  0.00    +0.000 A 
ATOM      6  C   UNL     1      46.248   6.198  11.555  0.00  0.00    +0.000 A 
ENDROOT
BRANCH   1   7
ATOM      7  C   UNL     1      44.722   4.232  10.909  0.00  0.00    +0.000 C 
BRANCH   7   9
ATOM      8  C   UNL     1      42.560   5.446  11.751  0.00  0.00    +0.000 C 
ATOM      9  C   UNL     1      43.274   4.132  11.465  0.00  0.00    +0.000 C 
ENDBRANCH   7   9
BRANCH   7  10
ATOM     10  N   UNL     1      44.728   4.850   9.566  0.00  0.00    +0.000 NA
ATOM     11  H   UNL     1      45.663   5.211   9.374  0.00  0.00    +0.000 HD
BRANCH  10  12
ATOM     12  C   UNL     1      44.371   3.906   8.501  0.00  0.00    +0.000 C 
BRANCH  12  13
ATOM     13  C   UNL     1      45.542   3.077   8.026  0.00  0.00    +0.000 A 
ATOM     14  C   UNL     1      45.657   1.726   8.395  0.00  0.00    +0.000 A 
ATOM     15  C   UNL     1      46.691   0.939   7.888  0.00  0.00    +0.000 A 
ATOM     16  C   UNL     1      47.618   1.496   7.009  0.00  0.00    +0.000 A 
ATOM     17  C   UNL     1      47.522   2.841   6.650  0.00  0.00    +0.000 A 
ATOM     18  C   UNL     1      46.490   3.630   7.159  0.00  0.00    +0.000 A 
ENDBRANCH  12  13
ENDBRANCH  10  12
ENDBRANCH   7  10
ENDBRANCH   1   7
BRANCH   4  19
ATOM     19  C   UNL     1      48.487   6.900  14.538  0.00  0.00    +0.000 C 
BRANCH  19  20
ATOM     20  N   UNL     1      48.268   6.549  15.919  0.00  0.00    +0.000 N 
ATOM     21  C   UNL     1      49.242   6.033  16.731  0.00  0.00    +0.000 C 
ATOM     22  O   UNL     1      50.373   5.779  16.328  0.00  0.00    +0.000 OA
ATOM     23  H   UNL     1      47.311   6.602  16.249  0.00  0.00    +0.000 HD
BRANCH  21  24
ATOM     24  C   UNL     1      48.885   5.876  18.148  0.00  0.00    +0.000 A 
ATOM     25  C   UNL     1      49.072   4.654  18.779  0.00  0.00    +0.000 A 
ATOM     26  S   UNL     1      48.659   4.671  20.435  0.00  0.00    +0.000 S 
ATOM     27  C   UNL     1      48.164   6.296  20.355  0.00  0.00    +0.000 A 
ATOM     28  N   UNL     1      47.672   6.933  21.449  0.00  0.00    +0.000 NA
ATOM     29  C   UNL     1      47.300   8.156  21.230  0.00  0.00    +0.000 A 
ATOM     30  N   UNL     1      47.386   8.794  20.027  0.00  0.00    +0.000 N 
ATOM     31  C   UNL     1      47.933   8.213  18.908  0.00  0.00    +0.000 A 
ATOM     32  O   UNL     1      48.084   8.851  17.876  0.00  0.00    +0.000 OA
ATOM     33  C   UNL     1      48.331   6.828  19.085  0.00  0.00    +0.000 A 
ATOM     34  H   UNL     1      47.100   9.757  19.932  0.00  0.00    +0.000 HD
ENDBRANCH  21  24
ENDBRANCH  19  20
ENDBRANCH   4  19
TORSDOF 8
ENDMDL
MODEL 3
REMARK VINA RESULT:    -8.129      2.021      2.436
REMARK INTER + INTRA:         -13.210
REMARK INTER:                 -11.504
REMARK INTRA:                  -1.707
REMARK UNBOUND:                -1.280
REMARK  Name = 
REMARK  9 active torsions:
REMARK  status: ('A' for Active; 'I' for Inactive)
REMARK    1  A    between atoms: C_1  and  C_2
REMARK    2  A    between atoms: C_2  and  C_3
REMARK    3  A    between atoms: C_3  and  N_4
REMARK    4  A    between atoms: C_3  and  C_12
REMARK    5  A    between atoms: N_4  and  C_5
REMARK    6  A    between atoms: C_5  and  C_6
REMARK    7  A    between atoms: C_15  and  C_16
REMARK    8  A    between atoms: C_16  and  N_17
REMARK    9  A    between atoms: C_18  and  C_20
REMARK                            x       y       z     vdW  Elec       q    Type
REMARK                         _______ _______ _______ _____ _____    ______ ____
ROOT
ATOM      1  C   UNL     1      45.569   4.801  12.104  0.00  0.00    +0.000 A 
ATOM      2  C   UNL     1      45.879   5.822  11.187  0.00  0.00    +0.000 A 
ATOM      3  C   UNL     1      46.858   6.782  11.472  0.00  0.00    +0.000 A 
ATOM      4  C   UNL     1      47.597   6.706  12.658  0.00  0.00    +0.000 A 
ATOM      5  C   UNL     1      47.309   5.683  13.566  0.00  0.00    +0.000 A 
ATOM      6  C   UNL     1      46.307   4.752  13.297  0.00  0.00    +0.000 A 
ENDROOT
BRANCH   1   7
ATOM      7  C   UNL     1      44.393   3.852  11.833  0.00  0.00    +0.000 C 
BRANCH   7   9
ATOM      8  C   UNL     1      42.406   5.557  11.872  0.00  0.00    +0.000 C 
ATOM      9  C   UNL     1      43.254   4.581  11.067  0.00  0.00    +0.000 C 
ENDBRANCH   7   9
BRANCH   7  10
ATOM     10  N   UNL     1      44.820   2.637  11.109  0.00  0.00    +0.000 NA
ATOM     11  H   UNL     1      44.464   1.818  11.601  0.00  0.00    +0.000 HD
BRANCH  10  12
ATOM     12  C   UNL     1      44.327   2.593   9.727  0.00  0.00    +0.000 C 
BRANCH  12  13
ATOM     13  C   UNL     1      45.435   2.618   8.700  0.00  0.00    +0.000 A 
ATOM     14  C   UNL     1      46.086   1.431   8.323  0.00  0.00    +0.000 A 
ATOM     15  C   UNL     1      47.049   1.441   7.314  0.00  0.00    +0.000 A 
ATOM     16  C   UNL     1      47.369   2.638   6.675  0.00  0.00    +0.000 A 
ATOM     17  C   UNL     1      46.741   3.824   7.054  0.00  0.00    +0.000 A 
ATOM     18  C   UNL     1      45.779   3.815   8.065  0.00  0.00    +0.000 A 
ENDBRANCH  12  13
ENDBRANCH  10  12
ENDBRANCH   7  10
ENDBRANCH   1   7
BRANCH   4  19
ATOM     19  C   UNL     1      48.662   7.713  12.993  0.00  0.00    +0.000 C 
BRANCH  19  20
ATOM     20  N   UNL     1      49.665   7.141  13.855  0.00  0.00    +0.000 N 
ATOM     21  C   UNL     1      50.395   7.872  14.754  0.00  0.00    +0.000 C 
ATOM     22  O   UNL     1      50.288   9.090  14.857  0.00  0.00    +0.000 OA
ATOM     23  H   UNL     1      49.891   6.165  13.695  0.00  0.00    +0.000 HD
BRANCH  21  24
ATOM     24  C   UNL     1      51.264   7.104  15.656  0.00  0.00    +0.000 A 
ATOM     25  C   UNL     1      52.642   7.267  15.598  0.00  0.00    +0.000 A 
ATOM     26  S   UNL     1      53.487   6.341  16.756  0.00  0.00    +0.000 S 
ATOM     27  C   UNL     1      52.048   5.649  17.341  0.00  0.00    +0.000 A 
ATOM     28  N   UNL     1      52.068   4.735  18.344  0.00  0.00    +0.000 NA
ATOM     29  C   UNL     1      50.901   4.266  18.660  0.00  0.00    +0.000 A 
ATOM     30  N   UNL     1      49.726   4.636  18.071  0.00  0.00    +0.000 N 
ATOM     31  C   UNL     1      49.648   5.601  17.096  0.00  0.00    +0.000 A 
ATOM     32  O   UNL     1      48.567   5.976  16.665  0.00  0.00    +0.000 OA
ATOM     33  C   UNL     1      50.931   6.133  16.675  0.00  0.00    +0.000 A 
ATOM     34  H   UNL     1      48.848   4.248  18.383  0.00  0.00    +0.000 HD
ENDBRANCH  21  24
ENDBRANCH  19  20
ENDBRANCH   4  19
TORSDOF 8
ENDMDL
MODEL 4
REMARK VINA RESULT:    -7.466      2.404      3.074
REMARK INTER + INTRA:         -12.238
REMARK INTER:                 -10.879
REMARK INTRA:                  -1.360
REMARK UNBOUND:                -1.280
REMARK  Name = 
REMARK  9 active torsions:
REMARK  status: ('A' for Active; 'I' for Inactive)
REMARK    1  A    between atoms: C_1  and  C_2
REMARK    2  A    between atoms: C_2  and  C_3
REMARK    3  A    between atoms: C_3  and  N_4
REMARK    4  A    between atoms: C_3  and  C_12
REMARK    5  A    between atoms: N_4  and  C_5
REMARK    6  A    between atoms: C_5  and  C_6
REMARK    7  A    between atoms: C_15  and  C_16
REMARK    8  A    between atoms: C_16  and  N_17
REMARK    9  A    between atoms: C_18  and  C_20
REMARK                            x       y       z     vdW  Elec       q    Type
REMARK                         _______ _______ _______ _____ _____    ______ ____
ROOT
ATOM      1  C   UNL     1      45.944   4.706  12.421  0.00  0.00    +0.000 A 
ATOM      2  C   UNL     1      46.414   4.071  13.585  0.00  0.00    +0.000 A 
ATOM      3  C   UNL     1      47.207   4.754  14.516  0.00  0.00    +0.000 A 
ATOM      4  C   UNL     1      47.495   6.111  14.335  0.00  0.00    +0.000 A 
ATOM      5  C   UNL     1      47.015   6.756  13.193  0.00  0.00    +0.000 A 
ATOM      6  C   UNL     1      46.260   6.063  12.247  0.00  0.00    +0.000 A 
ENDROOT
BRANCH   1   7
ATOM      7  C   UNL     1      45.205   3.898  11.346  0.00  0.00    +0.000 C 
BRANCH   7   9
ATOM      8  C   UNL     1      42.867   4.836  12.063  0.00  0.00    +0.000 C 
ATOM      9  C   UNL     1      43.735   3.620  11.771  0.00  0.00    +0.000 C 
ENDBRANCH   7   9
BRANCH   7  10
ATOM     10  N   UNL     1      45.254   4.561  10.025  0.00  0.00    +0.000 NA
ATOM     11  H   UNL     1      46.229   4.690   9.758  0.00  0.00    +0.000 HD
BRANCH  10  12
ATOM     12  C   UNL     1      44.588   3.785   8.972  0.00  0.00    +0.000 C 
BRANCH  12  13
ATOM     13  C   UNL     1      45.548   2.970   8.138  0.00  0.00    +0.000 A 
ATOM     14  C   UNL     1      46.225   3.554   7.054  0.00  0.00    +0.000 A 
ATOM     15  C   UNL     1      47.176   2.827   6.337  0.00  0.00    +0.000 A 
ATOM     16  C   UNL     1      47.456   1.510   6.699  0.00  0.00    +0.000 A 
ATOM     17  C   UNL     1      46.777   0.916   7.763  0.00  0.00    +0.000 A 
ATOM     18  C   UNL     1      45.825   1.642   8.479  0.00  0.00    +0.000 A 
ENDBRANCH  12  13
ENDBRANCH  10  12
ENDBRANCH   7  10
ENDBRANCH   1   7
BRANCH   4  19
ATOM     19  C   UNL     1      48.334   6.879  15.320  0.00  0.00    +0.000 C 
BRANCH  19  20
ATOM     20  N   UNL     1      49.484   6.113  15.730  0.00  0.00    +0.000 N 
ATOM     21  C   UNL     1      50.018   6.168  16.990  0.00  0.00    +0.000 C 
ATOM     22  O   UNL     1      49.587   6.921  17.858  0.00  0.00    +0.000 OA
ATOM     23  H   UNL     1      49.961   5.594  15.001  0.00  0.00    +0.000 HD
BRANCH  21  24
ATOM     24  C   UNL     1      51.094   5.209  17.277  0.00  0.00    +0.000 A 
ATOM     25  C   UNL     1      52.392   5.660  17.473  0.00  0.00    +0.000 A 
ATOM     26  S   UNL     1      53.496   4.416  17.854  0.00  0.00    +0.000 S 
ATOM     27  C   UNL     1      52.291   3.224  17.718  0.00  0.00    +0.000 A 
ATOM     28  N   UNL     1      52.581   1.911  17.906  0.00  0.00    +0.000 NA
ATOM     29  C   UNL     1      51.572   1.113  17.733  0.00  0.00    +0.000 A 
ATOM     30  N   UNL     1      50.310   1.513  17.402  0.00  0.00    +0.000 N 
ATOM     31  C   UNL     1      49.954   2.833  17.262  0.00  0.00    +0.000 A 
ATOM     32  O   UNL     1      48.792   3.155  17.063  0.00  0.00    +0.000 OA
ATOM     33  C   UNL     1      51.054   3.769  17.406  0.00  0.00    +0.000 A 
ATOM     34  H   UNL     1      49.564   0.840  17.306  0.00  0.00    +0.000 HD
ENDBRANCH  21  24
ENDBRANCH  19  20
ENDBRANCH   4  19
TORSDOF 8
ENDMDL
MODEL 5
REMARK VINA RESULT:    -7.374      1.763      2.429
REMARK INTER + INTRA:         -12.102
REMARK INTER:                 -10.962
REMARK INTRA:                  -1.140
REMARK UNBOUND:                -1.280
REMARK  Name = 
REMARK  9 active torsions:
REMARK  status: ('A' for Active; 'I' for Inactive)
REMARK    1  A    between atoms: C_1  and  C_2
REMARK    2  A    between atoms: C_2  and  C_3
REMARK    3  A    between atoms: C_3  and  N_4
REMARK    4  A    between atoms: C_3  and  C_12
REMARK    5  A    between atoms: N_4  and  C_5
REMARK    6  A    between atoms: C_5  and  C_6
REMARK    7  A    between atoms: C_15  and  C_16
REMARK    8  A    between atoms: C_16  and  N_17
REMARK    9  A    between atoms: C_18  and  C_20
REMARK                            x       y       z     vdW  Elec       q    Type
REMARK                         _______ _______ _______ _____ _____    ______ ____
ROOT
ATOM      1  C   UNL     1      45.036   5.135  11.295  0.00  0.00    +0.000 A 
ATOM      2  C   UNL     1      46.218   5.219  12.055  0.00  0.00    +0.000 A 
ATOM      3  C   UNL     1      46.654   6.438  12.588  0.00  0.00    +0.000 A 
ATOM      4  C   UNL     1      45.883   7.595  12.426  0.00  0.00    +0.000 A 
ATOM      5  C   UNL     1      44.698   7.517  11.691  0.00  0.00    +0.000 A 
ATOM      6  C   UNL     1      44.287   6.310  11.127  0.00  0.00    +0.000 A 
ENDROOT
BRANCH   1   7
ATOM      7  C   UNL     1      44.659   3.821  10.598  0.00  0.00    +0.000 C 
BRANCH   7   9
ATOM      8  C   UNL     1      43.459   3.119  12.818  0.00  0.00    +0.000 C 
ATOM      9  C   UNL     1      43.442   3.151  11.295  0.00  0.00    +0.000 C 
ENDBRANCH   7   9
BRANCH   7  10
ATOM     10  N   UNL     1      44.398   4.015   9.157  0.00  0.00    +0.000 NA
ATOM     11  H   UNL     1      43.710   4.760   9.044  0.00  0.00    +0.000 HD
BRANCH  10  12
ATOM     12  C   UNL     1      45.603   4.384   8.403  0.00  0.00    +0.000 C 
BRANCH  12  13
ATOM     13  C   UNL     1      46.240   3.213   7.693  0.00  0.00    +0.000 A 
ATOM     14  C   UNL     1      46.206   1.928   8.261  0.00  0.00    +0.000 A 
ATOM     15  C   UNL     1      46.718   0.832   7.567  0.00  0.00    +0.000 A 
ATOM     16  C   UNL     1      47.270   1.013   6.299  0.00  0.00    +0.000 A 
ATOM     17  C   UNL     1      47.324   2.287   5.734  0.00  0.00    +0.000 A 
ATOM     18  C   UNL     1      46.814   3.384   6.428  0.00  0.00    +0.000 A 
ENDBRANCH  12  13
ENDBRANCH  10  12
ENDBRANCH   7  10
ENDBRANCH   1   7
BRANCH   4  19
ATOM     19  C   UNL     1      46.315   8.919  12.993  0.00  0.00    +0.000 C 
BRANCH  19  20
ATOM     20  N   UNL     1      46.891   8.759  14.305  0.00  0.00    +0.000 N 
ATOM     21  C   UNL     1      48.226   8.914  14.567  0.00  0.00    +0.000 C 
ATOM     22  O   UNL     1      49.049   9.151  13.689  0.00  0.00    +0.000 OA
ATOM     23  H   UNL     1      46.270   8.416  15.029  0.00  0.00    +0.000 HD
BRANCH  21  24
ATOM     24  C   UNL     1      48.615   8.863  15.983  0.00  0.00    +0.000 A 
ATOM     25  C   UNL     1      48.767  10.040  16.703  0.00  0.00    +0.000 A 
ATOM     26  S   UNL     1      49.162   9.789  18.344  0.00  0.00    +0.000 S 
ATOM     27  C   UNL     1      49.198   8.102  18.140  0.00  0.00    +0.000 A 
ATOM     28  N   UNL     1      49.501   7.277  19.175  0.00  0.00    +0.000 NA
ATOM     29  C   UNL     1      49.528   6.018  18.862  0.00  0.00    +0.000 A 
ATOM     30  N   UNL     1      49.270   5.518  17.618  0.00  0.00    +0.000 N 
ATOM     31  C   UNL     1      48.899   6.306  16.555  0.00  0.00    +0.000 A 
ATOM     32  O   UNL     1      48.580   5.811  15.484  0.00  0.00    +0.000 OA
ATOM     33  C   UNL     1      48.892   7.730  16.839  0.00  0.00    +0.000 A 
ATOM     34  H   UNL     1      49.284   4.523  17.449  0.00  0.00    +0.000 HD
ENDBRANCH  21  24
ENDBRANCH  19  20
ENDBRANCH   4  19
TORSDOF 8
ENDMDL
MODEL 6
REMARK VINA RESULT:    -7.227      3.498      8.715
REMARK INTER + INTRA:         -11.888
REMARK INTER:                  -9.996
REMARK INTRA:                  -1.892
REMARK UNBOUND:                -1.280
REMARK  Name = 
REMARK  9 active torsions:
REMARK  status: ('A' for Active; 'I' for Inactive)
REMARK    1  A    between atoms: C_1  and  C_2
REMARK    2  A    between atoms: C_2  and  C_3
REMARK    3  A    between atoms: C_3  and  N_4
REMARK    4  A    between atoms: C_3  and  C_12
REMARK    5  A    between atoms: N_4  and  C_5
REMARK    6  A    between atoms: C_5  and  C_6
REMARK    7  A    between atoms: C_15  and  C_16
REMARK    8  A    between atoms: C_16  and  N_17
REMARK    9  A    between atoms: C_18  and  C_20
REMARK                            x       y       z     vdW  Elec       q    Type
REMARK                         _______ _______ _______ _____ _____    ______ ____
ROOT
ATOM      1  C   UNL     1      48.636   7.704  16.640  0.00  0.00    +0.000 A 
ATOM      2  C   UNL     1      48.977   6.598  15.838  0.00  0.00    +0.000 A 
ATOM      3  C   UNL     1      48.865   6.650  14.443  0.00  0.00    +0.000 A 
ATOM      4  C   UNL     1      48.469   7.834  13.811  0.00  0.00    +0.000 A 
ATOM      5  C   UNL     1      48.149   8.943  14.597  0.00  0.00    +0.000 A 
ATOM      6  C   UNL     1      48.222   8.876  15.988  0.00  0.00    +0.000 A 
ENDROOT
BRANCH   1   7
ATOM      7  C   UNL     1      48.625   7.574  18.169  0.00  0.00    +0.000 C 
BRANCH   7   9
ATOM      8  C   UNL     1      47.330   9.219  19.741  0.00  0.00    +0.000 C 
ATOM      9  C   UNL     1      48.536   8.970  18.846  0.00  0.00    +0.000 C 
ENDBRANCH   7   9
BRANCH   7  10
ATOM     10  N   UNL     1      47.537   6.691  18.640  0.00  0.00    +0.000 NA
ATOM     11  H   UNL     1      47.011   6.357  17.832  0.00  0.00    +0.000 HD
BRANCH  10  12
ATOM     12  C   UNL     1      48.029   5.524  19.382  0.00  0.00    +0.000 C 
BRANCH  12  13
ATOM     13  C   UNL     1      48.619   4.458  18.489  0.00  0.00    +0.000 A 
ATOM     14  C   UNL     1      50.006   4.235  18.464  0.00  0.00    +0.000 A 
ATOM     15  C   UNL     1      50.543   3.195  17.705  0.00  0.00    +0.000 A 
ATOM     16  C   UNL     1      49.697   2.371  16.964  0.00  0.00    +0.000 A 
ATOM     17  C   UNL     1      48.320   2.595  16.969  0.00  0.00    +0.000 A 
ATOM     18  C   UNL     1      47.783   3.637  17.726  0.00  0.00    +0.000 A 
ENDBRANCH  12  13
ENDBRANCH  10  12
ENDBRANCH   7  10
ENDBRANCH   1   7
BRANCH   4  19
ATOM     19  C   UNL     1      48.348   7.929  12.315  0.00  0.00    +0.000 C 
BRANCH  19  20
ATOM     20  N   UNL     1      47.576   6.833  11.786  0.00  0.00    +0.000 N 
ATOM     21  C   UNL     1      46.230   6.904  11.545  0.00  0.00    +0.000 C 
ATOM     22  O   UNL     1      45.562   7.898  11.812  0.00  0.00    +0.000 OA
ATOM     23  H   UNL     1      48.060   5.947  11.693  0.00  0.00    +0.000 HD
BRANCH  21  24
ATOM     24  C   UNL     1      45.635   5.745  10.864  0.00  0.00    +0.000 A 
ATOM     25  C   UNL     1      45.797   5.587   9.494  0.00  0.00    +0.000 A 
ATOM     26  S   UNL     1      45.091   4.158   8.885  0.00  0.00    +0.000 S 
ATOM     27  C   UNL     1      44.498   3.726  10.419  0.00  0.00    +0.000 A 
ATOM     28  N   UNL     1      43.769   2.594  10.595  0.00  0.00    +0.000 NA
ATOM     29  C   UNL     1      43.351   2.413  11.810  0.00  0.00    +0.000 A 
ATOM     30  N   UNL     1      43.605   3.254  12.855  0.00  0.00    +0.000 N 
ATOM     31  C   UNL     1      44.388   4.378  12.740  0.00  0.00    +0.000 A 
ATOM     32  O   UNL     1      44.674   5.050  13.720  0.00  0.00    +0.000 OA
ATOM     33  C   UNL     1      44.850   4.650  11.391  0.00  0.00    +0.000 A 
ATOM     34  H   UNL     1      43.270   3.040  13.782  0.00  0.00    +0.000 HD
ENDBRANCH  21  24
ENDBRANCH  19  20
ENDBRANCH   4  19
TORSDOF 8
ENDMDL
MODEL 7
REMARK VINA RESULT:    -7.193      3.296      9.114
REMARK INTER + INTRA:         -11.837
REMARK INTER:                  -9.790
REMARK INTRA:                  -2.047
REMARK UNBOUND:                -1.280
REMARK  Name = 
REMARK  9 active torsions:
REMARK  status: ('A' for Active; 'I' for Inactive)
REMARK    1  A    between atoms: C_1  and  C_2
REMARK    2  A    between atoms: C_2  and  C_3
REMARK    3  A    between atoms: C_3  and  N_4
REMARK    4  A    between atoms: C_3  and  C_12
REMARK    5  A    between atoms: N_4  and  C_5
REMARK    6  A    between atoms: C_5  and  C_6
REMARK    7  A    between atoms: C_15  and  C_16
REMARK    8  A    between atoms: C_16  and  N_17
REMARK    9  A    between atoms: C_18  and  C_20
REMARK                            x       y       z     vdW  Elec       q    Type
REMARK                         _______ _______ _______ _____ _____    ______ ____
ROOT
ATOM      1  C   UNL     1      48.935   8.233  16.171  0.00  0.00    +0.000 A 
ATOM      2  C   UNL     1      49.146   7.009  15.509  0.00  0.00    +0.000 A 
ATOM      3  C   UNL     1      48.728   6.818  14.186  0.00  0.00    +0.000 A 
ATOM      4  C   UNL     1      48.145   7.870  13.470  0.00  0.00    +0.000 A 
ATOM      5  C   UNL     1      47.951   9.095  14.113  0.00  0.00    +0.000 A 
ATOM      6  C   UNL     1      48.331   9.270  15.443  0.00  0.00    +0.000 A 
ENDROOT
BRANCH   1   7
ATOM      7  C   UNL     1      49.266   8.370  17.663  0.00  0.00    +0.000 C 
BRANCH   7   9
ATOM      8  C   UNL     1      47.696   9.989  18.993  0.00  0.00    +0.000 C 
ATOM      9  C   UNL     1      47.975   8.575  18.504  0.00  0.00    +0.000 C 
ENDBRANCH   7   9
BRANCH   7  10
ATOM     10  N   UNL     1      50.042   7.216  18.164  0.00  0.00    +0.000 NA
ATOM     11  H   UNL     1      50.832   7.562  18.709  0.00  0.00    +0.000 HD
BRANCH  10  12
ATOM     12  C   UNL     1      49.250   6.323  19.018  0.00  0.00    +0.000 C 
BRANCH  12  13
ATOM     13  C   UNL     1      48.867   5.032  18.332  0.00  0.00    +0.000 A 
ATOM     14  C   UNL     1      47.531   4.783  17.975  0.00  0.00    +0.000 A 
ATOM     15  C   UNL     1      47.190   3.631  17.265  0.00  0.00    +0.000 A 
ATOM     16  C   UNL     1      48.183   2.719  16.909  0.00  0.00    +0.000 A 
ATOM     17  C   UNL     1      49.509   2.950  17.273  0.00  0.00    +0.000 A 
ATOM     18  C   UNL     1      49.851   4.100  17.985  0.00  0.00    +0.000 A 
ENDBRANCH  12  13
ENDBRANCH  10  12
ENDBRANCH   7  10
ENDBRANCH   1   7
BRANCH   4  19
ATOM     19  C   UNL     1      47.694   7.703  12.046  0.00  0.00    +0.000 C 
BRANCH  19  20
ATOM     20  N   UNL     1      46.963   6.473  11.873  0.00  0.00    +0.000 N 
ATOM     21  C   UNL     1      45.612   6.363  12.068  0.00  0.00    +0.000 C 
ATOM     22  O   UNL     1      44.922   7.300  12.457  0.00  0.00    +0.000 OA
ATOM     23  H   UNL     1      47.517   5.642  11.699  0.00  0.00    +0.000 HD
BRANCH  21  24
ATOM     24  C   UNL     1      45.010   5.074  11.701  0.00  0.00    +0.000 A 
ATOM     25  C   UNL     1      44.293   4.350  12.643  0.00  0.00    +0.000 A 
ATOM     26  S   UNL     1      43.616   2.909  12.026  0.00  0.00    +0.000 S 
ATOM     27  C   UNL     1      44.302   3.174  10.493  0.00  0.00    +0.000 A 
ATOM     28  N   UNL     1      44.122   2.285   9.482  0.00  0.00    +0.000 NA
ATOM     29  C   UNL     1      44.735   2.599   8.383  0.00  0.00    +0.000 A 
ATOM     30  N   UNL     1      45.494   3.719   8.205  0.00  0.00    +0.000 N 
ATOM     31  C   UNL     1      45.654   4.678   9.176  0.00  0.00    +0.000 A 
ATOM     32  O   UNL     1      46.259   5.715   8.945  0.00  0.00    +0.000 OA
ATOM     33  C   UNL     1      45.022   4.359  10.443  0.00  0.00    +0.000 A 
ATOM     34  H   UNL     1      45.923   3.915   7.313  0.00  0.00    +0.000 HD
ENDBRANCH  21  24
ENDBRANCH  19  20
ENDBRANCH   4  19
TORSDOF 8
ENDMDL
MODEL 8
REMARK VINA RESULT:    -7.154      1.867      2.565
REMARK INTER + INTRA:         -11.780
REMARK INTER:                 -10.388
REMARK INTRA:                  -1.392
REMARK UNBOUND:                -1.280
REMARK  Name = 
REMARK  9 active torsions:
REMARK  status: ('A' for Active; 'I' for Inactive)
REMARK    1  A    between atoms: C_1  and  C_2
REMARK    2  A    between atoms: C_2  and  C_3
REMARK    3  A    between atoms: C_3  and  N_4
REMARK    4  A    between atoms: C_3  and  C_12
REMARK    5  A    between atoms: N_4  and  C_5
REMARK    6  A    between atoms: C_5  and  C_6
REMARK    7  A    between atoms: C_15  and  C_16
REMARK    8  A    between atoms: C_16  and  N_17
REMARK    9  A    between atoms: C_18  and  C_20
REMARK                            x       y       z     vdW  Elec       q    Type
REMARK                         _______ _______ _______ _____ _____    ______ ____
ROOT
ATOM      1  C   UNL     1      45.517   5.248  12.119  0.00  0.00    +0.000 A 
ATOM      2  C   UNL     1      45.441   3.850  12.269  0.00  0.00    +0.000 A 
ATOM      3  C   UNL     1      46.208   3.180  13.229  0.00  0.00    +0.000 A 
ATOM      4  C   UNL     1      47.026   3.900  14.107  0.00  0.00    +0.000 A 
ATOM      5  C   UNL     1      47.092   5.290  13.979  0.00  0.00    +0.000 A 
ATOM      6  C   UNL     1      46.358   5.951  12.995  0.00  0.00    +0.000 A 
ENDROOT
BRANCH   1   7
ATOM      7  C   UNL     1      44.780   5.940  10.964  0.00  0.00    +0.000 C 
BRANCH   7   9
ATOM      8  C   UNL     1      43.450   8.194  10.886  0.00  0.00    +0.000 C 
ATOM      9  C   UNL     1      44.769   7.483  11.156  0.00  0.00    +0.000 C 
ENDBRANCH   7   9
BRANCH   7  10
ATOM     10  N   UNL     1      45.351   5.578   9.649  0.00  0.00    +0.000 NA
ATOM     11  H   UNL     1      46.299   5.230   9.787  0.00  0.00    +0.000 HD
BRANCH  10  12
ATOM     12  C   UNL     1      44.576   4.541   8.957  0.00  0.00    +0.000 C 
BRANCH  12  13
ATOM     13  C   UNL     1      45.442   3.486   8.310  0.00  0.00    +0.000 A 
ATOM     14  C   UNL     1      46.380   3.838   7.324  0.00  0.00    +0.000 A 
ATOM     15  C   UNL     1      47.239   2.878   6.789  0.00  0.00    +0.000 A 
ATOM     16  C   UNL     1      47.167   1.559   7.234  0.00  0.00    +0.000 A 
ATOM     17  C   UNL     1      46.227   1.196   8.200  0.00  0.00    +0.000 A 
ATOM     18  C   UNL     1      45.366   2.155   8.735  0.00  0.00    +0.000 A 
ENDBRANCH  12  13
ENDBRANCH  10  12
ENDBRANCH   7  10
ENDBRANCH   1   7
BRANCH   4  19
ATOM     19  C   UNL     1      47.857   3.215  15.157  0.00  0.00    +0.000 C 
BRANCH  19  20
ATOM     20  N   UNL     1      48.079   4.079  16.289  0.00  0.00    +0.000 N 
ATOM     21  C   UNL     1      47.370   3.991  17.457  0.00  0.00    +0.000 C 
ATOM     22  O   UNL     1      46.447   3.198  17.612  0.00  0.00    +0.000 OA
ATOM     23  H   UNL     1      48.728   4.845  16.148  0.00  0.00    +0.000 HD
BRANCH  21  24
ATOM     24  C   UNL     1      47.831   4.849  18.557  0.00  0.00    +0.000 A 
ATOM     25  C   UNL     1      46.960   5.760  19.140  0.00  0.00    +0.000 A 
ATOM     26  S   UNL     1      47.647   6.627  20.439  0.00  0.00    +0.000 S 
ATOM     27  C   UNL     1      49.149   5.856  20.236  0.00  0.00    +0.000 A 
ATOM     28  N   UNL     1      50.207   6.163  21.030  0.00  0.00    +0.000 NA
ATOM     29  C   UNL     1      51.297   5.525  20.735  0.00  0.00    +0.000 A 
ATOM     30  N   UNL     1      51.417   4.608  19.731  0.00  0.00    +0.000 N 
ATOM     31  C   UNL     1      50.361   4.220  18.941  0.00  0.00    +0.000 A 
ATOM     32  O   UNL     1      50.485   3.324  18.119  0.00  0.00    +0.000 OA
ATOM     33  C   UNL     1      49.124   4.932  19.202  0.00  0.00    +0.000 A 
ATOM     34  H   UNL     1      52.290   4.129  19.571  0.00  0.00    +0.000 HD
ENDBRANCH  21  24
ENDBRANCH  19  20
ENDBRANCH   4  19
TORSDOF 8
ENDMDL
MODEL 9
REMARK VINA RESULT:    -6.849      3.539      8.900
REMARK INTER + INTRA:         -11.332
REMARK INTER:                  -8.696
REMARK INTRA:                  -2.637
REMARK UNBOUND:                -1.280
REMARK  Name = 
REMARK  9 active torsions:
REMARK  status: ('A' for Active; 'I' for Inactive)
REMARK    1  A    between atoms: C_1  and  C_2
REMARK    2  A    between atoms: C_2  and  C_3
REMARK    3  A    between atoms: C_3  and  N_4
REMARK    4  A    between atoms: C_3  and  C_12
REMARK    5  A    between atoms: N_4  and  C_5
REMARK    6  A    between atoms: C_5  and  C_6
REMARK    7  A    between atoms: C_15  and  C_16
REMARK    8  A    between atoms: C_16  and  N_17
REMARK    9  A    between atoms: C_18  and  C_20
REMARK                            x       y       z     vdW  Elec       q    Type
REMARK                         _______ _______ _______ _____ _____    ______ ____
ROOT
ATOM      1  C   UNL     1      49.546   7.360  18.523  0.00  0.00    +0.000 A 
ATOM      2  C   UNL     1      50.272   6.866  17.424  0.00  0.00    +0.000 A 
ATOM      3  C   UNL     1      49.923   7.205  16.111  0.00  0.00    +0.000 A 
ATOM      4  C   UNL     1      48.875   8.100  15.868  0.00  0.00    +0.000 A 
ATOM      5  C   UNL     1      48.162   8.612  16.954  0.00  0.00    +0.000 A 
ATOM      6  C   UNL     1      48.486   8.241  18.259  0.00  0.00    +0.000 A 
ENDROOT
BRANCH   1   7
ATOM      7  C   UNL     1      49.854   6.858  19.940  0.00  0.00    +0.000 C 
BRANCH   7   9
ATOM      8  C   UNL     1      51.478   8.826  20.527  0.00  0.00    +0.000 C 
ATOM      9  C   UNL     1      50.224   8.038  20.882  0.00  0.00    +0.000 C 
ENDBRANCH   7   9
BRANCH   7  10
ATOM     10  N   UNL     1      48.737   6.069  20.501  0.00  0.00    +0.000 NA
ATOM     11  H   UNL     1      47.875   6.334  20.025  0.00  0.00    +0.000 HD
BRANCH  10  12
ATOM     12  C   UNL     1      48.923   4.622  20.341  0.00  0.00    +0.000 C 
BRANCH  12  13
ATOM     13  C   UNL     1      48.532   4.121  18.971  0.00  0.00    +0.000 A 
ATOM     14  C   UNL     1      47.395   4.631  18.321  0.00  0.00    +0.000 A 
ATOM     15  C   UNL     1      47.083   4.233  17.022  0.00  0.00    +0.000 A 
ATOM     16  C   UNL     1      47.904   3.319  16.362  0.00  0.00    +0.000 A 
ATOM     17  C   UNL     1      49.025   2.794  17.004  0.00  0.00    +0.000 A 
ATOM     18  C   UNL     1      49.338   3.191  18.305  0.00  0.00    +0.000 A 
ENDBRANCH  12  13
ENDBRANCH  10  12
ENDBRANCH   7  10
ENDBRANCH   1   7
BRANCH   4  19
ATOM     19  C   UNL     1      48.480   8.494  14.472  0.00  0.00    +0.000 C 
BRANCH  19  20
ATOM     20  N   UNL     1      47.456   7.621  13.956  0.00  0.00    +0.000 N 
ATOM     21  C   UNL     1      47.722   6.510  13.200  0.00  0.00    +0.000 C 
ATOM     22  O   UNL     1      48.858   6.200  12.857  0.00  0.00    +0.000 OA
ATOM     23  H   UNL     1      46.498   7.924  14.090  0.00  0.00    +0.000 HD
BRANCH  21  24
ATOM     24  C   UNL     1      46.570   5.652  12.889  0.00  0.00    +0.000 A 
ATOM     25  C   UNL     1      46.630   4.289  13.149  0.00  0.00    +0.000 A 
ATOM     26  S   UNL     1      45.184   3.461  12.780  0.00  0.00    +0.000 S 
ATOM     27  C   UNL     1      44.445   4.882  12.210  0.00  0.00    +0.000 A 
ATOM     28  N   UNL     1      43.179   4.865  11.719  0.00  0.00    +0.000 NA
ATOM     29  C   UNL     1      42.761   6.014  11.286  0.00  0.00    +0.000 A 
ATOM     30  N   UNL     1      43.488   7.169  11.310  0.00  0.00    +0.000 N 
ATOM     31  C   UNL     1      44.748   7.250  11.853  0.00  0.00    +0.000 A 
ATOM     32  O   UNL     1      45.327   8.322  11.946  0.00  0.00    +0.000 OA
ATOM     33  C   UNL     1      45.283   5.983  12.318  0.00  0.00    +0.000 A 
ATOM     34  H   UNL     1      43.092   8.035  10.979  0.00  0.00    +0.000 HD
ENDBRANCH  21  24
ENDBRANCH  19  20
ENDBRANCH   4  19
TORSDOF 8
ENDMDL
