MODEL 1
REMARK VINA RESULT:    -7.165      0.000      0.000
REMARK INTER + INTRA:         -10.693
REMARK INTER:                 -10.306
REMARK INTRA:                  -0.387
REMARK UNBOUND:                -0.387
REMARK  Name = 
REMARK  10 active torsions:
REMARK  status: ('A' for Active; 'I' for Inactive)
REMARK    1  A    between atoms: C_1  and  C_2
REMARK    2  A    between atoms: C_2  and  C_3
REMARK    3  A    between atoms: C_2  and  N_4
REMARK    4  A    between atoms: C_2  and  C_17
REMARK    5  A    between atoms: C_5  and  C_7
REMARK    6  A    between atoms: C_20  and  C_21
REMARK    7  A    between atoms: C_21  and  N_22
REMARK    8  A    between atoms: N_25  and  C_26
REMARK    9  A    between atoms: C_26  and  C_27
REMARK   10  A    between atoms: C_27  and  O_28
REMARK                            x       y       z     vdW  Elec       q    Type
REMARK                         _______ _______ _______ _____ _____    ______ ____
ROOT
ATOM      1  C   UNL     1      49.241   7.919  11.271  0.00  0.00    +0.000 C 
ATOM      2  C   UNL     1      47.951   7.945  12.141  0.00  0.00    +0.000 C 
ATOM      3  C   UNL     1      47.083   9.189  11.830  0.00  0.00    +0.000 C 
ENDROOT
BRANCH   2   4
ATOM      4  C   UNL     1      48.409   8.087  13.623  0.00  0.00    +0.000 A 
ATOM      5  C   UNL     1      49.631   7.475  13.995  0.00  0.00    +0.000 A 
ATOM      6  C   UNL     1      50.139   7.523  15.293  0.00  0.00    +0.000 A 
ATOM      7  C   UNL     1      49.484   8.242  16.287  0.00  0.00    +0.000 A 
ATOM      8  C   UNL     1      48.270   8.863  15.946  0.00  0.00    +0.000 A 
ATOM      9  C   UNL     1      47.735   8.784  14.636  0.00  0.00    +0.000 A 
BRANCH   7  10
ATOM     10  C   UNL     1      50.061   8.252  17.689  0.00  0.00    +0.000 C 
BRANCH  10  11
ATOM     11  N   UNL     1      50.010   7.041  18.518  0.00  0.00    +0.000 NA
ATOM     12  C   UNL     1      51.180   6.170  18.472  0.00  0.00    +0.000 C 
ATOM     13  C   UNL     1      51.168   5.099  17.356  0.00  0.00    +0.000 C 
ATOM     14  N   UNL     1      49.915   4.338  17.154  0.00  0.00    +0.000 NA
ATOM     15  C   UNL     1      48.722   5.178  17.356  0.00  0.00    +0.000 C 
ATOM     16  C   UNL     1      48.784   6.247  18.469  0.00  0.00    +0.000 C 
BRANCH  14  17
ATOM     17  C   UNL     1      49.908   3.064  17.889  0.00  0.00    +0.000 C 
BRANCH  17  18
ATOM     18  C   UNL     1      50.428   1.873  17.057  0.00  0.00    +0.000 C 
BRANCH  18  19
ATOM     19  O   UNL     1      49.605   1.658  15.911  0.00  0.00    +0.000 OA
ATOM     20  H   UNL     1      49.987   2.222  15.209  0.00  0.00    +0.000 HD
ENDBRANCH  18  19
ENDBRANCH  17  18
ENDBRANCH  14  17
ENDBRANCH  10  11
ENDBRANCH   7  10
ENDBRANCH   2   4
BRANCH   2  21
ATOM     21  N   UNL     1      47.145   6.732  11.837  0.00  0.00    +0.000 N 
ATOM     22  C   UNL     1      45.818   6.629  12.233  0.00  0.00    +0.000 C 
ATOM     23  O   UNL     1      45.223   7.538  12.808  0.00  0.00    +0.000 OA
ATOM     24  H   UNL     1      47.637   5.865  11.651  0.00  0.00    +0.000 HD
BRANCH  22  25
ATOM     25  C   UNL     1      45.079   5.396  11.927  0.00  0.00    +0.000 A 
ATOM     26  C   UNL     1      44.375   4.774  12.954  0.00  0.00    +0.000 A 
ATOM     27  S   UNL     1      43.616   3.321  12.486  0.00  0.00    +0.000 S 
ATOM     28  C   UNL     1      44.243   3.453  10.911  0.00  0.00    +0.000 A 
ATOM     29  N   UNL     1      44.020   2.473   9.996  0.00  0.00    +0.000 NA
ATOM     30  C   UNL     1      44.599   2.670   8.859  0.00  0.00    +0.000 A 
ATOM     31  N   UNL     1      45.356   3.767   8.548  0.00  0.00    +0.000 N 
ATOM     32  C   UNL     1      45.557   4.816   9.419  0.00  0.00    +0.000 A 
ATOM     33  O   UNL     1      46.152   5.836   9.090  0.00  0.00    +0.000 OA
ATOM     34  C   UNL     1      44.973   4.614  10.726  0.00  0.00    +0.000 A 
ATOM     35  H   UNL     1      45.762   3.871   7.629  0.00  0.00    +0.000 HD
ENDBRANCH  22  25
ENDBRANCH   2  21
TORSDOF 8
ENDMDL
MODEL 2
REMARK VINA RESULT:    -7.000      1.307      1.905
REMARK INTER + INTRA:         -10.456
REMARK INTER:                 -10.001
REMARK INTRA:                  -0.455
REMARK UNBOUND:                -0.387
REMARK  Name = 
REMARK  10 active torsions:
REMARK  status: ('A' for Active; 'I' for Inactive)
REMARK    1  A    between atoms: C_1  and  C_2
REMARK    2  A    between atoms: C_2  and  C_3
REMARK    3  A    between atoms: C_2  and  N_4
REMARK    4  A    between atoms: C_2  and  C_17
REMARK    5  A    between atoms: C_5  and  C_7
REMARK    6  A    between atoms: C_20  and  C_21
REMARK    7  A    between atoms: C_21  and  N_22
REMARK    8  A    between atoms: N_25  and  C_26
REMARK    9  A    between atoms: C_26  and  C_27
REMARK   10  A    between atoms: C_27  and  O_28
REMARK                            x       y       z     vdW  Elec       q    Type
REMARK                         _______ _______ _______ _____ _____    ______ ____
ROOT
ATOM      1  C   UNL     1      50.120   8.206  11.393  0.00  0.00    +0.000 C 
ATOM      2  C   UNL     1      48.675   8.213  11.968  0.00  0.00    +0.000 C 
ATOM      3  C   UNL     1      47.914   9.502  11.572  0.00  0.00    +0.000 C 
ENDROOT
BRANCH   2   4
ATOM      4  C   UNL     1      48.806   8.238  13.520  0.00  0.00    +0.000 A 
ATOM      5  C   UNL     1      50.012   7.756  14.086  0.00  0.00    +0.000 A 
ATOM      6  C   UNL     1      50.243   7.718  15.460  0.00  0.00    +0.000 A 
ATOM      7  C   UNL     1      49.302   8.220  16.354  0.00  0.00    +0.000 A 
ATOM      8  C   UNL     1      48.097   8.709  15.821  0.00  0.00    +0.000 A 
ATOM      9  C   UNL     1      47.847   8.715  14.426  0.00  0.00    +0.000 A 
BRANCH   7  10
ATOM     10  C   UNL     1      49.586   8.141  17.841  0.00  0.00    +0.000 C 
BRANCH  10  11
ATOM     11  N   UNL     1      49.352   6.890  18.574  0.00  0.00    +0.000 NA
ATOM     12  C   UNL     1      50.470   5.954  18.640  0.00  0.00    +0.000 C 
ATOM     13  C   UNL     1      50.569   4.952  17.465  0.00  0.00    +0.000 C 
ATOM     14  N   UNL     1      49.323   4.280  17.035  0.00  0.00    +0.000 NA
ATOM     15  C   UNL     1      48.157   5.177  17.118  0.00  0.00    +0.000 C 
ATOM     16  C   UNL     1      48.108   6.175  18.296  0.00  0.00    +0.000 C 
BRANCH  14  17
ATOM     17  C   UNL     1      49.144   2.968  17.676  0.00  0.00    +0.000 C 
BRANCH  17  18
ATOM     18  C   UNL     1      50.185   1.920  17.231  0.00  0.00    +0.000 C 
BRANCH  18  19
ATOM     19  O   UNL     1      50.002   1.577  15.858  0.00  0.00    +0.000 OA
ATOM     20  H   UNL     1      49.306   0.889  15.853  0.00  0.00    +0.000 HD
ENDBRANCH  18  19
ENDBRANCH  17  18
ENDBRANCH  14  17
ENDBRANCH  10  11
ENDBRANCH   7  10
ENDBRANCH   2   4
BRANCH   2  21
ATOM     21  N   UNL     1      47.933   7.050  11.411  0.00  0.00    +0.000 N 
ATOM     22  C   UNL     1      46.546   6.988  11.457  0.00  0.00    +0.000 C 
ATOM     23  O   UNL     1      45.854   7.898  11.911  0.00  0.00    +0.000 OA
ATOM     24  H   UNL     1      48.428   6.171  11.310  0.00  0.00    +0.000 HD
BRANCH  22  25
ATOM     25  C   UNL     1      45.869   5.803  10.915  0.00  0.00    +0.000 A 
ATOM     26  C   UNL     1      45.856   5.620   9.535  0.00  0.00    +0.000 A 
ATOM     27  S   UNL     1      44.985   4.245   9.031  0.00  0.00    +0.000 S 
ATOM     28  C   UNL     1      44.557   3.877  10.634  0.00  0.00    +0.000 A 
ATOM     29  N   UNL     1      43.738   2.826  10.906  0.00  0.00    +0.000 NA
ATOM     30  C   UNL     1      43.447   2.693  12.156  0.00  0.00    +0.000 A 
ATOM     31  N   UNL     1      43.922   3.496  13.159  0.00  0.00    +0.000 N 
ATOM     32  C   UNL     1      44.805   4.531  12.941  0.00  0.00    +0.000 A 
ATOM     33  O   UNL     1      45.299   5.174  13.860  0.00  0.00    +0.000 OA
ATOM     34  C   UNL     1      45.116   4.754  11.548  0.00  0.00    +0.000 A 
ATOM     35  H   UNL     1      43.673   3.321  14.122  0.00  0.00    +0.000 HD
ENDBRANCH  22  25
ENDBRANCH   2  21
TORSDOF 8
ENDMDL
MODEL 3
REMARK VINA RESULT:    -6.806      2.687      8.426
REMARK INTER + INTRA:         -10.177
REMARK INTER:                 -10.827
REMARK INTRA:                   0.650
REMARK UNBOUND:                -0.387
REMARK  Name = 
REMARK  10 active torsions:
REMARK  status: ('A' for Active; 'I' for Inactive)
REMARK    1  A    between atoms: C_1  and  C_2
REMARK    2  A    between atoms: C_2  and  C_3
REMARK    3  A    between atoms: C_2  and  N_4
REMARK    4  A    between atoms: C_2  and  C_17
REMARK    5  A    between atoms: C_5  and  C_7
REMARK    6  A    between atoms: C_20  and  C_21
REMARK    7  A    between atoms: C_21  and  N_22
REMARK    8  A    between atoms: N_25  and  C_26
REMARK    9  A    between atoms: C_26  and  C_27
REMARK   10  A    between atoms: C_27  and  O_28
REMARK                            x       y       z     vdW  Elec       q    Type
REMARK                         _______ _______ _______ _____ _____    ______ ____
ROOT
ATOM      1  C   UNL     1      46.437   9.156  12.722  0.00  0.00    +0.000 C 
ATOM      2  C   UNL     1      47.223   7.836  12.973  0.00  0.00    +0.000 C 
ATOM      3  C   UNL     1      48.568   7.824  12.206  0.00  0.00    +0.000 C 
ENDROOT
BRANCH   2   4
ATOM      4  C   UNL     1      46.366   6.680  12.376  0.00  0.00    +0.000 A 
ATOM      5  C   UNL     1      46.718   5.353  12.726  0.00  0.00    +0.000 A 
ATOM      6  C   UNL     1      46.034   4.236  12.247  0.00  0.00    +0.000 A 
ATOM      7  C   UNL     1      44.913   4.382  11.436  0.00  0.00    +0.000 A 
ATOM      8  C   UNL     1      44.538   5.688  11.076  0.00  0.00    +0.000 A 
ATOM      9  C   UNL     1      45.254   6.822  11.533  0.00  0.00    +0.000 A 
BRANCH   7  10
ATOM     10  C   UNL     1      44.211   3.140  10.922  0.00  0.00    +0.000 C 
BRANCH  10  11
ATOM     11  N   UNL     1      44.054   2.923   9.479  0.00  0.00    +0.000 NA
ATOM     12  C   UNL     1      44.642   1.703   8.935  0.00  0.00    +0.000 C 
ATOM     13  C   UNL     1      46.123   1.814   8.501  0.00  0.00    +0.000 C 
ATOM     14  N   UNL     1      46.514   3.004   7.712  0.00  0.00    +0.000 NA
ATOM     15  C   UNL     1      45.801   4.215   8.154  0.00  0.00    +0.000 C 
ATOM     16  C   UNL     1      44.331   4.055   8.598  0.00  0.00    +0.000 C 
BRANCH  14  17
ATOM     17  C   UNL     1      46.475   2.755   6.263  0.00  0.00    +0.000 C 
BRANCH  17  18
ATOM     18  C   UNL     1      47.672   1.927   5.750  0.00  0.00    +0.000 C 
BRANCH  18  19
ATOM     19  O   UNL     1      48.900   2.444   6.260  0.00  0.00    +0.000 OA
ATOM     20  H   UNL     1      49.025   2.005   7.126  0.00  0.00    +0.000 HD
ENDBRANCH  18  19
ENDBRANCH  17  18
ENDBRANCH  14  17
ENDBRANCH  10  11
ENDBRANCH   7  10
ENDBRANCH   2   4
BRANCH   2  21
ATOM     21  N   UNL     1      47.519   7.725  14.426  0.00  0.00    +0.000 N 
ATOM     22  C   UNL     1      48.734   7.229  14.881  0.00  0.00    +0.000 C 
ATOM     23  O   UNL     1      49.644   6.902  14.122  0.00  0.00    +0.000 OA
ATOM     24  H   UNL     1      46.737   7.685  15.072  0.00  0.00    +0.000 HD
BRANCH  22  25
ATOM     25  C   UNL     1      48.960   7.118  16.328  0.00  0.00    +0.000 A 
ATOM     26  C   UNL     1      49.427   8.235  17.014  0.00  0.00    +0.000 A 
ATOM     27  S   UNL     1      49.709   7.957  18.672  0.00  0.00    +0.000 S 
ATOM     28  C   UNL     1      49.264   6.324  18.515  0.00  0.00    +0.000 A 
ATOM     29  N   UNL     1      49.348   5.482  19.579  0.00  0.00    +0.000 NA
ATOM     30  C   UNL     1      49.035   4.259  19.311  0.00  0.00    +0.000 A 
ATOM     31  N   UNL     1      48.622   3.809  18.085  0.00  0.00    +0.000 N 
ATOM     32  C   UNL     1      48.459   4.636  16.995  0.00  0.00    +0.000 A 
ATOM     33  O   UNL     1      47.991   4.236  15.934  0.00  0.00    +0.000 OA
ATOM     34  C   UNL     1      48.851   6.006  17.233  0.00  0.00    +0.000 A 
ATOM     35  H   UNL     1      48.369   2.841  17.949  0.00  0.00    +0.000 HD
ENDBRANCH  22  25
ENDBRANCH   2  21
TORSDOF 8
ENDMDL
MODEL 4
REMARK VINA RESULT:    -6.775      2.849      7.892
REMARK INTER + INTRA:         -10.132
REMARK INTER:                  -9.675
REMARK INTRA:                  -0.458
REMARK UNBOUND:                -0.387
REMARK  Name = 
REMARK  10 active torsions:
REMARK  status: ('A' for Active; 'I' for Inactive)
REMARK    1  A    between atoms: C_1  and  C_2
REMARK    2  A    between atoms: C_2  and  C_3
REMARK    3  A    between atoms: C_2  and  N_4
REMARK    4  A    between atoms: C_2  and  C_17
REMARK    5  A    between atoms: C_5  and  C_7
REMARK    6  A    between atoms: C_20  and  C_21
REMARK    7  A    between atoms: C_21  and  N_22
REMARK    8  A    between atoms: N_25  and  C_26
REMARK    9  A    between atoms: C_26  and  C_27
REMARK   10  A    between atoms: C_27  and  O_28
REMARK                            x       y       z     vdW  Elec       q    Type
REMARK                         _______ _______ _______ _____ _____    ______ ____
ROOT
ATOM      1  C   UNL     1      48.872   9.424  13.074  0.00  0.00    +0.000 C 
ATOM      2  C   UNL     1      48.962   7.902  12.764  0.00  0.00    +0.000 C 
ATOM      3  C   UNL     1      49.499   7.645  11.334  0.00  0.00    +0.000 C 
ENDROOT
BRANCH   2   4
ATOM      4  C   UNL     1      47.505   7.349  12.793  0.00  0.00    +0.000 A 
ATOM      5  C   UNL     1      47.310   6.037  13.290  0.00  0.00    +0.000 A 
ATOM      6  C   UNL     1      46.056   5.431  13.355  0.00  0.00    +0.000 A 
ATOM      7  C   UNL     1      44.909   6.125  12.984  0.00  0.00    +0.000 A 
ATOM      8  C   UNL     1      45.072   7.431  12.490  0.00  0.00    +0.000 A 
ATOM      9  C   UNL     1      46.350   8.035  12.390  0.00  0.00    +0.000 A 
BRANCH   7  10
ATOM     10  C   UNL     1      43.569   5.419  13.053  0.00  0.00    +0.000 C 
BRANCH  10  11
ATOM     11  N   UNL     1      43.116   4.581  11.937  0.00  0.00    +0.000 NA
ATOM     12  C   UNL     1      43.383   3.150  12.046  0.00  0.00    +0.000 C 
ATOM     13  C   UNL     1      44.756   2.686  11.507  0.00  0.00    +0.000 C 
ATOM     14  N   UNL     1      45.190   3.220  10.196  0.00  0.00    +0.000 NA
ATOM     15  C   UNL     1      44.783   4.624  10.013  0.00  0.00    +0.000 C 
ATOM     16  C   UNL     1      43.412   5.049  10.584  0.00  0.00    +0.000 C 
BRANCH  14  17
ATOM     17  C   UNL     1      44.845   2.323   9.083  0.00  0.00    +0.000 C 
BRANCH  17  18
ATOM     18  C   UNL     1      46.041   1.997   8.164  0.00  0.00    +0.000 C 
BRANCH  18  19
ATOM     19  O   UNL     1      46.307   0.595   8.158  0.00  0.00    +0.000 OA
ATOM     20  H   UNL     1      45.485   0.175   8.482  0.00  0.00    +0.000 HD
ENDBRANCH  18  19
ENDBRANCH  17  18
ENDBRANCH  14  17
ENDBRANCH  10  11
ENDBRANCH   7  10
ENDBRANCH   2   4
BRANCH   2  21
ATOM     21  N   UNL     1      49.901   7.272  13.730  0.00  0.00    +0.000 N 
ATOM     22  C   UNL     1      49.829   7.543  15.090  0.00  0.00    +0.000 C 
ATOM     23  O   UNL     1      48.967   8.272  15.578  0.00  0.00    +0.000 OA
ATOM     24  H   UNL     1      50.787   6.924  13.378  0.00  0.00    +0.000 HD
BRANCH  22  25
ATOM     25  C   UNL     1      50.799   6.911  15.993  0.00  0.00    +0.000 A 
ATOM     26  C   UNL     1      52.088   7.435  16.054  0.00  0.00    +0.000 A 
ATOM     27  S   UNL     1      53.133   6.574  17.088  0.00  0.00    +0.000 S 
ATOM     28  C   UNL     1      51.914   5.447  17.450  0.00  0.00    +0.000 A 
ATOM     29  N   UNL     1      52.177   4.379  18.250  0.00  0.00    +0.000 NA
ATOM     30  C   UNL     1      51.181   3.572  18.398  0.00  0.00    +0.000 A 
ATOM     31  N   UNL     1      49.942   3.748  17.842  0.00  0.00    +0.000 N 
ATOM     32  C   UNL     1      49.609   4.846  17.078  0.00  0.00    +0.000 A 
ATOM     33  O   UNL     1      48.468   5.040  16.673  0.00  0.00    +0.000 OA
ATOM     34  C   UNL     1      50.710   5.751  16.838  0.00  0.00    +0.000 A 
ATOM     35  H   UNL     1      49.199   3.089  18.017  0.00  0.00    +0.000 HD
ENDBRANCH  22  25
ENDBRANCH   2  21
TORSDOF 8
ENDMDL
MODEL 5
REMARK VINA RESULT:    -6.487      3.170      8.193
REMARK INTER + INTRA:          -9.718
REMARK INTER:                  -9.191
REMARK INTRA:                  -0.527
REMARK UNBOUND:                -0.387
REMARK  Name = 
REMARK  10 active torsions:
REMARK  status: ('A' for Active; 'I' for Inactive)
REMARK    1  A    between atoms: C_1  and  C_2
REMARK    2  A    between atoms: C_2  and  C_3
REMARK    3  A    between atoms: C_2  and  N_4
REMARK    4  A    between atoms: C_2  and  C_17
REMARK    5  A    between atoms: C_5  and  C_7
REMARK    6  A    between atoms: C_20  and  C_21
REMARK    7  A    between atoms: C_21  and  N_22
REMARK    8  A    between atoms: N_25  and  C_26
REMARK    9  A    between atoms: C_26  and  C_27
REMARK   10  A    between atoms: C_27  and  O_28
REMARK                            x       y       z     vdW  Elec       q    Type
REMARK                         _______ _______ _______ _____ _____    ______ ____
ROOT
ATOM      1  C   UNL     1      48.844   9.278  13.456  0.00  0.00    +0.000 C 
ATOM      2  C   UNL     1      48.942   7.783  13.035  0.00  0.00    +0.000 C 
ATOM      3  C   UNL     1      49.525   7.634  11.608  0.00  0.00    +0.000 C 
ENDROOT
BRANCH   2   4
ATOM      4  C   UNL     1      47.485   7.235  12.975  0.00  0.00    +0.000 A 
ATOM      5  C   UNL     1      47.274   5.886  13.353  0.00  0.00    +0.000 A 
ATOM      6  C   UNL     1      46.018   5.280  13.330  0.00  0.00    +0.000 A 
ATOM      7  C   UNL     1      44.883   6.007  12.985  0.00  0.00    +0.000 A 
ATOM      8  C   UNL     1      45.062   7.350  12.609  0.00  0.00    +0.000 A 
ATOM      9  C   UNL     1      46.343   7.956  12.598  0.00  0.00    +0.000 A 
BRANCH   7  10
ATOM     10  C   UNL     1      43.541   5.303  12.955  0.00  0.00    +0.000 C 
BRANCH  10  11
ATOM     11  N   UNL     1      43.124   4.556  11.762  0.00  0.00    +0.000 NA
ATOM     12  C   UNL     1      43.338   3.113  11.789  0.00  0.00    +0.000 C 
ATOM     13  C   UNL     1      44.724   2.637  11.292  0.00  0.00    +0.000 C 
ATOM     14  N   UNL     1      45.247   3.241  10.046  0.00  0.00    +0.000 NA
ATOM     15  C   UNL     1      44.895   4.667   9.937  0.00  0.00    +0.000 C 
ATOM     16  C   UNL     1      43.509   5.102  10.462  0.00  0.00    +0.000 C 
BRANCH  14  17
ATOM     17  C   UNL     1      44.935   2.432   8.858  0.00  0.00    +0.000 C 
BRANCH  17  18
ATOM     18  C   UNL     1      46.188   1.979   8.078  0.00  0.00    +0.000 C 
BRANCH  18  19
ATOM     19  O   UNL     1      46.305   0.558   8.091  0.00  0.00    +0.000 OA
ATOM     20  H   UNL     1      45.840   0.252   7.286  0.00  0.00    +0.000 HD
ENDBRANCH  18  19
ENDBRANCH  17  18
ENDBRANCH  14  17
ENDBRANCH  10  11
ENDBRANCH   7  10
ENDBRANCH   2   4
BRANCH   2  21
ATOM     21  N   UNL     1      49.849   7.078  13.981  0.00  0.00    +0.000 N 
ATOM     22  C   UNL     1      49.706   7.214  15.356  0.00  0.00    +0.000 C 
ATOM     23  O   UNL     1      48.806   7.877  15.869  0.00  0.00    +0.000 OA
ATOM     24  H   UNL     1      50.757   6.782  13.641  0.00  0.00    +0.000 HD
BRANCH  22  25
ATOM     25  C   UNL     1      50.647   6.515  16.240  0.00  0.00    +0.000 A 
ATOM     26  C   UNL     1      50.133   5.693  17.239  0.00  0.00    +0.000 A 
ATOM     27  S   UNL     1      51.324   4.992  18.236  0.00  0.00    +0.000 S 
ATOM     28  C   UNL     1      52.561   5.801  17.396  0.00  0.00    +0.000 A 
ATOM     29  N   UNL     1      53.856   5.686  17.796  0.00  0.00    +0.000 NA
ATOM     30  C   UNL     1      54.686   6.395  17.108  0.00  0.00    +0.000 A 
ATOM     31  N   UNL     1      54.344   7.186  16.044  0.00  0.00    +0.000 N 
ATOM     32  C   UNL     1      53.057   7.284  15.561  0.00  0.00    +0.000 A 
ATOM     33  O   UNL     1      52.784   7.915  14.546  0.00  0.00    +0.000 OA
ATOM     34  C   UNL     1      52.081   6.550  16.335  0.00  0.00    +0.000 A 
ATOM     35  H   UNL     1      55.048   7.697  15.533  0.00  0.00    +0.000 HD
ENDBRANCH  22  25
ENDBRANCH   2  21
TORSDOF 8
ENDMDL
MODEL 6
REMARK VINA RESULT:    -6.366      3.126      8.476
REMARK INTER + INTRA:          -9.544
REMARK INTER:                  -9.094
REMARK INTRA:                  -0.450
REMARK UNBOUND:                -0.387
REMARK  Name = 
REMARK  10 active torsions:
REMARK  status: ('A' for Active; 'I' for Inactive)
REMARK    1  A    between atoms: C_1  and  C_2
REMARK    2  A    between atoms: C_2  and  C_3
REMARK    3  A    between atoms: C_2  and  N_4
REMARK    4  A    between atoms: C_2  and  C_17
REMARK    5  A    between atoms: C_5  and  C_7
REMARK    6  A    between atoms: C_20  and  C_21
REMARK    7  A    between atoms: C_21  and  N_22
REMARK    8  A    between atoms: N_25  and  C_26
REMARK    9  A    between atoms: C_26  and  C_27
REMARK   10  A    between atoms: C_27  and  O_28
REMARK                            x       y       z     vdW  Elec       q    Type
REMARK                         _______ _______ _______ _____ _____    ______ ____
ROOT
ATOM      1  C   UNL     1      48.005   6.932  18.814  0.00  0.00    +0.000 C 
ATOM      2  C   UNL     1      49.316   7.007  17.981  0.00  0.00    +0.000 C 
ATOM      3  C   UNL     1      50.071   8.335  18.230  0.00  0.00    +0.000 C 
ENDROOT
BRANCH   2   4
ATOM      4  C   UNL     1      48.897   7.013  16.480  0.00  0.00    +0.000 A 
ATOM      5  C   UNL     1      48.402   5.805  15.931  0.00  0.00    +0.000 A 
ATOM      6  C   UNL     1      48.006   5.684  14.599  0.00  0.00    +0.000 A 
ATOM      7  C   UNL     1      48.024   6.785  13.748  0.00  0.00    +0.000 A 
ATOM      8  C   UNL     1      48.506   7.999  14.268  0.00  0.00    +0.000 A 
ATOM      9  C   UNL     1      48.942   8.113  15.612  0.00  0.00    +0.000 A 
BRANCH   7  10
ATOM     10  C   UNL     1      47.603   6.604  12.303  0.00  0.00    +0.000 C 
BRANCH  10  11
ATOM     11  N   UNL     1      46.194   6.753  11.919  0.00  0.00    +0.000 NA
ATOM     12  C   UNL     1      45.202   6.435  12.941  0.00  0.00    +0.000 C 
ATOM     13  C   UNL     1      44.765   4.953  13.006  0.00  0.00    +0.000 C 
ATOM     14  N   UNL     1      44.462   4.274  11.726  0.00  0.00    +0.000 NA
ATOM     15  C   UNL     1      45.362   4.712  10.646  0.00  0.00    +0.000 C 
ATOM     16  C   UNL     1      45.789   6.196  10.630  0.00  0.00    +0.000 C 
BRANCH  14  17
ATOM     17  C   UNL     1      43.029   4.316  11.395  0.00  0.00    +0.000 C 
BRANCH  17  18
ATOM     18  C   UNL     1      42.310   5.570  11.936  0.00  0.00    +0.000 C 
BRANCH  18  19
ATOM     19  O   UNL     1      42.378   6.638  10.992  0.00  0.00    +0.000 OA
ATOM     20  H   UNL     1      43.203   6.486  10.487  0.00  0.00    +0.000 HD
ENDBRANCH  18  19
ENDBRANCH  17  18
ENDBRANCH  14  17
ENDBRANCH  10  11
ENDBRANCH   7  10
ENDBRANCH   2   4
BRANCH   2  21
ATOM     21  N   UNL     1      50.207   5.886  18.388  0.00  0.00    +0.000 N 
ATOM     22  C   UNL     1      51.426   5.667  17.760  0.00  0.00    +0.000 C 
ATOM     23  O   UNL     1      51.860   6.403  16.876  0.00  0.00    +0.000 OA
ATOM     24  H   UNL     1      49.791   5.097  18.871  0.00  0.00    +0.000 HD
BRANCH  22  25
ATOM     25  C   UNL     1      52.251   4.530  18.188  0.00  0.00    +0.000 A 
ATOM     26  C   UNL     1      53.459   4.790  18.828  0.00  0.00    +0.000 A 
ATOM     27  S   UNL     1      54.350   3.390  19.214  0.00  0.00    +0.000 S 
ATOM     28  C   UNL     1      53.175   2.395  18.495  0.00  0.00    +0.000 A 
ATOM     29  N   UNL     1      53.361   1.049  18.421  0.00  0.00    +0.000 NA
ATOM     30  C   UNL     1      52.421   0.419  17.802  0.00  0.00    +0.000 A 
ATOM     31  N   UNL     1      51.303   1.006  17.273  0.00  0.00    +0.000 N 
ATOM     32  C   UNL     1      51.038   2.354  17.379  0.00  0.00    +0.000 A 
ATOM     33  O   UNL     1      49.985   2.848  16.991  0.00  0.00    +0.000 OA
ATOM     34  C   UNL     1      52.091   3.111  18.018  0.00  0.00    +0.000 A 
ATOM     35  H   UNL     1      50.592   0.450  16.821  0.00  0.00    +0.000 HD
ENDBRANCH  22  25
ENDBRANCH   2  21
TORSDOF 8
ENDMDL
MODEL 7
REMARK VINA RESULT:    -6.255      6.779     10.452
REMARK INTER + INTRA:          -9.385
REMARK INTER:                  -8.721
REMARK INTRA:                  -0.664
REMARK UNBOUND:                -0.387
REMARK  Name = 
REMARK  10 active torsions:
REMARK  status: ('A' for Active; 'I' for Inactive)
REMARK    1  A    between atoms: C_1  and  C_2
REMARK    2  A    between atoms: C_2  and  C_3
REMARK    3  A    between atoms: C_2  and  N_4
REMARK    4  A    between atoms: C_2  and  C_17
REMARK    5  A    between atoms: C_5  and  C_7
REMARK    6  A    between atoms: C_20  and  C_21
REMARK    7  A    between atoms: C_21  and  N_22
REMARK    8  A    between atoms: N_25  and  C_26
REMARK    9  A    between atoms: C_26  and  C_27
REMARK   10  A    between atoms: C_27  and  O_28
REMARK                            x       y       z     vdW  Elec       q    Type
REMARK                         _______ _______ _______ _____ _____    ______ ____
ROOT
ATOM      1  C   UNL     1      44.668  11.785  10.389  0.00  0.00    +0.000 C 
ATOM      2  C   UNL     1      43.646  10.666  10.035  0.00  0.00    +0.000 C 
ATOM      3  C   UNL     1      43.340  10.638   8.517  0.00  0.00    +0.000 C 
ENDROOT
BRANCH   2   4
ATOM      4  C   UNL     1      42.309  11.035  10.746  0.00  0.00    +0.000 A 
ATOM      5  C   UNL     1      41.326  10.021  10.863  0.00  0.00    +0.000 A 
ATOM      6  C   UNL     1      40.088  10.233  11.469  0.00  0.00    +0.000 A 
ATOM      7  C   UNL     1      39.781  11.458  12.051  0.00  0.00    +0.000 A 
ATOM      8  C   UNL     1      40.740  12.482  11.954  0.00  0.00    +0.000 A 
ATOM      9  C   UNL     1      41.984  12.278  11.307  0.00  0.00    +0.000 A 
BRANCH   7  10
ATOM     10  C   UNL     1      38.415  11.651  12.682  0.00  0.00    +0.000 C 
BRANCH  10  11
ATOM     11  N   UNL     1      37.234  11.867  11.837  0.00  0.00    +0.000 NA
ATOM     12  C   UNL     1      36.293  10.756  11.735  0.00  0.00    +0.000 C 
ATOM     13  C   UNL     1      36.592   9.731  10.616  0.00  0.00    +0.000 C 
ATOM     14  N   UNL     1      36.952  10.263   9.282  0.00  0.00    +0.000 NA
ATOM     15  C   UNL     1      37.773  11.482   9.379  0.00  0.00    +0.000 C 
ATOM     16  C   UNL     1      37.453  12.469  10.523  0.00  0.00    +0.000 C 
BRANCH  14  17
ATOM     17  C   UNL     1      35.788  10.368   8.389  0.00  0.00    +0.000 C 
BRANCH  17  18
ATOM     18  C   UNL     1      36.148  10.242   6.894  0.00  0.00    +0.000 C 
BRANCH  18  19
ATOM     19  O   UNL     1      36.193   8.872   6.498  0.00  0.00    +0.000 OA
ATOM     20  H   UNL     1      36.556   8.392   7.270  0.00  0.00    +0.000 HD
ENDBRANCH  18  19
ENDBRANCH  17  18
ENDBRANCH  14  17
ENDBRANCH  10  11
ENDBRANCH   7  10
ENDBRANCH   2   4
BRANCH   2  21
ATOM     21  N   UNL     1      44.227   9.350  10.413  0.00  0.00    +0.000 N 
ATOM     22  C   UNL     1      44.722   9.119  11.691  0.00  0.00    +0.000 C 
ATOM     23  O   UNL     1      44.667   9.959  12.587  0.00  0.00    +0.000 OA
ATOM     24  H   UNL     1      44.570   8.748   9.673  0.00  0.00    +0.000 HD
BRANCH  22  25
ATOM     25  C   UNL     1      45.307   7.808  11.999  0.00  0.00    +0.000 A 
ATOM     26  C   UNL     1      46.630   7.758  12.432  0.00  0.00    +0.000 A 
ATOM     27  S   UNL     1      47.209   6.176  12.694  0.00  0.00    +0.000 S 
ATOM     28  C   UNL     1      45.729   5.507  12.192  0.00  0.00    +0.000 A 
ATOM     29  N   UNL     1      45.573   4.159  12.113  0.00  0.00    +0.000 NA
ATOM     30  C   UNL     1      44.422   3.785  11.664  0.00  0.00    +0.000 A 
ATOM     31  N   UNL     1      43.407   4.635  11.313  0.00  0.00    +0.000 N 
ATOM     32  C   UNL     1      43.494   6.004  11.436  0.00  0.00    +0.000 A 
ATOM     33  O   UNL     1      42.542   6.744  11.214  0.00  0.00    +0.000 OA
ATOM     34  C   UNL     1      44.787   6.473  11.883  0.00  0.00    +0.000 A 
ATOM     35  H   UNL     1      42.521   4.275  10.990  0.00  0.00    +0.000 HD
ENDBRANCH  22  25
ENDBRANCH   2  21
TORSDOF 8
ENDMDL
MODEL 8
REMARK VINA RESULT:    -6.244      3.767      6.162
REMARK INTER + INTRA:          -9.369
REMARK INTER:                  -9.054
REMARK INTRA:                  -0.315
REMARK UNBOUND:                -0.387
REMARK  Name = 
REMARK  10 active torsions:
REMARK  status: ('A' for Active; 'I' for Inactive)
REMARK    1  A    between atoms: C_1  and  C_2
REMARK    2  A    between atoms: C_2  and  C_3
REMARK    3  A    between atoms: C_2  and  N_4
REMARK    4  A    between atoms: C_2  and  C_17
REMARK    5  A    between atoms: C_5  and  C_7
REMARK    6  A    between atoms: C_20  and  C_21
REMARK    7  A    between atoms: C_21  and  N_22
REMARK    8  A    between atoms: N_25  and  C_26
REMARK    9  A    between atoms: C_26  and  C_27
REMARK   10  A    between atoms: C_27  and  O_28
REMARK                            x       y       z     vdW  Elec       q    Type
REMARK                         _______ _______ _______ _____ _____    ______ ____
ROOT
ATOM      1  C   UNL     1      48.101   9.160  15.592  0.00  0.00    +0.000 C 
ATOM      2  C   UNL     1      48.416   7.933  14.690  0.00  0.00    +0.000 C 
ATOM      3  C   UNL     1      48.940   6.737  15.522  0.00  0.00    +0.000 C 
ENDROOT
BRANCH   2   4
ATOM      4  C   UNL     1      49.581   8.355  13.745  0.00  0.00    +0.000 A 
ATOM      5  C   UNL     1      50.904   8.079  14.169  0.00  0.00    +0.000 A 
ATOM      6  C   UNL     1      52.027   8.419  13.415  0.00  0.00    +0.000 A 
ATOM      7  C   UNL     1      51.892   9.001  12.159  0.00  0.00    +0.000 A 
ATOM      8  C   UNL     1      50.590   9.282  11.710  0.00  0.00    +0.000 A 
ATOM      9  C   UNL     1      49.449   8.970  12.491  0.00  0.00    +0.000 A 
BRANCH   7  10
ATOM     10  C   UNL     1      53.141   9.371  11.383  0.00  0.00    +0.000 C 
BRANCH  10  11
ATOM     11  N   UNL     1      53.937   8.329  10.721  0.00  0.00    +0.000 NA
ATOM     12  C   UNL     1      54.757   8.755   9.591  0.00  0.00    +0.000 C 
ATOM     13  C   UNL     1      54.053   8.737   8.214  0.00  0.00    +0.000 C 
ATOM     14  N   UNL     1      53.241   7.545   7.878  0.00  0.00    +0.000 NA
ATOM     15  C   UNL     1      52.532   7.013   9.055  0.00  0.00    +0.000 C 
ATOM     16  C   UNL     1      53.265   7.068  10.413  0.00  0.00    +0.000 C 
BRANCH  14  17
ATOM     17  C   UNL     1      54.001   6.548   7.108  0.00  0.00    +0.000 C 
BRANCH  17  18
ATOM     18  C   UNL     1      53.539   5.098   7.359  0.00  0.00    +0.000 C 
BRANCH  18  19
ATOM     19  O   UNL     1      52.510   4.729   6.442  0.00  0.00    +0.000 OA
ATOM     20  H   UNL     1      52.597   5.350   5.691  0.00  0.00    +0.000 HD
ENDBRANCH  18  19
ENDBRANCH  17  18
ENDBRANCH  14  17
ENDBRANCH  10  11
ENDBRANCH   7  10
ENDBRANCH   2   4
BRANCH   2  21
ATOM     21  N   UNL     1      47.165   7.507  14.007  0.00  0.00    +0.000 N 
ATOM     22  C   UNL     1      47.146   6.417  13.146  0.00  0.00    +0.000 C 
ATOM     23  O   UNL     1      48.136   5.719  12.935  0.00  0.00    +0.000 OA
ATOM     24  H   UNL     1      46.423   8.191  13.898  0.00  0.00    +0.000 HD
BRANCH  22  25
ATOM     25  C   UNL     1      45.886   6.060  12.480  0.00  0.00    +0.000 A 
ATOM     26  C   UNL     1      45.130   7.075  11.902  0.00  0.00    +0.000 A 
ATOM     27  S   UNL     1      43.663   6.538  11.220  0.00  0.00    +0.000 S 
ATOM     28  C   UNL     1      43.969   4.942  11.717  0.00  0.00    +0.000 A 
ATOM     29  N   UNL     1      43.049   3.964  11.500  0.00  0.00    +0.000 NA
ATOM     30  C   UNL     1      43.381   2.811  11.977  0.00  0.00    +0.000 A 
ATOM     31  N   UNL     1      44.557   2.543  12.626  0.00  0.00    +0.000 N 
ATOM     32  C   UNL     1      45.546   3.484  12.812  0.00  0.00    +0.000 A 
ATOM     33  O   UNL     1      46.634   3.203  13.304  0.00  0.00    +0.000 OA
ATOM     34  C   UNL     1      45.196   4.806  12.344  0.00  0.00    +0.000 A 
ATOM     35  H   UNL     1      44.765   1.612  12.954  0.00  0.00    +0.000 HD
ENDBRANCH  22  25
ENDBRANCH   2  21
TORSDOF 8
ENDMDL
MODEL 9
REMARK VINA RESULT:    -5.793      3.858      8.872
REMARK INTER + INTRA:          -8.719
REMARK INTER:                  -8.183
REMARK INTRA:                  -0.536
REMARK UNBOUND:                -0.387
REMARK  Name = 
REMARK  10 active torsions:
REMARK  status: ('A' for Active; 'I' for Inactive)
REMARK    1  A    between atoms: C_1  and  C_2
REMARK    2  A    between atoms: C_2  and  C_3
REMARK    3  A    between atoms: C_2  and  N_4
REMARK    4  A    between atoms: C_2  and  C_17
REMARK    5  A    between atoms: C_5  and  C_7
REMARK    6  A    between atoms: C_20  and  C_21
REMARK    7  A    between atoms: C_21  and  N_22
REMARK    8  A    between atoms: N_25  and  C_26
REMARK    9  A    between atoms: C_26  and  C_27
REMARK   10  A    between atoms: C_27  and  O_28
REMARK                            x       y       z     vdW  Elec       q    Type
REMARK                         _______ _______ _______ _____ _____    ______ ____
ROOT
ATOM      1  C   UNL     1      51.134   5.756  18.583  0.00  0.00    +0.000 C 
ATOM      2  C   UNL     1      49.601   5.725  18.844  0.00  0.00    +0.000 C 
ATOM      3  C   UNL     1      49.228   4.663  19.907  0.00  0.00    +0.000 C 
ENDROOT
BRANCH   2   4
ATOM      4  C   UNL     1      48.926   5.274  17.515  0.00  0.00    +0.000 A 
ATOM      5  C   UNL     1      48.378   3.968  17.466  0.00  0.00    +0.000 A 
ATOM      6  C   UNL     1      47.759   3.448  16.330  0.00  0.00    +0.000 A 
ATOM      7  C   UNL     1      47.594   4.226  15.189  0.00  0.00    +0.000 A 
ATOM      8  C   UNL     1      48.124   5.528  15.210  0.00  0.00    +0.000 A 
ATOM      9  C   UNL     1      48.786   6.045  16.352  0.00  0.00    +0.000 A 
BRANCH   7  10
ATOM     10  C   UNL     1      46.932   3.614  13.970  0.00  0.00    +0.000 C 
BRANCH  10  11
ATOM     11  N   UNL     1      45.555   3.976  13.616  0.00  0.00    +0.000 NA
ATOM     12  C   UNL     1      44.867   3.091  12.681  0.00  0.00    +0.000 C 
ATOM     13  C   UNL     1      45.070   3.419  11.183  0.00  0.00    +0.000 C 
ATOM     14  N   UNL     1      44.955   4.836  10.773  0.00  0.00    +0.000 NA
ATOM     15  C   UNL     1      45.506   5.749  11.790  0.00  0.00    +0.000 C 
ATOM     16  C   UNL     1      45.297   5.374  13.273  0.00  0.00    +0.000 C 
BRANCH  14  17
ATOM     17  C   UNL     1      43.603   5.176  10.302  0.00  0.00    +0.000 C 
BRANCH  17  18
ATOM     18  C   UNL     1      42.751   5.910  11.359  0.00  0.00    +0.000 C 
BRANCH  18  19
ATOM     19  O   UNL     1      42.047   4.979  12.177  0.00  0.00    +0.000 OA
ATOM     20  H   UNL     1      41.312   5.487  12.575  0.00  0.00    +0.000 HD
ENDBRANCH  18  19
ENDBRANCH  17  18
ENDBRANCH  14  17
ENDBRANCH  10  11
ENDBRANCH   7  10
ENDBRANCH   2   4
BRANCH   2  21
ATOM     21  N   UNL     1      49.176   7.057  19.353  0.00  0.00    +0.000 N 
ATOM     22  C   UNL     1      47.843   7.334  19.628  0.00  0.00    +0.000 C 
ATOM     23  O   UNL     1      46.952   6.494  19.515  0.00  0.00    +0.000 OA
ATOM     24  H   UNL     1      49.784   7.851  19.181  0.00  0.00    +0.000 HD
BRANCH  22  25
ATOM     25  C   UNL     1      47.480   8.675  20.104  0.00  0.00    +0.000 A 
ATOM     26  C   UNL     1      47.029   8.815  21.414  0.00  0.00    +0.000 A 
ATOM     27  S   UNL     1      46.579  10.407  21.822  0.00  0.00    +0.000 S 
ATOM     28  C   UNL     1      46.925  10.951  20.249  0.00  0.00    +0.000 A 
ATOM     29  N   UNL     1      46.688  12.243  19.898  0.00  0.00    +0.000 NA
ATOM     30  C   UNL     1      46.941  12.510  18.661  0.00  0.00    +0.000 A 
ATOM     31  N   UNL     1      47.433  11.611  17.753  0.00  0.00    +0.000 N 
ATOM     32  C   UNL     1      47.750  10.310  18.076  0.00  0.00    +0.000 A 
ATOM     33  O   UNL     1      48.284   9.548  17.278  0.00  0.00    +0.000 OA
ATOM     34  C   UNL     1      47.431   9.949  19.439  0.00  0.00    +0.000 A 
ATOM     35  H   UNL     1      47.631  11.892  16.804  0.00  0.00    +0.000 HD
ENDBRANCH  22  25
ENDBRANCH   2  21
TORSDOF 8
ENDMDL
