MODEL 1
REMARK VINA RESULT:    -8.426      0.000      0.000
REMARK INTER + INTRA:         -11.773
REMARK INTER:                 -10.889
REMARK INTRA:                  -0.884
REMARK UNBOUND:                -0.884
REMARK  Name = 
REMARK  5 active torsions:
REMARK  status: ('A' for Active; 'I' for Inactive)
REMARK    1  A    between atoms: C_2  and  C_4
REMARK    2  A    between atoms: N_8  and  C_9
REMARK    3  A    between atoms: C_9  and  C_10
REMARK    4  A    between atoms: C_10  and  C_11
REMARK    5  A    between atoms: C_15  and  N_16
REMARK                            x       y       z     vdW  Elec       q    Type
REMARK                         _______ _______ _______ _____ _____    ______ ____
ROOT
ATOM      1  C   UNL     1      43.251   4.317  11.005  0.00  0.00    +0.000 C 
ENDROOT
BRANCH   1   6
ATOM      2  C   UNL     1      46.562   2.499   7.585  0.00  0.00    +0.000 A 
ATOM      3  C   UNL     1      45.722   1.830   8.460  0.00  0.00    +0.000 A 
ATOM      4  C   UNL     1      44.792   2.564   9.199  0.00  0.00    +0.000 A 
ATOM      5  C   UNL     1      44.707   3.951   9.049  0.00  0.00    +0.000 A 
ATOM      6  N   UNL     1      43.738   4.712   9.690  0.00  0.00    +0.000 N 
ATOM      7  N   UNL     1      45.534   4.607   8.210  0.00  0.00    +0.000 NA
ATOM      8  C   UNL     1      46.449   3.878   7.508  0.00  0.00    +0.000 A 
ATOM      9  H   UNL     1      43.843   5.698   9.464  0.00  0.00    +0.000 HD
BRANCH   2  11
ATOM     10  N   UNL     1      48.702   2.529   6.442  0.00  0.00    +0.000 N 
ATOM     11  C   UNL     1      47.579   1.804   6.765  0.00  0.00    +0.000 C 
ATOM     12  O   UNL     1      47.444   0.650   6.420  0.00  0.00    +0.000 OA
ATOM     13  H   UNL     1      49.438   2.021   5.964  0.00  0.00    +0.000 HD
ATOM     14  H   UNL     1      48.954   3.383   6.913  0.00  0.00    +0.000 HD
ENDBRANCH   2  11
ENDBRANCH   1   6
BRANCH   1  15
ATOM     15  C   UNL     1      43.436   5.411  12.066  0.00  0.00    +0.000 C 
BRANCH  15  16
ATOM     16  C   UNL     1      44.786   5.352  12.756  0.00  0.00    +0.000 A 
ATOM     17  C   UNL     1      45.216   4.230  13.467  0.00  0.00    +0.000 A 
ATOM     18  N   UNL     1      46.426   4.122  14.061  0.00  0.00    +0.000 NA
ATOM     19  C   UNL     1      47.252   5.177  13.928  0.00  0.00    +0.000 A 
ATOM     20  C   UNL     1      46.960   6.359  13.241  0.00  0.00    +0.000 A 
ATOM     21  C   UNL     1      45.680   6.420  12.667  0.00  0.00    +0.000 A 
BRANCH  20  22
ATOM     22  N   UNL     1      47.870   7.382  13.112  0.00  0.00    +0.000 N 
ATOM     23  C   UNL     1      47.448   8.775  13.226  0.00  0.00    +0.000 C 
ATOM     24  C   UNL     1      47.822   9.534  11.960  0.00  0.00    +0.000 C 
ATOM     25  C   UNL     1      49.300   9.351  11.620  0.00  0.00    +0.000 C 
ATOM     26  C   UNL     1      49.680   7.872  11.560  0.00  0.00    +0.000 C 
ATOM     27  C   UNL     1      49.281   7.130  12.837  0.00  0.00    +0.000 C 
ENDBRANCH  20  22
ENDBRANCH  15  16
ENDBRANCH   1  15
TORSDOF 5
ENDMDL
MODEL 2
REMARK VINA RESULT:    -7.920      1.722      3.289
REMARK INTER + INTRA:         -11.119
REMARK INTER:                 -10.414
REMARK INTRA:                  -0.706
REMARK UNBOUND:                -0.884
REMARK  Name = 
REMARK  5 active torsions:
REMARK  status: ('A' for Active; 'I' for Inactive)
REMARK    1  A    between atoms: C_2  and  C_4
REMARK    2  A    between atoms: N_8  and  C_9
REMARK    3  A    between atoms: C_9  and  C_10
REMARK    4  A    between atoms: C_10  and  C_11
REMARK    5  A    between atoms: C_15  and  N_16
REMARK                            x       y       z     vdW  Elec       q    Type
REMARK                         _______ _______ _______ _____ _____    ______ ____
ROOT
ATOM      1  C   UNL     1      43.802   4.370  11.278  0.00  0.00    +0.000 C 
ENDROOT
BRANCH   1   6
ATOM      2  C   UNL     1      46.569   2.420   7.470  0.00  0.00    +0.000 A 
ATOM      3  C   UNL     1      45.850   1.785   8.470  0.00  0.00    +0.000 A 
ATOM      4  C   UNL     1      45.045   2.552   9.314  0.00  0.00    +0.000 A 
ATOM      5  C   UNL     1      44.963   3.937   9.147  0.00  0.00    +0.000 A 
ATOM      6  N   UNL     1      44.106   4.730   9.899  0.00  0.00    +0.000 N 
ATOM      7  N   UNL     1      45.674   4.560   8.185  0.00  0.00    +0.000 NA
ATOM      8  C   UNL     1      46.469   3.799   7.378  0.00  0.00    +0.000 A 
ATOM      9  H   UNL     1      44.195   5.708   9.639  0.00  0.00    +0.000 HD
BRANCH   2  11
ATOM     10  N   UNL     1      48.560   2.366   6.083  0.00  0.00    +0.000 N 
ATOM     11  C   UNL     1      47.449   1.689   6.532  0.00  0.00    +0.000 C 
ATOM     12  O   UNL     1      47.221   0.547   6.197  0.00  0.00    +0.000 OA
ATOM     13  H   UNL     1      49.210   1.830   5.518  0.00  0.00    +0.000 HD
ATOM     14  H   UNL     1      48.905   3.202   6.527  0.00  0.00    +0.000 HD
ENDBRANCH   2  11
ENDBRANCH   1   6
BRANCH   1  15
ATOM     15  C   UNL     1      44.007   5.534  12.260  0.00  0.00    +0.000 C 
BRANCH  15  16
ATOM     16  C   UNL     1      45.464   5.772  12.608  0.00  0.00    +0.000 A 
ATOM     17  C   UNL     1      46.304   6.561  11.822  0.00  0.00    +0.000 A 
ATOM     18  N   UNL     1      47.595   6.831  12.119  0.00  0.00    +0.000 NA
ATOM     19  C   UNL     1      48.068   6.298  13.261  0.00  0.00    +0.000 A 
ATOM     20  C   UNL     1      47.343   5.497  14.148  0.00  0.00    +0.000 A 
ATOM     21  C   UNL     1      46.016   5.234  13.772  0.00  0.00    +0.000 A 
BRANCH  20  22
ATOM     22  N   UNL     1      47.881   5.019  15.320  0.00  0.00    +0.000 N 
ATOM     23  C   UNL     1      47.607   3.656  15.765  0.00  0.00    +0.000 C 
ATOM     24  C   UNL     1      46.983   3.681  17.154  0.00  0.00    +0.000 C 
ATOM     25  C   UNL     1      47.827   4.502  18.127  0.00  0.00    +0.000 C 
ATOM     26  C   UNL     1      48.109   5.901  17.577  0.00  0.00    +0.000 C 
ATOM     27  C   UNL     1      48.723   5.847  16.177  0.00  0.00    +0.000 C 
ENDBRANCH  20  22
ENDBRANCH  15  16
ENDBRANCH   1  15
TORSDOF 5
ENDMDL
MODEL 3
REMARK VINA RESULT:    -7.599      2.194      2.982
REMARK INTER + INTRA:         -10.705
REMARK INTER:                 -10.149
REMARK INTRA:                  -0.556
REMARK UNBOUND:                -0.884
REMARK  Name = 
REMARK  5 active torsions:
REMARK  status: ('A' for Active; 'I' for Inactive)
REMARK    1  A    between atoms: C_2  and  C_4
REMARK    2  A    between atoms: N_8  and  C_9
REMARK    3  A    between atoms: C_9  and  C_10
REMARK    4  A    between atoms: C_10  and  C_11
REMARK    5  A    between atoms: C_15  and  N_16
REMARK                            x       y       z     vdW  Elec       q    Type
REMARK                         _______ _______ _______ _____ _____    ______ ____
ROOT
ATOM      1  C   UNL     1      43.606   4.734  11.028  0.00  0.00    +0.000 C 
ENDROOT
BRANCH   1   6
ATOM      2  C   UNL     1      46.608   2.508   7.565  0.00  0.00    +0.000 A 
ATOM      3  C   UNL     1      45.735   1.949   8.484  0.00  0.00    +0.000 A 
ATOM      4  C   UNL     1      44.907   2.791   9.228  0.00  0.00    +0.000 A 
ATOM      5  C   UNL     1      44.953   4.174   9.041  0.00  0.00    +0.000 A 
ATOM      6  N   UNL     1      44.086   5.045   9.688  0.00  0.00    +0.000 N 
ATOM      7  N   UNL     1      45.813   4.724   8.158  0.00  0.00    +0.000 NA
ATOM      8  C   UNL     1      46.628   3.889   7.450  0.00  0.00    +0.000 A 
ATOM      9  H   UNL     1      44.279   6.009   9.430  0.00  0.00    +0.000 HD
BRANCH   2  11
ATOM     10  N   UNL     1      48.623   2.344   6.224  0.00  0.00    +0.000 N 
ATOM     11  C   UNL     1      47.524   1.694   6.736  0.00  0.00    +0.000 C 
ATOM     12  O   UNL     1      47.333   0.514   6.539  0.00  0.00    +0.000 OA
ATOM     13  H   UNL     1      49.298   1.762   5.738  0.00  0.00    +0.000 HD
ATOM     14  H   UNL     1      48.937   3.237   6.567  0.00  0.00    +0.000 HD
ENDBRANCH   2  11
ENDBRANCH   1   6
BRANCH   1  15
ATOM     15  C   UNL     1      44.722   4.753  12.083  0.00  0.00    +0.000 C 
BRANCH  15  16
ATOM     16  C   UNL     1      45.450   6.082  12.159  0.00  0.00    +0.000 A 
ATOM     17  C   UNL     1      46.806   6.177  12.474  0.00  0.00    +0.000 A 
ATOM     18  N   UNL     1      47.500   7.337  12.511  0.00  0.00    +0.000 NA
ATOM     19  C   UNL     1      46.812   8.454  12.207  0.00  0.00    +0.000 A 
ATOM     20  C   UNL     1      45.457   8.509  11.867  0.00  0.00    +0.000 A 
ATOM     21  C   UNL     1      44.787   7.275  11.869  0.00  0.00    +0.000 A 
BRANCH  20  22
ATOM     22  N   UNL     1      44.828   9.684  11.528  0.00  0.00    +0.000 N 
ATOM     23  C   UNL     1      43.525   9.670  10.870  0.00  0.00    +0.000 C 
ATOM     24  C   UNL     1      43.605  10.421   9.547  0.00  0.00    +0.000 C 
ATOM     25  C   UNL     1      44.199  11.816   9.737  0.00  0.00    +0.000 C 
ATOM     26  C   UNL     1      45.539  11.757  10.469  0.00  0.00    +0.000 C 
ATOM     27  C   UNL     1      45.434  10.986  11.786  0.00  0.00    +0.000 C 
ENDBRANCH  20  22
ENDBRANCH  15  16
ENDBRANCH   1  15
TORSDOF 5
ENDMDL
MODEL 4
REMARK VINA RESULT:    -6.978      3.651      7.783
REMARK INTER + INTRA:          -9.901
REMARK INTER:                  -9.392
REMARK INTRA:                  -0.509
REMARK UNBOUND:                -0.884
REMARK  Name = 
REMARK  5 active torsions:
REMARK  status: ('A' for Active; 'I' for Inactive)
REMARK    1  A    between atoms: C_2  and  C_4
REMARK    2  A    between atoms: N_8  and  C_9
REMARK    3  A    between atoms: C_9  and  C_10
REMARK    4  A    between atoms: C_10  and  C_11
REMARK    5  A    between atoms: C_15  and  N_16
REMARK                            x       y       z     vdW  Elec       q    Type
REMARK                         _______ _______ _______ _____ _____    ______ ____
ROOT
ATOM      1  C   UNL     1      46.313   5.798  13.663  0.00  0.00    +0.000 C 
ENDROOT
BRANCH   1   6
ATOM      2  C   UNL     1      49.436   3.992  17.261  0.00  0.00    +0.000 A 
ATOM      3  C   UNL     1      49.164   5.297  16.885  0.00  0.00    +0.000 A 
ATOM      4  C   UNL     1      48.146   5.536  15.961  0.00  0.00    +0.000 A 
ATOM      5  C   UNL     1      47.409   4.474  15.430  0.00  0.00    +0.000 A 
ATOM      6  N   UNL     1      46.327   4.667  14.582  0.00  0.00    +0.000 N 
ATOM      7  N   UNL     1      47.682   3.200  15.781  0.00  0.00    +0.000 NA
ATOM      8  C   UNL     1      48.692   2.982  16.673  0.00  0.00    +0.000 A 
ATOM      9  H   UNL     1      45.927   3.778  14.295  0.00  0.00    +0.000 HD
BRANCH   2  11
ATOM     10  N   UNL     1      50.393   4.209  19.480  0.00  0.00    +0.000 N 
ATOM     11  C   UNL     1      50.499   3.644  18.230  0.00  0.00    +0.000 C 
ATOM     12  O   UNL     1      51.399   2.882  17.950  0.00  0.00    +0.000 OA
ATOM     13  H   UNL     1      51.067   3.894  20.170  0.00  0.00    +0.000 HD
ATOM     14  H   UNL     1      49.544   4.634  19.816  0.00  0.00    +0.000 HD
ENDBRANCH   2  11
ENDBRANCH   1   6
BRANCH   1  15
ATOM     15  C   UNL     1      44.979   5.948  12.917  0.00  0.00    +0.000 C 
BRANCH  15  16
ATOM     16  C   UNL     1      44.525   4.667  12.242  0.00  0.00    +0.000 A 
ATOM     17  C   UNL     1      43.634   3.778  12.844  0.00  0.00    +0.000 A 
ATOM     18  N   UNL     1      43.174   2.649  12.260  0.00  0.00    +0.000 NA
ATOM     19  C   UNL     1      43.613   2.401  11.012  0.00  0.00    +0.000 A 
ATOM     20  C   UNL     1      44.497   3.203  10.285  0.00  0.00    +0.000 A 
ATOM     21  C   UNL     1      44.957   4.348  10.954  0.00  0.00    +0.000 A 
BRANCH  20  22
ATOM     22  N   UNL     1      44.872   2.908   8.995  0.00  0.00    +0.000 N 
ATOM     23  C   UNL     1      45.115   1.527   8.587  0.00  0.00    +0.000 C 
ATOM     24  C   UNL     1      46.529   1.392   8.036  0.00  0.00    +0.000 C 
ATOM     25  C   UNL     1      46.800   2.428   6.945  0.00  0.00    +0.000 C 
ATOM     26  C   UNL     1      46.483   3.843   7.428  0.00  0.00    +0.000 C 
ATOM     27  C   UNL     1      45.063   3.947   7.989  0.00  0.00    +0.000 C 
ENDBRANCH  20  22
ENDBRANCH  15  16
ENDBRANCH   1  15
TORSDOF 5
ENDMDL
MODEL 5
REMARK VINA RESULT:    -6.966      1.456      2.427
REMARK INTER + INTRA:          -9.886
REMARK INTER:                  -9.329
REMARK INTRA:                  -0.558
REMARK UNBOUND:                -0.884
REMARK  Name = 
REMARK  5 active torsions:
REMARK  status: ('A' for Active; 'I' for Inactive)
REMARK    1  A    between atoms: C_2  and  C_4
REMARK    2  A    between atoms: N_8  and  C_9
REMARK    3  A    between atoms: C_9  and  C_10
REMARK    4  A    between atoms: C_10  and  C_11
REMARK    5  A    between atoms: C_15  and  N_16
REMARK                            x       y       z     vdW  Elec       q    Type
REMARK                         _______ _______ _______ _____ _____    ______ ____
ROOT
ATOM      1  C   UNL     1      43.347   3.854  11.284  0.00  0.00    +0.000 C 
ENDROOT
BRANCH   1   6
ATOM      2  C   UNL     1      46.571   2.745   7.498  0.00  0.00    +0.000 A 
ATOM      3  C   UNL     1      45.869   1.907   8.350  0.00  0.00    +0.000 A 
ATOM      4  C   UNL     1      44.925   2.462   9.216  0.00  0.00    +0.000 A 
ATOM      5  C   UNL     1      44.687   3.838   9.216  0.00  0.00    +0.000 A 
ATOM      6  N   UNL     1      43.694   4.425   9.990  0.00  0.00    +0.000 N 
ATOM      7  N   UNL     1      45.380   4.659   8.399  0.00  0.00    +0.000 NA
ATOM      8  C   UNL     1      46.311   4.104   7.570  0.00  0.00    +0.000 A 
ATOM      9  H   UNL     1      43.681   5.433   9.861  0.00  0.00    +0.000 HD
BRANCH   2  11
ATOM     10  N   UNL     1      47.548   2.768   5.277  0.00  0.00    +0.000 N 
ATOM     11  C   UNL     1      47.592   2.247   6.550  0.00  0.00    +0.000 C 
ATOM     12  O   UNL     1      48.438   1.445   6.882  0.00  0.00    +0.000 OA
ATOM     13  H   UNL     1      48.307   2.497   4.660  0.00  0.00    +0.000 HD
ATOM     14  H   UNL     1      47.031   3.600   5.046  0.00  0.00    +0.000 HD
ENDBRANCH   2  11
ENDBRANCH   1   6
BRANCH   1  15
ATOM     15  C   UNL     1      43.164   4.918  12.378  0.00  0.00    +0.000 C 
BRANCH  15  16
ATOM     16  C   UNL     1      44.046   6.136  12.180  0.00  0.00    +0.000 A 
ATOM     17  C   UNL     1      43.635   7.246  11.441  0.00  0.00    +0.000 A 
ATOM     18  N   UNL     1      44.374   8.366  11.275  0.00  0.00    +0.000 NA
ATOM     19  C   UNL     1      45.574   8.386  11.886  0.00  0.00    +0.000 A 
ATOM     20  C   UNL     1      46.111   7.353  12.661  0.00  0.00    +0.000 A 
ATOM     21  C   UNL     1      45.306   6.209  12.775  0.00  0.00    +0.000 A 
BRANCH  20  22
ATOM     22  N   UNL     1      47.329   7.459  13.289  0.00  0.00    +0.000 N 
ATOM     23  C   UNL     1      48.091   6.265  13.644  0.00  0.00    +0.000 C 
ATOM     24  C   UNL     1      48.370   6.255  15.141  0.00  0.00    +0.000 C 
ATOM     25  C   UNL     1      49.009   7.566  15.595  0.00  0.00    +0.000 C 
ATOM     26  C   UNL     1      48.181   8.773  15.153  0.00  0.00    +0.000 C 
ATOM     27  C   UNL     1      47.903   8.751  13.649  0.00  0.00    +0.000 C 
ENDBRANCH  20  22
ENDBRANCH  15  16
ENDBRANCH   1  15
TORSDOF 5
ENDMDL
MODEL 6
REMARK VINA RESULT:    -6.795      3.210      7.287
REMARK INTER + INTRA:          -9.666
REMARK INTER:                  -9.375
REMARK INTRA:                  -0.291
REMARK UNBOUND:                -0.884
REMARK  Name = 
REMARK  5 active torsions:
REMARK  status: ('A' for Active; 'I' for Inactive)
REMARK    1  A    between atoms: C_2  and  C_4
REMARK    2  A    between atoms: N_8  and  C_9
REMARK    3  A    between atoms: C_9  and  C_10
REMARK    4  A    between atoms: C_10  and  C_11
REMARK    5  A    between atoms: C_15  and  N_16
REMARK                            x       y       z     vdW  Elec       q    Type
REMARK                         _______ _______ _______ _____ _____    ______ ____
ROOT
ATOM      1  C   UNL     1      47.015   6.886  11.811  0.00  0.00    +0.000 C 
ENDROOT
BRANCH   1   6
ATOM      2  C   UNL     1      47.793   4.567  16.281  0.00  0.00    +0.000 A 
ATOM      3  C   UNL     1      47.247   4.081  15.103  0.00  0.00    +0.000 A 
ATOM      4  C   UNL     1      47.282   4.883  13.962  0.00  0.00    +0.000 A 
ATOM      5  C   UNL     1      47.865   6.152  14.005  0.00  0.00    +0.000 A 
ATOM      6  N   UNL     1      48.008   6.947  12.876  0.00  0.00    +0.000 N 
ATOM      7  N   UNL     1      48.383   6.635  15.154  0.00  0.00    +0.000 NA
ATOM      8  C   UNL     1      48.327   5.846  16.266  0.00  0.00    +0.000 A 
ATOM      9  H   UNL     1      48.445   7.834  13.110  0.00  0.00    +0.000 HD
BRANCH   2  11
ATOM     10  N   UNL     1      46.859   2.789  17.642  0.00  0.00    +0.000 N 
ATOM     11  C   UNL     1      47.798   3.790  17.539  0.00  0.00    +0.000 C 
ATOM     12  O   UNL     1      48.602   4.002  18.421  0.00  0.00    +0.000 OA
ATOM     13  H   UNL     1      46.928   2.197  18.464  0.00  0.00    +0.000 HD
ATOM     14  H   UNL     1      46.356   2.430  16.848  0.00  0.00    +0.000 HD
ENDBRANCH   2  11
ENDBRANCH   1   6
BRANCH   1  15
ATOM     15  C   UNL     1      45.576   6.787  12.338  0.00  0.00    +0.000 C 
BRANCH  15  16
ATOM     16  C   UNL     1      44.868   5.517  11.905  0.00  0.00    +0.000 A 
ATOM     17  C   UNL     1      43.849   4.933  12.658  0.00  0.00    +0.000 A 
ATOM     18  N   UNL     1      43.166   3.826  12.287  0.00  0.00    +0.000 NA
ATOM     19  C   UNL     1      43.508   3.283  11.103  0.00  0.00    +0.000 A 
ATOM     20  C   UNL     1      44.501   3.762  10.243  0.00  0.00    +0.000 A 
ATOM     21  C   UNL     1      45.189   4.899  10.695  0.00  0.00    +0.000 A 
BRANCH  20  22
ATOM     22  N   UNL     1      44.768   3.178   9.028  0.00  0.00    +0.000 N 
ATOM     23  C   UNL     1      44.840   1.726   8.897  0.00  0.00    +0.000 C 
ATOM     24  C   UNL     1      46.198   1.323   8.337  0.00  0.00    +0.000 C 
ATOM     25  C   UNL     1      46.516   2.086   7.052  0.00  0.00    +0.000 C 
ATOM     26  C   UNL     1      46.379   3.595   7.251  0.00  0.00    +0.000 C 
ATOM     27  C   UNL     1      45.013   3.971   7.827  0.00  0.00    +0.000 C 
ENDBRANCH  20  22
ENDBRANCH  15  16
ENDBRANCH   1  15
TORSDOF 5
ENDMDL
MODEL 7
REMARK VINA RESULT:    -6.527      4.216      7.290
REMARK INTER + INTRA:          -9.319
REMARK INTER:                  -8.159
REMARK INTRA:                  -1.159
REMARK UNBOUND:                -0.884
REMARK  Name = 
REMARK  5 active torsions:
REMARK  status: ('A' for Active; 'I' for Inactive)
REMARK    1  A    between atoms: C_2  and  C_4
REMARK    2  A    between atoms: N_8  and  C_9
REMARK    3  A    between atoms: C_9  and  C_10
REMARK    4  A    between atoms: C_10  and  C_11
REMARK    5  A    between atoms: C_15  and  N_16
REMARK                            x       y       z     vdW  Elec       q    Type
REMARK                         _______ _______ _______ _____ _____    ______ ____
ROOT
ATOM      1  C   UNL     1      47.269   9.792  11.877  0.00  0.00    +0.000 C 
ENDROOT
BRANCH   1   6
ATOM      2  C   UNL     1      42.353  10.622  10.825  0.00  0.00    +0.000 A 
ATOM      3  C   UNL     1      43.095   9.453  10.770  0.00  0.00    +0.000 A 
ATOM      4  C   UNL     1      44.403   9.460  11.257  0.00  0.00    +0.000 A 
ATOM      5  C   UNL     1      44.951  10.625  11.799  0.00  0.00    +0.000 A 
ATOM      6  N   UNL     1      46.211  10.658  12.381  0.00  0.00    +0.000 N 
ATOM      7  N   UNL     1      44.237  11.769  11.840  0.00  0.00    +0.000 NA
ATOM      8  C   UNL     1      42.965  11.752  11.344  0.00  0.00    +0.000 A 
ATOM      9  H   UNL     1      46.436  11.593  12.708  0.00  0.00    +0.000 HD
BRANCH   2  11
ATOM     10  N   UNL     1      40.063   9.822  10.875  0.00  0.00    +0.000 N 
ATOM     11  C   UNL     1      40.962  10.709  10.330  0.00  0.00    +0.000 C 
ATOM     12  O   UNL     1      40.624  11.535   9.509  0.00  0.00    +0.000 OA
ATOM     13  H   UNL     1      39.093   9.948  10.605  0.00  0.00    +0.000 HD
ATOM     14  H   UNL     1      40.250   9.307  11.720  0.00  0.00    +0.000 HD
ENDBRANCH   2  11
ENDBRANCH   1   6
BRANCH   1  15
ATOM     15  C   UNL     1      48.138   9.195  12.994  0.00  0.00    +0.000 C 
BRANCH  15  16
ATOM     16  C   UNL     1      47.837   7.734  13.269  0.00  0.00    +0.000 A 
ATOM     17  C   UNL     1      48.429   7.031  14.318  0.00  0.00    +0.000 A 
ATOM     18  N   UNL     1      48.157   5.742  14.621  0.00  0.00    +0.000 NA
ATOM     19  C   UNL     1      47.240   5.128  13.849  0.00  0.00    +0.000 A 
ATOM     20  C   UNL     1      46.562   5.708  12.773  0.00  0.00    +0.000 A 
ATOM     21  C   UNL     1      46.906   7.040  12.494  0.00  0.00    +0.000 A 
BRANCH  20  22
ATOM     22  N   UNL     1      45.606   5.032  12.052  0.00  0.00    +0.000 N 
ATOM     23  C   UNL     1      44.937   5.667  10.920  0.00  0.00    +0.000 C 
ATOM     24  C   UNL     1      43.430   5.666  11.143  0.00  0.00    +0.000 C 
ATOM     25  C   UNL     1      42.918   4.264  11.470  0.00  0.00    +0.000 C 
ATOM     26  C   UNL     1      43.692   3.646  12.635  0.00  0.00    +0.000 C 
ATOM     27  C   UNL     1      45.202   3.671  12.391  0.00  0.00    +0.000 C 
ENDBRANCH  20  22
ENDBRANCH  15  16
ENDBRANCH   1  15
TORSDOF 5
ENDMDL
MODEL 8
REMARK VINA RESULT:    -6.441      3.495      6.144
REMARK INTER + INTRA:          -9.208
REMARK INTER:                  -8.125
REMARK INTRA:                  -1.083
REMARK UNBOUND:                -0.884
REMARK  Name = 
REMARK  5 active torsions:
REMARK  status: ('A' for Active; 'I' for Inactive)
REMARK    1  A    between atoms: C_2  and  C_4
REMARK    2  A    between atoms: N_8  and  C_9
REMARK    3  A    between atoms: C_9  and  C_10
REMARK    4  A    between atoms: C_10  and  C_11
REMARK    5  A    between atoms: C_15  and  N_16
REMARK                            x       y       z     vdW  Elec       q    Type
REMARK                         _______ _______ _______ _____ _____    ______ ____
ROOT
ATOM      1  C   UNL     1      49.087   7.266  13.065  0.00  0.00    +0.000 C 
ENDROOT
BRANCH   1   6
ATOM      2  C   UNL     1      44.920   4.528  12.019  0.00  0.00    +0.000 A 
ATOM      3  C   UNL     1      45.611   4.685  13.209  0.00  0.00    +0.000 A 
ATOM      4  C   UNL     1      46.647   5.619  13.270  0.00  0.00    +0.000 A 
ATOM      5  C   UNL     1      46.974   6.387  12.149  0.00  0.00    +0.000 A 
ATOM      6  N   UNL     1      47.931   7.392  12.187  0.00  0.00    +0.000 N 
ATOM      7  N   UNL     1      46.313   6.225  10.984  0.00  0.00    +0.000 NA
ATOM      8  C   UNL     1      45.314   5.296  10.936  0.00  0.00    +0.000 A 
ATOM      9  H   UNL     1      48.034   7.830  11.276  0.00  0.00    +0.000 HD
BRANCH   2  11
ATOM     10  N   UNL     1      43.899   2.406  12.603  0.00  0.00    +0.000 N 
ATOM     11  C   UNL     1      43.811   3.561  11.861  0.00  0.00    +0.000 C 
ATOM     12  O   UNL     1      42.863   3.783  11.139  0.00  0.00    +0.000 OA
ATOM     13  H   UNL     1      43.092   1.790  12.567  0.00  0.00    +0.000 HD
ATOM     14  H   UNL     1      44.528   2.305  13.383  0.00  0.00    +0.000 HD
ENDBRANCH   2  11
ENDBRANCH   1   6
BRANCH   1  15
ATOM     15  C   UNL     1      49.191   8.409  14.086  0.00  0.00    +0.000 C 
BRANCH  15  16
ATOM     16  C   UNL     1      48.909   7.967  15.509  0.00  0.00    +0.000 A 
ATOM     17  C   UNL     1      48.498   8.855  16.503  0.00  0.00    +0.000 A 
ATOM     18  N   UNL     1      48.198   8.494  17.771  0.00  0.00    +0.000 NA
ATOM     19  C   UNL     1      48.301   7.182  18.058  0.00  0.00    +0.000 A 
ATOM     20  C   UNL     1      48.692   6.180  17.164  0.00  0.00    +0.000 A 
ATOM     21  C   UNL     1      49.013   6.622  15.871  0.00  0.00    +0.000 A 
BRANCH  20  22
ATOM     22  N   UNL     1      48.735   4.852  17.517  0.00  0.00    +0.000 N 
ATOM     23  C   UNL     1      49.891   4.306  18.223  0.00  0.00    +0.000 C 
ATOM     24  C   UNL     1      50.484   3.150  17.427  0.00  0.00    +0.000 C 
ATOM     25  C   UNL     1      49.417   2.116  17.073  0.00  0.00    +0.000 C 
ATOM     26  C   UNL     1      48.221   2.765  16.376  0.00  0.00    +0.000 C 
ATOM     27  C   UNL     1      47.654   3.930  17.189  0.00  0.00    +0.000 C 
ENDBRANCH  20  22
ENDBRANCH  15  16
ENDBRANCH   1  15
TORSDOF 5
ENDMDL
MODEL 9
REMARK VINA RESULT:    -6.339      3.138      7.032
REMARK INTER + INTRA:          -9.076
REMARK INTER:                  -8.411
REMARK INTRA:                  -0.665
REMARK UNBOUND:                -0.884
REMARK  Name = 
REMARK  5 active torsions:
REMARK  status: ('A' for Active; 'I' for Inactive)
REMARK    1  A    between atoms: C_2  and  C_4
REMARK    2  A    between atoms: N_8  and  C_9
REMARK    3  A    between atoms: C_9  and  C_10
REMARK    4  A    between atoms: C_10  and  C_11
REMARK    5  A    between atoms: C_15  and  N_16
REMARK                            x       y       z     vdW  Elec       q    Type
REMARK                         _______ _______ _______ _____ _____    ______ ____
ROOT
ATOM      1  C   UNL     1      45.958   7.573  11.791  0.00  0.00    +0.000 C 
ENDROOT
BRANCH   1   6
ATOM      2  C   UNL     1      50.897   8.595  12.507  0.00  0.00    +0.000 A 
ATOM      3  C   UNL     1      50.260   7.951  11.459  0.00  0.00    +0.000 A 
ATOM      4  C   UNL     1      48.865   7.929  11.429  0.00  0.00    +0.000 A 
ATOM      5  C   UNL     1      48.125   8.554  12.435  0.00  0.00    +0.000 A 
ATOM      6  N   UNL     1      46.739   8.641  12.400  0.00  0.00    +0.000 N 
ATOM      7  N   UNL     1      48.742   9.169  13.465  0.00  0.00    +0.000 NA
ATOM      8  C   UNL     1      50.107   9.168  13.490  0.00  0.00    +0.000 A 
ATOM      9  H   UNL     1      46.384   9.123  13.221  0.00  0.00    +0.000 HD
BRANCH   2  11
ATOM     10  N   UNL     1      53.072   7.572  12.172  0.00  0.00    +0.000 N 
ATOM     11  C   UNL     1      52.370   8.666  12.623  0.00  0.00    +0.000 C 
ATOM     12  O   UNL     1      52.933   9.644  13.066  0.00  0.00    +0.000 OA
ATOM     13  H   UNL     1      54.082   7.662  12.164  0.00  0.00    +0.000 HD
ATOM     14  H   UNL     1      52.661   6.867  11.581  0.00  0.00    +0.000 HD
ENDBRANCH   2  11
ENDBRANCH   1   6
BRANCH   1  15
ATOM     15  C   UNL     1      45.086   6.816  12.804  0.00  0.00    +0.000 C 
BRANCH  15  16
ATOM     16  C   UNL     1      44.736   5.409  12.357  0.00  0.00    +0.000 A 
ATOM     17  C   UNL     1      44.099   4.493  13.195  0.00  0.00    +0.000 A 
ATOM     18  N   UNL     1      43.734   3.246  12.823  0.00  0.00    +0.000 NA
ATOM     19  C   UNL     1      44.006   2.900  11.550  0.00  0.00    +0.000 A 
ATOM     20  C   UNL     1      44.630   3.713  10.600  0.00  0.00    +0.000 A 
ATOM     21  C   UNL     1      45.005   4.987  11.054  0.00  0.00    +0.000 A 
BRANCH  20  22
ATOM     22  N   UNL     1      44.839   3.306   9.303  0.00  0.00    +0.000 N 
ATOM     23  C   UNL     1      44.787   1.891   8.948  0.00  0.00    +0.000 C 
ATOM     24  C   UNL     1      46.102   1.470   8.305  0.00  0.00    +0.000 C 
ATOM     25  C   UNL     1      46.474   2.396   7.147  0.00  0.00    +0.000 C 
ATOM     26  C   UNL     1      46.466   3.862   7.580  0.00  0.00    +0.000 C 
ATOM     27  C   UNL     1      45.141   4.254   8.235  0.00  0.00    +0.000 C 
ENDBRANCH  20  22
ENDBRANCH  15  16
ENDBRANCH   1  15
TORSDOF 5
ENDMDL
