MODEL 1
REMARK VINA RESULT:    -8.317      0.000      0.000
REMARK INTER + INTRA:         -12.709
REMARK INTER:                 -11.720
REMARK INTRA:                  -0.988
REMARK UNBOUND:                -0.988
REMARK  Name = 
REMARK  7 active torsions:
REMARK  status: ('A' for Active; 'I' for Inactive)
REMARK    1  A    between atoms: C_2  and  C_20
REMARK    2  A    between atoms: N_3  and  C_4
REMARK    3  A    between atoms: C_4  and  C_5
REMARK    4  A    between atoms: C_8  and  C_9
REMARK    5  A    between atoms: C_9  and  N_10
REMARK    6  A    between atoms: N_10  and  C_11
REMARK    7  A    between atoms: C_11  and  C_12
REMARK                            x       y       z     vdW  Elec       q    Type
REMARK                         _______ _______ _______ _____ _____    ______ ____
ROOT
ATOM      1  C   UNL     1      46.830   5.998  13.111  0.00  0.00    +0.000 A 
ATOM      2  C   UNL     1      45.871   5.093  13.583  0.00  0.00    +0.000 A 
ATOM      3  C   UNL     1      44.765   4.752  12.798  0.00  0.00    +0.000 A 
ATOM      4  C   UNL     1      44.590   5.310  11.523  0.00  0.00    +0.000 A 
ATOM      5  C   UNL     1      45.561   6.203  11.047  0.00  0.00    +0.000 A 
ATOM      6  C   UNL     1      46.675   6.535  11.827  0.00  0.00    +0.000 A 
ENDROOT
BRANCH   1   7
ATOM      7  C   UNL     1      48.025   6.352  13.957  0.00  0.00    +0.000 C 
BRANCH   7  10
ATOM      8  O   UNL     1      49.993   6.163  15.914  0.00  0.00    +0.000 OA
ATOM      9  C   UNL     1      48.827   5.986  16.244  0.00  0.00    +0.000 C 
ATOM     10  N   UNL     1      47.789   6.049  15.344  0.00  0.00    +0.000 N 
ATOM     11  H   UNL     1      46.835   5.974  15.661  0.00  0.00    +0.000 HD
BRANCH   9  12
ATOM     12  C   UNL     1      48.431   5.696  17.623  0.00  0.00    +0.000 A 
ATOM     13  C   UNL     1      48.285   4.443  18.211  0.00  0.00    +0.000 A 
ATOM     14  N   UNL     1      47.892   4.616  19.514  0.00  0.00    +0.000 N 
ATOM     15  C   UNL     1      47.776   5.945  19.790  0.00  0.00    +0.000 A 
ATOM     16  N   UNL     1      47.395   6.434  20.984  0.00  0.00    +0.000 NA
ATOM     17  C   UNL     1      47.358   7.786  21.008  0.00  0.00    +0.000 A 
ATOM     18  C   UNL     1      47.680   8.622  19.948  0.00  0.00    +0.000 A 
ATOM     19  C   UNL     1      48.070   8.059  18.732  0.00  0.00    +0.000 A 
ATOM     20  C   UNL     1      48.115   6.655  18.643  0.00  0.00    +0.000 A 
ATOM     21  H   UNL     1      47.709   3.888  20.188  0.00  0.00    +0.000 HD
ENDBRANCH   9  12
ENDBRANCH   7  10
ENDBRANCH   1   7
BRANCH   4  22
ATOM     22  C   UNL     1      43.397   4.943  10.661  0.00  0.00    +0.000 C 
BRANCH  22  23
ATOM     23  N   UNL     1      43.820   4.369   9.388  0.00  0.00    +0.000 NA
ATOM     24  H   UNL     1      44.546   4.959   8.982  0.00  0.00    +0.000 HD
BRANCH  23  25
ATOM     25  C   UNL     1      44.351   3.015   9.531  0.00  0.00    +0.000 C 
BRANCH  25  26
ATOM     26  C   UNL     1      45.452   2.768   8.519  0.00  0.00    +0.000 A 
ATOM     27  C   UNL     1      46.018   1.495   8.356  0.00  0.00    +0.000 A 
ATOM     28  C   UNL     1      47.008   1.276   7.395  0.00  0.00    +0.000 A 
ATOM     29  C   UNL     1      47.450   2.327   6.593  0.00  0.00    +0.000 A 
ATOM     30  C   UNL     1      46.914   3.601   6.761  0.00  0.00    +0.000 A 
ATOM     31  C   UNL     1      45.919   3.820   7.715  0.00  0.00    +0.000 A 
ENDBRANCH  25  26
ENDBRANCH  23  25
ENDBRANCH  22  23
ENDBRANCH   4  22
TORSDOF 7
ENDMDL
MODEL 2
REMARK VINA RESULT:    -8.004      1.718      2.509
REMARK INTER + INTRA:         -12.267
REMARK INTER:                 -11.167
REMARK INTRA:                  -1.100
REMARK UNBOUND:                -0.988
REMARK  Name = 
REMARK  7 active torsions:
REMARK  status: ('A' for Active; 'I' for Inactive)
REMARK    1  A    between atoms: C_2  and  C_20
REMARK    2  A    between atoms: N_3  and  C_4
REMARK    3  A    between atoms: C_4  and  C_5
REMARK    4  A    between atoms: C_8  and  C_9
REMARK    5  A    between atoms: C_9  and  N_10
REMARK    6  A    between atoms: N_10  and  C_11
REMARK    7  A    between atoms: C_11  and  C_12
REMARK                            x       y       z     vdW  Elec       q    Type
REMARK                         _______ _______ _______ _____ _____    ______ ____
ROOT
ATOM      1  C   UNL     1      46.079   6.747  12.456  0.00  0.00    +0.000 A 
ATOM      2  C   UNL     1      46.036   6.533  11.072  0.00  0.00    +0.000 A 
ATOM      3  C   UNL     1      45.302   5.470  10.538  0.00  0.00    +0.000 A 
ATOM      4  C   UNL     1      44.594   4.594  11.374  0.00  0.00    +0.000 A 
ATOM      5  C   UNL     1      44.626   4.820  12.757  0.00  0.00    +0.000 A 
ATOM      6  C   UNL     1      45.350   5.892  13.292  0.00  0.00    +0.000 A 
ENDROOT
BRANCH   1   7
ATOM      7  C   UNL     1      46.862   7.901  13.025  0.00  0.00    +0.000 C 
BRANCH   7  10
ATOM      8  O   UNL     1      49.182   6.483  13.612  0.00  0.00    +0.000 OA
ATOM      9  C   UNL     1      48.507   6.902  14.543  0.00  0.00    +0.000 C 
ATOM     10  N   UNL     1      47.339   7.604  14.349  0.00  0.00    +0.000 N 
ATOM     11  H   UNL     1      46.848   8.001  15.135  0.00  0.00    +0.000 HD
BRANCH   9  12
ATOM     12  C   UNL     1      48.879   6.701  15.944  0.00  0.00    +0.000 A 
ATOM     13  C   UNL     1      49.597   7.573  16.757  0.00  0.00    +0.000 A 
ATOM     14  N   UNL     1      49.737   6.999  17.996  0.00  0.00    +0.000 N 
ATOM     15  C   UNL     1      49.133   5.778  18.011  0.00  0.00    +0.000 A 
ATOM     16  N   UNL     1      49.109   4.965  19.082  0.00  0.00    +0.000 NA
ATOM     17  C   UNL     1      48.447   3.809  18.847  0.00  0.00    +0.000 A 
ATOM     18  C   UNL     1      47.831   3.459  17.654  0.00  0.00    +0.000 A 
ATOM     19  C   UNL     1      47.886   4.343  16.575  0.00  0.00    +0.000 A 
ATOM     20  C   UNL     1      48.574   5.557  16.757  0.00  0.00    +0.000 A 
ATOM     21  H   UNL     1      50.210   7.398  18.792  0.00  0.00    +0.000 HD
ENDBRANCH   9  12
ENDBRANCH   7  10
ENDBRANCH   1   7
BRANCH   4  22
ATOM     22  C   UNL     1      43.790   3.441  10.804  0.00  0.00    +0.000 C 
BRANCH  22  23
ATOM     23  N   UNL     1      44.659   2.345  10.389  0.00  0.00    +0.000 NA
ATOM     24  H   UNL     1      44.523   1.555  11.019  0.00  0.00    +0.000 HD
BRANCH  23  25
ATOM     25  C   UNL     1      44.387   1.897   9.023  0.00  0.00    +0.000 C 
BRANCH  25  26
ATOM     26  C   UNL     1      45.594   2.131   8.139  0.00  0.00    +0.000 A 
ATOM     27  C   UNL     1      46.538   1.119   7.913  0.00  0.00    +0.000 A 
ATOM     28  C   UNL     1      47.627   1.340   7.065  0.00  0.00    +0.000 A 
ATOM     29  C   UNL     1      47.791   2.577   6.444  0.00  0.00    +0.000 A 
ATOM     30  C   UNL     1      46.874   3.599   6.678  0.00  0.00    +0.000 A 
ATOM     31  C   UNL     1      45.782   3.377   7.517  0.00  0.00    +0.000 A 
ENDBRANCH  25  26
ENDBRANCH  23  25
ENDBRANCH  22  23
ENDBRANCH   4  22
TORSDOF 7
ENDMDL
MODEL 3
REMARK VINA RESULT:    -7.631      1.171      1.944
REMARK INTER + INTRA:         -11.742
REMARK INTER:                 -10.705
REMARK INTRA:                  -1.037
REMARK UNBOUND:                -0.988
REMARK  Name = 
REMARK  7 active torsions:
REMARK  status: ('A' for Active; 'I' for Inactive)
REMARK    1  A    between atoms: C_2  and  C_20
REMARK    2  A    between atoms: N_3  and  C_4
REMARK    3  A    between atoms: C_4  and  C_5
REMARK    4  A    between atoms: C_8  and  C_9
REMARK    5  A    between atoms: C_9  and  N_10
REMARK    6  A    between atoms: N_10  and  C_11
REMARK    7  A    between atoms: C_11  and  C_12
REMARK                            x       y       z     vdW  Elec       q    Type
REMARK                         _______ _______ _______ _____ _____    ______ ____
ROOT
ATOM      1  C   UNL     1      47.146   6.258  13.084  0.00  0.00    +0.000 A 
ATOM      2  C   UNL     1      46.726   6.983  11.961  0.00  0.00    +0.000 A 
ATOM      3  C   UNL     1      45.497   6.706  11.353  0.00  0.00    +0.000 A 
ATOM      4  C   UNL     1      44.659   5.698  11.852  0.00  0.00    +0.000 A 
ATOM      5  C   UNL     1      45.076   4.985  12.986  0.00  0.00    +0.000 A 
ATOM      6  C   UNL     1      46.300   5.270  13.603  0.00  0.00    +0.000 A 
ENDROOT
BRANCH   1   7
ATOM      7  C   UNL     1      48.465   6.569  13.741  0.00  0.00    +0.000 C 
BRANCH   7  10
ATOM      8  O   UNL     1      49.529   5.825  16.201  0.00  0.00    +0.000 OA
ATOM      9  C   UNL     1      48.852   6.844  16.145  0.00  0.00    +0.000 C 
ATOM     10  N   UNL     1      48.277   7.284  14.975  0.00  0.00    +0.000 N 
ATOM     11  H   UNL     1      47.790   8.165  14.948  0.00  0.00    +0.000 HD
BRANCH   9  12
ATOM     12  C   UNL     1      48.596   7.689  17.313  0.00  0.00    +0.000 A 
ATOM     13  C   UNL     1      48.713   9.073  17.392  0.00  0.00    +0.000 A 
ATOM     14  N   UNL     1      48.391   9.466  18.666  0.00  0.00    +0.000 N 
ATOM     15  C   UNL     1      48.068   8.377  19.419  0.00  0.00    +0.000 A 
ATOM     16  N   UNL     1      47.717   8.438  20.716  0.00  0.00    +0.000 NA
ATOM     17  C   UNL     1      47.443   7.222  21.241  0.00  0.00    +0.000 A 
ATOM     18  C   UNL     1      47.491   6.016  20.556  0.00  0.00    +0.000 A 
ATOM     19  C   UNL     1      47.860   6.014  19.209  0.00  0.00    +0.000 A 
ATOM     20  C   UNL     1      48.170   7.249  18.612  0.00  0.00    +0.000 A 
ATOM     21  H   UNL     1      48.384  10.411  19.019  0.00  0.00    +0.000 HD
ENDBRANCH   9  12
ENDBRANCH   7  10
ENDBRANCH   1   7
BRANCH   4  22
ATOM     22  C   UNL     1      43.323   5.394  11.204  0.00  0.00    +0.000 C 
BRANCH  22  23
ATOM     23  N   UNL     1      43.498   4.736   9.913  0.00  0.00    +0.000 NA
ATOM     24  H   UNL     1      44.180   5.257   9.364  0.00  0.00    +0.000 HD
BRANCH  23  25
ATOM     25  C   UNL     1      43.965   3.357  10.043  0.00  0.00    +0.000 C 
BRANCH  25  26
ATOM     26  C   UNL     1      45.065   3.073   9.041  0.00  0.00    +0.000 A 
ATOM     27  C   UNL     1      45.516   1.767   8.806  0.00  0.00    +0.000 A 
ATOM     28  C   UNL     1      46.507   1.517   7.853  0.00  0.00    +0.000 A 
ATOM     29  C   UNL     1      47.064   2.571   7.131  0.00  0.00    +0.000 A 
ATOM     30  C   UNL     1      46.643   3.877   7.371  0.00  0.00    +0.000 A 
ATOM     31  C   UNL     1      45.648   4.126   8.317  0.00  0.00    +0.000 A 
ENDBRANCH  25  26
ENDBRANCH  23  25
ENDBRANCH  22  23
ENDBRANCH   4  22
TORSDOF 7
ENDMDL
MODEL 4
REMARK VINA RESULT:    -7.152      2.851      9.899
REMARK INTER + INTRA:         -11.067
REMARK INTER:                 -10.410
REMARK INTRA:                  -0.657
REMARK UNBOUND:                -0.988
REMARK  Name = 
REMARK  7 active torsions:
REMARK  status: ('A' for Active; 'I' for Inactive)
REMARK    1  A    between atoms: C_2  and  C_20
REMARK    2  A    between atoms: N_3  and  C_4
REMARK    3  A    between atoms: C_4  and  C_5
REMARK    4  A    between atoms: C_8  and  C_9
REMARK    5  A    between atoms: C_9  and  N_10
REMARK    6  A    between atoms: N_10  and  C_11
REMARK    7  A    between atoms: C_11  and  C_12
REMARK                            x       y       z     vdW  Elec       q    Type
REMARK                         _______ _______ _______ _____ _____    ______ ____
ROOT
ATOM      1  C   UNL     1      44.921   5.990  11.617  0.00  0.00    +0.000 A 
ATOM      2  C   UNL     1      45.227   7.357  11.576  0.00  0.00    +0.000 A 
ATOM      3  C   UNL     1      46.220   7.890  12.404  0.00  0.00    +0.000 A 
ATOM      4  C   UNL     1      46.930   7.070  13.294  0.00  0.00    +0.000 A 
ATOM      5  C   UNL     1      46.632   5.700  13.321  0.00  0.00    +0.000 A 
ATOM      6  C   UNL     1      45.647   5.163  12.483  0.00  0.00    +0.000 A 
ENDROOT
BRANCH   1   7
ATOM      7  C   UNL     1      43.858   5.421  10.715  0.00  0.00    +0.000 C 
BRANCH   7  10
ATOM      8  O   UNL     1      45.727   5.324   8.656  0.00  0.00    +0.000 OA
ATOM      9  C   UNL     1      45.252   4.269   9.060  0.00  0.00    +0.000 C 
ATOM     10  N   UNL     1      44.315   4.220  10.066  0.00  0.00    +0.000 N 
ATOM     11  H   UNL     1      44.001   3.333  10.426  0.00  0.00    +0.000 HD
BRANCH   9  12
ATOM     12  C   UNL     1      45.640   2.968   8.515  0.00  0.00    +0.000 A 
ATOM     13  C   UNL     1      45.396   1.716   9.071  0.00  0.00    +0.000 A 
ATOM     14  N   UNL     1      45.934   0.760   8.248  0.00  0.00    +0.000 N 
ATOM     15  C   UNL     1      46.523   1.353   7.173  0.00  0.00    +0.000 A 
ATOM     16  N   UNL     1      47.148   0.679   6.191  0.00  0.00    +0.000 NA
ATOM     17  C   UNL     1      47.650   1.493   5.234  0.00  0.00    +0.000 A 
ATOM     18  C   UNL     1      47.547   2.877   5.214  0.00  0.00    +0.000 A 
ATOM     19  C   UNL     1      46.885   3.524   6.260  0.00  0.00    +0.000 A 
ATOM     20  C   UNL     1      46.352   2.728   7.292  0.00  0.00    +0.000 A 
ATOM     21  H   UNL     1      45.911  -0.239   8.392  0.00  0.00    +0.000 HD
ENDBRANCH   9  12
ENDBRANCH   7  10
ENDBRANCH   1   7
BRANCH   4  22
ATOM     22  C   UNL     1      48.012   7.638  14.192  0.00  0.00    +0.000 C 
BRANCH  22  23
ATOM     23  N   UNL     1      48.916   6.591  14.657  0.00  0.00    +0.000 NA
ATOM     24  H   UNL     1      49.786   6.644  14.129  0.00  0.00    +0.000 HD
BRANCH  23  25
ATOM     25  C   UNL     1      49.232   6.711  16.080  0.00  0.00    +0.000 C 
BRANCH  25  26
ATOM     26  C   UNL     1      48.861   5.439  16.813  0.00  0.00    +0.000 A 
ATOM     27  C   UNL     1      49.537   5.047  17.978  0.00  0.00    +0.000 A 
ATOM     28  C   UNL     1      49.160   3.889  18.663  0.00  0.00    +0.000 A 
ATOM     29  C   UNL     1      48.111   3.104  18.187  0.00  0.00    +0.000 A 
ATOM     30  C   UNL     1      47.447   3.468  17.018  0.00  0.00    +0.000 A 
ATOM     31  C   UNL     1      47.817   4.628  16.337  0.00  0.00    +0.000 A 
ENDBRANCH  25  26
ENDBRANCH  23  25
ENDBRANCH  22  23
ENDBRANCH   4  22
TORSDOF 7
ENDMDL
MODEL 5
REMARK VINA RESULT:    -7.047      2.786      9.121
REMARK INTER + INTRA:         -10.919
REMARK INTER:                  -9.680
REMARK INTRA:                  -1.239
REMARK UNBOUND:                -0.988
REMARK  Name = 
REMARK  7 active torsions:
REMARK  status: ('A' for Active; 'I' for Inactive)
REMARK    1  A    between atoms: C_2  and  C_20
REMARK    2  A    between atoms: N_3  and  C_4
REMARK    3  A    between atoms: C_4  and  C_5
REMARK    4  A    between atoms: C_8  and  C_9
REMARK    5  A    between atoms: C_9  and  N_10
REMARK    6  A    between atoms: N_10  and  C_11
REMARK    7  A    between atoms: C_11  and  C_12
REMARK                            x       y       z     vdW  Elec       q    Type
REMARK                         _______ _______ _______ _____ _____    ______ ____
ROOT
ATOM      1  C   UNL     1      47.045   7.791  12.885  0.00  0.00    +0.000 A 
ATOM      2  C   UNL     1      48.136   6.915  12.812  0.00  0.00    +0.000 A 
ATOM      3  C   UNL     1      49.182   7.002  13.735  0.00  0.00    +0.000 A 
ATOM      4  C   UNL     1      49.166   7.968  14.751  0.00  0.00    +0.000 A 
ATOM      5  C   UNL     1      48.064   8.833  14.831  0.00  0.00    +0.000 A 
ATOM      6  C   UNL     1      47.009   8.738  13.916  0.00  0.00    +0.000 A 
ENDROOT
BRANCH   1   7
ATOM      7  C   UNL     1      45.914   7.685  11.895  0.00  0.00    +0.000 C 
BRANCH   7  10
ATOM      8  O   UNL     1      43.470   6.460  11.385  0.00  0.00    +0.000 OA
ATOM      9  C   UNL     1      44.493   5.811  11.207  0.00  0.00    +0.000 C 
ATOM     10  N   UNL     1      45.745   6.330  11.442  0.00  0.00    +0.000 N 
ATOM     11  H   UNL     1      46.568   5.795  11.213  0.00  0.00    +0.000 HD
BRANCH   9  12
ATOM     12  C   UNL     1      44.479   4.430  10.723  0.00  0.00    +0.000 A 
ATOM     13  C   UNL     1      43.854   3.336  11.316  0.00  0.00    +0.000 A 
ATOM     14  N   UNL     1      44.094   2.226  10.547  0.00  0.00    +0.000 N 
ATOM     15  C   UNL     1      44.858   2.565   9.471  0.00  0.00    +0.000 A 
ATOM     16  N   UNL     1      45.270   1.690   8.537  0.00  0.00    +0.000 NA
ATOM     17  C   UNL     1      46.016   2.269   7.569  0.00  0.00    +0.000 A 
ATOM     18  C   UNL     1      46.338   3.617   7.495  0.00  0.00    +0.000 A 
ATOM     19  C   UNL     1      45.881   4.481   8.493  0.00  0.00    +0.000 A 
ATOM     20  C   UNL     1      45.111   3.931   9.534  0.00  0.00    +0.000 A 
ATOM     21  H   UNL     1      43.766   1.289  10.726  0.00  0.00    +0.000 HD
ENDBRANCH   9  12
ENDBRANCH   7  10
ENDBRANCH   1   7
BRANCH   4  22
ATOM     22  C   UNL     1      50.294   8.068  15.760  0.00  0.00    +0.000 C 
BRANCH  22  23
ATOM     23  N   UNL     1      49.893   7.531  17.056  0.00  0.00    +0.000 NA
ATOM     24  H   UNL     1      48.887   7.372  17.054  0.00  0.00    +0.000 HD
BRANCH  23  25
ATOM     25  C   UNL     1      50.559   6.268  17.372  0.00  0.00    +0.000 C 
BRANCH  25  26
ATOM     26  C   UNL     1      49.582   5.115  17.275  0.00  0.00    +0.000 A 
ATOM     27  C   UNL     1      50.014   3.785  17.379  0.00  0.00    +0.000 A 
ATOM     28  C   UNL     1      49.096   2.733  17.323  0.00  0.00    +0.000 A 
ATOM     29  C   UNL     1      47.738   2.998  17.152  0.00  0.00    +0.000 A 
ATOM     30  C   UNL     1      47.298   4.313  17.022  0.00  0.00    +0.000 A 
ATOM     31  C   UNL     1      48.213   5.364  17.087  0.00  0.00    +0.000 A 
ENDBRANCH  25  26
ENDBRANCH  23  25
ENDBRANCH  22  23
ENDBRANCH   4  22
TORSDOF 7
ENDMDL
MODEL 6
REMARK VINA RESULT:    -6.997      2.420      3.218
REMARK INTER + INTRA:         -10.848
REMARK INTER:                  -9.813
REMARK INTRA:                  -1.036
REMARK UNBOUND:                -0.988
REMARK  Name = 
REMARK  7 active torsions:
REMARK  status: ('A' for Active; 'I' for Inactive)
REMARK    1  A    between atoms: C_2  and  C_20
REMARK    2  A    between atoms: N_3  and  C_4
REMARK    3  A    between atoms: C_4  and  C_5
REMARK    4  A    between atoms: C_8  and  C_9
REMARK    5  A    between atoms: C_9  and  N_10
REMARK    6  A    between atoms: N_10  and  C_11
REMARK    7  A    between atoms: C_11  and  C_12
REMARK                            x       y       z     vdW  Elec       q    Type
REMARK                         _______ _______ _______ _____ _____    ______ ____
ROOT
ATOM      1  C   UNL     1      47.827   7.835  12.605  0.00  0.00    +0.000 A 
ATOM      2  C   UNL     1      46.693   8.578  12.960  0.00  0.00    +0.000 A 
ATOM      3  C   UNL     1      45.411   8.103  12.670  0.00  0.00    +0.000 A 
ATOM      4  C   UNL     1      45.230   6.875  12.016  0.00  0.00    +0.000 A 
ATOM      5  C   UNL     1      46.366   6.127  11.676  0.00  0.00    +0.000 A 
ATOM      6  C   UNL     1      47.650   6.595  11.978  0.00  0.00    +0.000 A 
ENDROOT
BRANCH   1   7
ATOM      7  C   UNL     1      49.206   8.347  12.930  0.00  0.00    +0.000 C 
BRANCH   7  10
ATOM      8  O   UNL     1      49.500   8.849  15.650  0.00  0.00    +0.000 OA
ATOM      9  C   UNL     1      49.963   7.809  15.198  0.00  0.00    +0.000 C 
ATOM     10  N   UNL     1      49.875   7.482  13.865  0.00  0.00    +0.000 N 
ATOM     11  H   UNL     1      50.199   6.585  13.539  0.00  0.00    +0.000 HD
BRANCH   9  12
ATOM     12  C   UNL     1      50.647   6.820  16.032  0.00  0.00    +0.000 A 
ATOM     13  C   UNL     1      52.004   6.768  16.335  0.00  0.00    +0.000 A 
ATOM     14  N   UNL     1      52.231   5.679  17.138  0.00  0.00    +0.000 N 
ATOM     15  C   UNL     1      51.061   5.019  17.363  0.00  0.00    +0.000 A 
ATOM     16  N   UNL     1      50.960   3.902  18.106  0.00  0.00    +0.000 NA
ATOM     17  C   UNL     1      49.693   3.436  18.181  0.00  0.00    +0.000 A 
ATOM     18  C   UNL     1      48.581   4.018  17.587  0.00  0.00    +0.000 A 
ATOM     19  C   UNL     1      48.746   5.178  16.829  0.00  0.00    +0.000 A 
ATOM     20  C   UNL     1      50.046   5.702  16.704  0.00  0.00    +0.000 A 
ATOM     21  H   UNL     1      53.120   5.388  17.517  0.00  0.00    +0.000 HD
ENDBRANCH   9  12
ENDBRANCH   7  10
ENDBRANCH   1   7
BRANCH   4  22
ATOM     22  C   UNL     1      43.843   6.349  11.702  0.00  0.00    +0.000 C 
BRANCH  22  23
ATOM     23  N   UNL     1      43.807   5.699  10.396  0.00  0.00    +0.000 NA
ATOM     24  H   UNL     1      44.645   5.951   9.875  0.00  0.00    +0.000 HD
BRANCH  23  25
ATOM     25  C   UNL     1      43.745   4.241  10.494  0.00  0.00    +0.000 C 
BRANCH  25  26
ATOM     26  C   UNL     1      44.655   3.602   9.467  0.00  0.00    +0.000 A 
ATOM     27  C   UNL     1      45.360   4.378   8.535  0.00  0.00    +0.000 A 
ATOM     28  C   UNL     1      46.223   3.775   7.616  0.00  0.00    +0.000 A 
ATOM     29  C   UNL     1      46.384   2.390   7.611  0.00  0.00    +0.000 A 
ATOM     30  C   UNL     1      45.672   1.605   8.515  0.00  0.00    +0.000 A 
ATOM     31  C   UNL     1      44.816   2.206   9.438  0.00  0.00    +0.000 A 
ENDBRANCH  25  26
ENDBRANCH  23  25
ENDBRANCH  22  23
ENDBRANCH   4  22
TORSDOF 7
ENDMDL
MODEL 7
REMARK VINA RESULT:    -6.869      4.959      8.607
REMARK INTER + INTRA:         -10.668
REMARK INTER:                  -9.750
REMARK INTRA:                  -0.918
REMARK UNBOUND:                -0.988
REMARK  Name = 
REMARK  7 active torsions:
REMARK  status: ('A' for Active; 'I' for Inactive)
REMARK    1  A    between atoms: C_2  and  C_20
REMARK    2  A    between atoms: N_3  and  C_4
REMARK    3  A    between atoms: C_4  and  C_5
REMARK    4  A    between atoms: C_8  and  C_9
REMARK    5  A    between atoms: C_9  and  N_10
REMARK    6  A    between atoms: N_10  and  C_11
REMARK    7  A    between atoms: C_11  and  C_12
REMARK                            x       y       z     vdW  Elec       q    Type
REMARK                         _______ _______ _______ _____ _____    ______ ____
ROOT
ATOM      1  C   UNL     1      46.727   8.167  12.141  0.00  0.00    +0.000 A 
ATOM      2  C   UNL     1      47.815   7.352  11.800  0.00  0.00    +0.000 A 
ATOM      3  C   UNL     1      49.080   7.908  11.583  0.00  0.00    +0.000 A 
ATOM      4  C   UNL     1      49.287   9.290  11.700  0.00  0.00    +0.000 A 
ATOM      5  C   UNL     1      48.200  10.100  12.057  0.00  0.00    +0.000 A 
ATOM      6  C   UNL     1      46.936   9.543  12.287  0.00  0.00    +0.000 A 
ENDROOT
BRANCH   1   7
ATOM      7  C   UNL     1      45.369   7.561  12.385  0.00  0.00    +0.000 C 
BRANCH   7  10
ATOM      8  O   UNL     1      43.106   6.393  11.265  0.00  0.00    +0.000 OA
ATOM      9  C   UNL     1      44.134   5.730  11.323  0.00  0.00    +0.000 C 
ATOM     10  N   UNL     1      45.298   6.220  11.869  0.00  0.00    +0.000 N 
ATOM     11  H   UNL     1      46.145   5.675  11.832  0.00  0.00    +0.000 HD
BRANCH   9  12
ATOM     12  C   UNL     1      44.220   4.360  10.814  0.00  0.00    +0.000 A 
ATOM     13  C   UNL     1      43.606   3.227  11.338  0.00  0.00    +0.000 A 
ATOM     14  N   UNL     1      43.953   2.146  10.568  0.00  0.00    +0.000 N 
ATOM     15  C   UNL     1      44.778   2.543   9.559  0.00  0.00    +0.000 A 
ATOM     16  N   UNL     1      45.298   1.708   8.642  0.00  0.00    +0.000 NA
ATOM     17  C   UNL     1      46.084   2.343   7.743  0.00  0.00    +0.000 A 
ATOM     18  C   UNL     1      46.347   3.705   7.718  0.00  0.00    +0.000 A 
ATOM     19  C   UNL     1      45.779   4.525   8.695  0.00  0.00    +0.000 A 
ATOM     20  C   UNL     1      44.960   3.918   9.666  0.00  0.00    +0.000 A 
ATOM     21  H   UNL     1      43.658   1.191  10.706  0.00  0.00    +0.000 HD
ENDBRANCH   9  12
ENDBRANCH   7  10
ENDBRANCH   1   7
BRANCH   4  22
ATOM     22  C   UNL     1      50.656   9.901  11.472  0.00  0.00    +0.000 C 
BRANCH  22  23
ATOM     23  N   UNL     1      51.643   8.880  11.136  0.00  0.00    +0.000 NA
ATOM     24  H   UNL     1      51.179   7.975  11.079  0.00  0.00    +0.000 HD
BRANCH  23  25
ATOM     25  C   UNL     1      52.309   9.138   9.860  0.00  0.00    +0.000 C 
BRANCH  25  26
ATOM     26  C   UNL     1      52.777   7.841   9.235  0.00  0.00    +0.000 A 
ATOM     27  C   UNL     1      52.805   7.673   7.843  0.00  0.00    +0.000 A 
ATOM     28  C   UNL     1      53.273   6.483   7.280  0.00  0.00    +0.000 A 
ATOM     29  C   UNL     1      53.709   5.444   8.101  0.00  0.00    +0.000 A 
ATOM     30  C   UNL     1      53.663   5.588   9.486  0.00  0.00    +0.000 A 
ATOM     31  C   UNL     1      53.204   6.779  10.049  0.00  0.00    +0.000 A 
ENDBRANCH  25  26
ENDBRANCH  23  25
ENDBRANCH  22  23
ENDBRANCH   4  22
TORSDOF 7
ENDMDL
MODEL 8
REMARK VINA RESULT:    -6.868      3.431      5.386
REMARK INTER + INTRA:         -10.667
REMARK INTER:                  -9.255
REMARK INTRA:                  -1.412
REMARK UNBOUND:                -0.988
REMARK  Name = 
REMARK  7 active torsions:
REMARK  status: ('A' for Active; 'I' for Inactive)
REMARK    1  A    between atoms: C_2  and  C_20
REMARK    2  A    between atoms: N_3  and  C_4
REMARK    3  A    between atoms: C_4  and  C_5
REMARK    4  A    between atoms: C_8  and  C_9
REMARK    5  A    between atoms: C_9  and  N_10
REMARK    6  A    between atoms: N_10  and  C_11
REMARK    7  A    between atoms: C_11  and  C_12
REMARK                            x       y       z     vdW  Elec       q    Type
REMARK                         _______ _______ _______ _____ _____    ______ ____
ROOT
ATOM      1  C   UNL     1      47.657   4.080  16.237  0.00  0.00    +0.000 A 
ATOM      2  C   UNL     1      46.961   3.881  15.037  0.00  0.00    +0.000 A 
ATOM      3  C   UNL     1      46.905   4.890  14.070  0.00  0.00    +0.000 A 
ATOM      4  C   UNL     1      47.541   6.122  14.280  0.00  0.00    +0.000 A 
ATOM      5  C   UNL     1      48.251   6.312  15.474  0.00  0.00    +0.000 A 
ATOM      6  C   UNL     1      48.319   5.298  16.437  0.00  0.00    +0.000 A 
ENDROOT
BRANCH   1   7
ATOM      7  C   UNL     1      47.723   2.985  17.269  0.00  0.00    +0.000 C 
BRANCH   7  10
ATOM      8  O   UNL     1      49.691   1.571  15.904  0.00  0.00    +0.000 OA
ATOM      9  C   UNL     1      49.981   2.078  16.981  0.00  0.00    +0.000 C 
ATOM     10  N   UNL     1      49.071   2.786  17.731  0.00  0.00    +0.000 N 
ATOM     11  H   UNL     1      49.362   3.254  18.575  0.00  0.00    +0.000 HD
BRANCH   9  12
ATOM     12  C   UNL     1      51.319   1.982  17.565  0.00  0.00    +0.000 A 
ATOM     13  C   UNL     1      52.013   0.822  17.894  0.00  0.00    +0.000 A 
ATOM     14  N   UNL     1      53.228   1.175  18.424  0.00  0.00    +0.000 N 
ATOM     15  C   UNL     1      53.345   2.532  18.451  0.00  0.00    +0.000 A 
ATOM     16  N   UNL     1      54.420   3.185  18.926  0.00  0.00    +0.000 NA
ATOM     17  C   UNL     1      54.296   4.529  18.843  0.00  0.00    +0.000 A 
ATOM     18  C   UNL     1      53.205   5.209  18.321  0.00  0.00    +0.000 A 
ATOM     19  C   UNL     1      52.116   4.479  17.840  0.00  0.00    +0.000 A 
ATOM     20  C   UNL     1      52.183   3.076  17.913  0.00  0.00    +0.000 A 
ATOM     21  H   UNL     1      53.946   0.546  18.752  0.00  0.00    +0.000 HD
ENDBRANCH   9  12
ENDBRANCH   7  10
ENDBRANCH   1   7
BRANCH   4  22
ATOM     22  C   UNL     1      47.491   7.221  13.235  0.00  0.00    +0.000 C 
BRANCH  22  23
ATOM     23  N   UNL     1      46.190   7.880  13.223  0.00  0.00    +0.000 NA
ATOM     24  H   UNL     1      46.306   8.851  13.511  0.00  0.00    +0.000 HD
BRANCH  23  25
ATOM     25  C   UNL     1      45.563   7.862  11.902  0.00  0.00    +0.000 C 
BRANCH  25  26
ATOM     26  C   UNL     1      44.966   6.500  11.617  0.00  0.00    +0.000 A 
ATOM     27  C   UNL     1      45.455   5.694  10.579  0.00  0.00    +0.000 A 
ATOM     28  C   UNL     1      44.917   4.424  10.351  0.00  0.00    +0.000 A 
ATOM     29  C   UNL     1      43.878   3.951  11.150  0.00  0.00    +0.000 A 
ATOM     30  C   UNL     1      43.366   4.750  12.169  0.00  0.00    +0.000 A 
ATOM     31  C   UNL     1      43.908   6.015  12.403  0.00  0.00    +0.000 A 
ENDBRANCH  25  26
ENDBRANCH  23  25
ENDBRANCH  22  23
ENDBRANCH   4  22
TORSDOF 7
ENDMDL
MODEL 9
REMARK VINA RESULT:    -6.710      3.141      8.632
REMARK INTER + INTRA:         -10.444
REMARK INTER:                  -8.654
REMARK INTRA:                  -1.790
REMARK UNBOUND:                -0.988
REMARK  Name = 
REMARK  7 active torsions:
REMARK  status: ('A' for Active; 'I' for Inactive)
REMARK    1  A    between atoms: C_2  and  C_20
REMARK    2  A    between atoms: N_3  and  C_4
REMARK    3  A    between atoms: C_4  and  C_5
REMARK    4  A    between atoms: C_8  and  C_9
REMARK    5  A    between atoms: C_9  and  N_10
REMARK    6  A    between atoms: N_10  and  C_11
REMARK    7  A    between atoms: C_11  and  C_12
REMARK                            x       y       z     vdW  Elec       q    Type
REMARK                         _______ _______ _______ _____ _____    ______ ____
ROOT
ATOM      1  C   UNL     1      48.897   8.001  15.650  0.00  0.00    +0.000 A 
ATOM      2  C   UNL     1      50.017   7.159  15.668  0.00  0.00    +0.000 A 
ATOM      3  C   UNL     1      50.706   6.915  16.860  0.00  0.00    +0.000 A 
ATOM      4  C   UNL     1      50.294   7.509  18.063  0.00  0.00    +0.000 A 
ATOM      5  C   UNL     1      49.163   8.338  18.044  0.00  0.00    +0.000 A 
ATOM      6  C   UNL     1      48.465   8.572  16.853  0.00  0.00    +0.000 A 
ENDROOT
BRANCH   1   7
ATOM      7  C   UNL     1      48.152   8.251  14.365  0.00  0.00    +0.000 C 
BRANCH   7  10
ATOM      8  O   UNL     1      48.756   6.089  12.721  0.00  0.00    +0.000 OA
ATOM      9  C   UNL     1      47.649   6.130  13.243  0.00  0.00    +0.000 C 
ATOM     10  N   UNL     1      47.258   7.165  14.062  0.00  0.00    +0.000 N 
ATOM     11  H   UNL     1      46.370   7.130  14.536  0.00  0.00    +0.000 HD
BRANCH   9  12
ATOM     12  C   UNL     1      46.644   5.084  13.050  0.00  0.00    +0.000 A 
ATOM     13  C   UNL     1      46.756   3.738  13.384  0.00  0.00    +0.000 A 
ATOM     14  N   UNL     1      45.594   3.102  13.027  0.00  0.00    +0.000 N 
ATOM     15  C   UNL     1      44.730   3.995  12.468  0.00  0.00    +0.000 A 
ATOM     16  N   UNL     1      43.509   3.671  12.006  0.00  0.00    +0.000 NA
ATOM     17  C   UNL     1      42.843   4.733  11.499  0.00  0.00    +0.000 A 
ATOM     18  C   UNL     1      43.317   6.036  11.449  0.00  0.00    +0.000 A 
ATOM     19  C   UNL     1      44.593   6.315  11.945  0.00  0.00    +0.000 A 
ATOM     20  C   UNL     1      45.339   5.245  12.474  0.00  0.00    +0.000 A 
ATOM     21  H   UNL     1      45.384   2.122  13.149  0.00  0.00    +0.000 HD
ENDBRANCH   9  12
ENDBRANCH   7  10
ENDBRANCH   1   7
BRANCH   4  22
ATOM     22  C   UNL     1      51.031   7.247  19.362  0.00  0.00    +0.000 C 
BRANCH  22  23
ATOM     23  N   UNL     1      50.203   6.495  20.298  0.00  0.00    +0.000 NA
ATOM     24  H   UNL     1      49.229   6.770  20.175  0.00  0.00    +0.000 HD
BRANCH  23  25
ATOM     25  C   UNL     1      50.303   5.049  20.104  0.00  0.00    +0.000 C 
BRANCH  25  26
ATOM     26  C   UNL     1      49.313   4.585  19.056  0.00  0.00    +0.000 A 
ATOM     27  C   UNL     1      48.013   5.108  19.001  0.00  0.00    +0.000 A 
ATOM     28  C   UNL     1      47.123   4.694  18.006  0.00  0.00    +0.000 A 
ATOM     29  C   UNL     1      47.518   3.748  17.063  0.00  0.00    +0.000 A 
ATOM     30  C   UNL     1      48.798   3.202  17.120  0.00  0.00    +0.000 A 
ATOM     31  C   UNL     1      49.691   3.620  18.108  0.00  0.00    +0.000 A 
ENDBRANCH  25  26
ENDBRANCH  23  25
ENDBRANCH  22  23
ENDBRANCH   4  22
TORSDOF 7
ENDMDL
