MODEL 1
REMARK VINA RESULT:    -7.402      0.000      0.000
REMARK INTER + INTRA:         -10.748
REMARK INTER:                  -9.998
REMARK INTRA:                  -0.750
REMARK UNBOUND:                -0.750
REMARK  Name = 
REMARK  7 active torsions:
REMARK  status: ('A' for Active; 'I' for Inactive)
REMARK    1  A    between atoms: C_1  and  O_2
REMARK    2  A    between atoms: O_2  and  C_3
REMARK    3  A    between atoms: C_5  and  O_6
REMARK    4  A    between atoms: O_6  and  C_7
REMARK    5  A    between atoms: C_7  and  C_8
REMARK    6  A    between atoms: C_8  and  C_9
REMARK    7  A    between atoms: C_17  and  C_18
REMARK                            x       y       z     vdW  Elec       q    Type
REMARK                         _______ _______ _______ _____ _____    ______ ____
ROOT
ATOM      1  C   UNL     1      45.989   5.615  12.301  0.00  0.00    +0.000 A 
ATOM      2  C   UNL     1      45.245   5.624  11.116  0.00  0.00    +0.000 A 
ATOM      3  C   UNL     1      44.616   4.459  10.713  0.00  0.00    +0.000 A 
ATOM      4  N   UNL     1      44.716   3.293  11.377  0.00  0.00    +0.000 NA
ATOM      5  C   UNL     1      45.479   3.291  12.497  0.00  0.00    +0.000 A 
ATOM      6  C   UNL     1      46.132   4.409  13.006  0.00  0.00    +0.000 A 
ENDROOT
BRANCH   6   7
ATOM      7  C   UNL     1      46.908   4.215  14.263  0.00  0.00    +0.000 C 
ATOM      8  N   UNL     1      46.993   5.249  15.141  0.00  0.00    +0.000 N 
ATOM      9  O   UNL     1      47.461   3.148  14.509  0.00  0.00    +0.000 OA
ATOM     10  H   UNL     1      46.587   6.158  14.939  0.00  0.00    +0.000 HD
ATOM     11  H   UNL     1      47.549   5.132  15.977  0.00  0.00    +0.000 HD
ENDBRANCH   6   7
BRANCH   1  13
ATOM     12  C   UNL     1      47.592   7.321  11.912  0.00  0.00    +0.000 C 
ATOM     13  O   UNL     1      46.624   6.736  12.780  0.00  0.00    +0.000 OA
ENDBRANCH   1  13
BRANCH   3  14
ATOM     14  O   UNL     1      43.875   4.523   9.545  0.00  0.00    +0.000 OA
BRANCH  14  15
ATOM     15  C   UNL     1      44.431   3.683   8.529  0.00  0.00    +0.000 C 
BRANCH  15  16
ATOM     16  C   UNL     1      45.742   4.282   8.012  0.00  0.00    +0.000 C 
BRANCH  16  17
ATOM     17  C   UNL     1      46.702   3.208   7.458  0.00  0.00    +0.000 C 
ATOM     18  C   UNL     1      46.751   3.208   5.919  0.00  0.00    +0.000 C 
ATOM     19  C   UNL     1      47.651   2.106   5.368  0.00  0.00    +0.000 C 
ATOM     20  C   UNL     1      47.243   0.737   5.893  0.00  0.00    +0.000 C 
ATOM     21  C   UNL     1      47.216   0.717   7.417  0.00  0.00    +0.000 C 
ATOM     22  C   UNL     1      46.313   1.815   7.980  0.00  0.00    +0.000 C 
ENDBRANCH  16  17
ENDBRANCH  15  16
ENDBRANCH  14  15
ENDBRANCH   3  14
TORSDOF 6
ENDMDL
MODEL 2
REMARK VINA RESULT:    -6.884      1.583      2.040
REMARK INTER + INTRA:         -10.049
REMARK INTER:                  -9.235
REMARK INTRA:                  -0.814
REMARK UNBOUND:                -0.750
REMARK  Name = 
REMARK  7 active torsions:
REMARK  status: ('A' for Active; 'I' for Inactive)
REMARK    1  A    between atoms: C_1  and  O_2
REMARK    2  A    between atoms: O_2  and  C_3
REMARK    3  A    between atoms: C_5  and  O_6
REMARK    4  A    between atoms: O_6  and  C_7
REMARK    5  A    between atoms: C_7  and  C_8
REMARK    6  A    between atoms: C_8  and  C_9
REMARK    7  A    between atoms: C_17  and  C_18
REMARK                            x       y       z     vdW  Elec       q    Type
REMARK                         _______ _______ _______ _____ _____    ______ ____
ROOT
ATOM      1  C   UNL     1      46.002   6.356  12.212  0.00  0.00    +0.000 A 
ATOM      2  C   UNL     1      45.020   5.523  11.668  0.00  0.00    +0.000 A 
ATOM      3  C   UNL     1      44.916   4.222  12.129  0.00  0.00    +0.000 A 
ATOM      4  N   UNL     1      45.743   3.692  13.049  0.00  0.00    +0.000 NA
ATOM      5  C   UNL     1      46.717   4.500  13.532  0.00  0.00    +0.000 A 
ATOM      6  C   UNL     1      46.896   5.828  13.159  0.00  0.00    +0.000 A 
ENDROOT
BRANCH   6   7
ATOM      7  C   UNL     1      48.012   6.564  13.816  0.00  0.00    +0.000 C 
ATOM      8  N   UNL     1      47.713   7.469  14.786  0.00  0.00    +0.000 N 
ATOM      9  O   UNL     1      49.179   6.362  13.498  0.00  0.00    +0.000 OA
ATOM     10  H   UNL     1      46.754   7.691  15.034  0.00  0.00    +0.000 HD
ATOM     11  H   UNL     1      48.466   7.994  15.207  0.00  0.00    +0.000 HD
ENDBRANCH   6   7
BRANCH   1  13
ATOM     12  C   UNL     1      45.244   8.596  12.409  0.00  0.00    +0.000 C 
ATOM     13  O   UNL     1      46.154   7.666  11.825  0.00  0.00    +0.000 OA
ENDBRANCH   1  13
BRANCH   3  14
ATOM     14  O   UNL     1      43.916   3.442  11.573  0.00  0.00    +0.000 OA
BRANCH  14  15
ATOM     15  C   UNL     1      43.975   3.460  10.144  0.00  0.00    +0.000 C 
BRANCH  15  16
ATOM     16  C   UNL     1      44.595   2.159   9.628  0.00  0.00    +0.000 C 
BRANCH  16  17
ATOM     17  C   UNL     1      45.810   2.409   8.709  0.00  0.00    +0.000 C 
ATOM     18  C   UNL     1      45.531   3.499   7.658  0.00  0.00    +0.000 C 
ATOM     19  C   UNL     1      46.708   3.702   6.709  0.00  0.00    +0.000 C 
ATOM     20  C   UNL     1      47.117   2.399   6.037  0.00  0.00    +0.000 C 
ATOM     21  C   UNL     1      47.420   1.319   7.069  0.00  0.00    +0.000 C 
ATOM     22  C   UNL     1      46.245   1.103   8.023  0.00  0.00    +0.000 C 
ENDBRANCH  16  17
ENDBRANCH  15  16
ENDBRANCH  14  15
ENDBRANCH   3  14
TORSDOF 6
ENDMDL
MODEL 3
REMARK VINA RESULT:    -6.721      1.511      2.831
REMARK INTER + INTRA:          -9.828
REMARK INTER:                  -9.041
REMARK INTRA:                  -0.787
REMARK UNBOUND:                -0.750
REMARK  Name = 
REMARK  7 active torsions:
REMARK  status: ('A' for Active; 'I' for Inactive)
REMARK    1  A    between atoms: C_1  and  O_2
REMARK    2  A    between atoms: O_2  and  C_3
REMARK    3  A    between atoms: C_5  and  O_6
REMARK    4  A    between atoms: O_6  and  C_7
REMARK    5  A    between atoms: C_7  and  C_8
REMARK    6  A    between atoms: C_8  and  C_9
REMARK    7  A    between atoms: C_17  and  C_18
REMARK                            x       y       z     vdW  Elec       q    Type
REMARK                         _______ _______ _______ _____ _____    ______ ____
ROOT
ATOM      1  C   UNL     1      46.477   5.403  13.153  0.00  0.00    +0.000 A 
ATOM      2  C   UNL     1      45.540   4.536  12.581  0.00  0.00    +0.000 A 
ATOM      3  C   UNL     1      44.575   5.055  11.736  0.00  0.00    +0.000 A 
ATOM      4  N   UNL     1      44.457   6.368  11.463  0.00  0.00    +0.000 NA
ATOM      5  C   UNL     1      45.344   7.199  12.062  0.00  0.00    +0.000 A 
ATOM      6  C   UNL     1      46.367   6.782  12.906  0.00  0.00    +0.000 A 
ENDROOT
BRANCH   6   7
ATOM      7  C   UNL     1      47.257   7.844  13.453  0.00  0.00    +0.000 C 
ATOM      8  N   UNL     1      47.801   7.665  14.687  0.00  0.00    +0.000 N 
ATOM      9  O   UNL     1      47.501   8.860  12.812  0.00  0.00    +0.000 OA
ATOM     10  H   UNL     1      47.577   6.857  15.259  0.00  0.00    +0.000 HD
ATOM     11  H   UNL     1      48.376   8.400  15.074  0.00  0.00    +0.000 HD
ENDBRANCH   6   7
BRANCH   1  13
ATOM     12  C   UNL     1      47.068   4.120  15.059  0.00  0.00    +0.000 C 
ATOM     13  O   UNL     1      47.479   4.962  13.983  0.00  0.00    +0.000 OA
ENDBRANCH   1  13
BRANCH   3  14
ATOM     14  O   UNL     1      43.683   4.154  11.180  0.00  0.00    +0.000 OA
BRANCH  14  15
ATOM     15  C   UNL     1      44.344   3.247  10.293  0.00  0.00    +0.000 C 
BRANCH  15  16
ATOM     16  C   UNL     1      44.487   3.879   8.906  0.00  0.00    +0.000 C 
BRANCH  16  17
ATOM     17  C   UNL     1      45.258   2.974   7.922  0.00  0.00    +0.000 C 
ATOM     18  C   UNL     1      45.859   1.738   8.616  0.00  0.00    +0.000 C 
ATOM     19  C   UNL     1      46.674   0.875   7.657  0.00  0.00    +0.000 C 
ATOM     20  C   UNL     1      47.762   1.684   6.964  0.00  0.00    +0.000 C 
ATOM     21  C   UNL     1      47.175   2.898   6.251  0.00  0.00    +0.000 C 
ATOM     22  C   UNL     1      46.359   3.772   7.204  0.00  0.00    +0.000 C 
ENDBRANCH  16  17
ENDBRANCH  15  16
ENDBRANCH  14  15
ENDBRANCH   3  14
TORSDOF 6
ENDMDL
MODEL 4
REMARK VINA RESULT:    -6.698      2.702      6.638
REMARK INTER + INTRA:          -9.798
REMARK INTER:                  -8.874
REMARK INTRA:                  -0.923
REMARK UNBOUND:                -0.750
REMARK  Name = 
REMARK  7 active torsions:
REMARK  status: ('A' for Active; 'I' for Inactive)
REMARK    1  A    between atoms: C_1  and  O_2
REMARK    2  A    between atoms: O_2  and  C_3
REMARK    3  A    between atoms: C_5  and  O_6
REMARK    4  A    between atoms: O_6  and  C_7
REMARK    5  A    between atoms: C_7  and  C_8
REMARK    6  A    between atoms: C_8  and  C_9
REMARK    7  A    between atoms: C_17  and  C_18
REMARK                            x       y       z     vdW  Elec       q    Type
REMARK                         _______ _______ _______ _____ _____    ______ ____
ROOT
ATOM      1  C   UNL     1      46.300   1.600   8.118  0.00  0.00    +0.000 A 
ATOM      2  C   UNL     1      45.363   1.733   9.148  0.00  0.00    +0.000 A 
ATOM      3  C   UNL     1      44.559   2.859   9.179  0.00  0.00    +0.000 A 
ATOM      4  N   UNL     1      44.659   3.867   8.292  0.00  0.00    +0.000 NA
ATOM      5  C   UNL     1      45.603   3.742   7.329  0.00  0.00    +0.000 A 
ATOM      6  C   UNL     1      46.444   2.644   7.189  0.00  0.00    +0.000 A 
ENDROOT
BRANCH   6   7
ATOM      7  C   UNL     1      47.407   2.679   6.052  0.00  0.00    +0.000 C 
ATOM      8  N   UNL     1      48.735   2.565   6.320  0.00  0.00    +0.000 N 
ATOM      9  O   UNL     1      47.019   2.807   4.896  0.00  0.00    +0.000 OA
ATOM     10  H   UNL     1      49.086   2.509   7.272  0.00  0.00    +0.000 HD
ATOM     11  H   UNL     1      49.391   2.625   5.555  0.00  0.00    +0.000 HD
ENDBRANCH   6   7
BRANCH   1  13
ATOM     12  C   UNL     1      46.541  -0.639   7.369  0.00  0.00    +0.000 C 
ATOM     13  O   UNL     1      47.118   0.501   8.003  0.00  0.00    +0.000 OA
ENDBRANCH   1  13
BRANCH   3  14
ATOM     14  O   UNL     1      43.634   2.936  10.206  0.00  0.00    +0.000 OA
BRANCH  14  15
ATOM     15  C   UNL     1      43.746   4.174  10.916  0.00  0.00    +0.000 C 
BRANCH  15  16
ATOM     16  C   UNL     1      44.435   3.946  12.263  0.00  0.00    +0.000 C 
BRANCH  16  17
ATOM     17  C   UNL     1      45.364   5.115  12.656  0.00  0.00    +0.000 C 
ATOM     18  C   UNL     1      45.943   5.838  11.425  0.00  0.00    +0.000 C 
ATOM     19  C   UNL     1      46.910   6.953  11.812  0.00  0.00    +0.000 C 
ATOM     20  C   UNL     1      48.027   6.439  12.709  0.00  0.00    +0.000 C 
ATOM     21  C   UNL     1      47.465   5.743  13.944  0.00  0.00    +0.000 C 
ATOM     22  C   UNL     1      46.498   4.620  13.569  0.00  0.00    +0.000 C 
ENDBRANCH  16  17
ENDBRANCH  15  16
ENDBRANCH  14  15
ENDBRANCH   3  14
TORSDOF 6
ENDMDL
MODEL 5
REMARK VINA RESULT:    -6.456      3.836      7.543
REMARK INTER + INTRA:          -9.470
REMARK INTER:                  -8.779
REMARK INTRA:                  -0.691
REMARK UNBOUND:                -0.750
REMARK  Name = 
REMARK  7 active torsions:
REMARK  status: ('A' for Active; 'I' for Inactive)
REMARK    1  A    between atoms: C_1  and  O_2
REMARK    2  A    between atoms: O_2  and  C_3
REMARK    3  A    between atoms: C_5  and  O_6
REMARK    4  A    between atoms: O_6  and  C_7
REMARK    5  A    between atoms: C_7  and  C_8
REMARK    6  A    between atoms: C_8  and  C_9
REMARK    7  A    between atoms: C_17  and  C_18
REMARK                            x       y       z     vdW  Elec       q    Type
REMARK                         _______ _______ _______ _____ _____    ______ ____
ROOT
ATOM      1  C   UNL     1      45.261   5.895  12.748  0.00  0.00    +0.000 A 
ATOM      2  C   UNL     1      46.231   5.400  13.626  0.00  0.00    +0.000 A 
ATOM      3  C   UNL     1      46.442   4.033  13.687  0.00  0.00    +0.000 A 
ATOM      4  N   UNL     1      45.730   3.140  12.976  0.00  0.00    +0.000 NA
ATOM      5  C   UNL     1      44.764   3.635  12.165  0.00  0.00    +0.000 A 
ATOM      6  C   UNL     1      44.486   4.988  12.008  0.00  0.00    +0.000 A 
ENDROOT
BRANCH   6   7
ATOM      7  C   UNL     1      43.398   5.341  11.053  0.00  0.00    +0.000 C 
ATOM      8  N   UNL     1      42.438   6.216  11.454  0.00  0.00    +0.000 N 
ATOM      9  O   UNL     1      43.361   4.857   9.927  0.00  0.00    +0.000 OA
ATOM     10  H   UNL     1      42.417   6.592  12.397  0.00  0.00    +0.000 HD
ATOM     11  H   UNL     1      41.680   6.428  10.821  0.00  0.00    +0.000 HD
ENDBRANCH   6   7
BRANCH   1  13
ATOM     12  C   UNL     1      46.037   8.114  13.075  0.00  0.00    +0.000 C 
ATOM     13  O   UNL     1      45.009   7.240  12.612  0.00  0.00    +0.000 OA
ENDBRANCH   1  13
BRANCH   3  14
ATOM     14  O   UNL     1      47.425   3.593  14.557  0.00  0.00    +0.000 OA
BRANCH  14  15
ATOM     15  C   UNL     1      47.364   4.287  15.807  0.00  0.00    +0.000 C 
BRANCH  15  16
ATOM     16  C   UNL     1      47.340   3.284  16.963  0.00  0.00    +0.000 C 
BRANCH  16  17
ATOM     17  C   UNL     1      48.715   3.142  17.650  0.00  0.00    +0.000 C 
ATOM     18  C   UNL     1      49.413   4.501  17.841  0.00  0.00    +0.000 C 
ATOM     19  C   UNL     1      50.799   4.357  18.462  0.00  0.00    +0.000 C 
ATOM     20  C   UNL     1      51.677   3.410  17.656  0.00  0.00    +0.000 C 
ATOM     21  C   UNL     1      51.007   2.051  17.481  0.00  0.00    +0.000 C 
ATOM     22  C   UNL     1      49.618   2.184  16.855  0.00  0.00    +0.000 C 
ENDBRANCH  16  17
ENDBRANCH  15  16
ENDBRANCH  14  15
ENDBRANCH   3  14
TORSDOF 6
ENDMDL
MODEL 6
REMARK VINA RESULT:    -5.795      3.835      8.403
REMARK INTER + INTRA:          -8.578
REMARK INTER:                  -7.917
REMARK INTRA:                  -0.661
REMARK UNBOUND:                -0.750
REMARK  Name = 
REMARK  7 active torsions:
REMARK  status: ('A' for Active; 'I' for Inactive)
REMARK    1  A    between atoms: C_1  and  O_2
REMARK    2  A    between atoms: O_2  and  C_3
REMARK    3  A    between atoms: C_5  and  O_6
REMARK    4  A    between atoms: O_6  and  C_7
REMARK    5  A    between atoms: C_7  and  C_8
REMARK    6  A    between atoms: C_8  and  C_9
REMARK    7  A    between atoms: C_17  and  C_18
REMARK                            x       y       z     vdW  Elec       q    Type
REMARK                         _______ _______ _______ _____ _____    ______ ____
ROOT
ATOM      1  C   UNL     1      45.670   6.041  12.388  0.00  0.00    +0.000 A 
ATOM      2  C   UNL     1      46.612   5.598  13.322  0.00  0.00    +0.000 A 
ATOM      3  C   UNL     1      46.630   4.258  13.670  0.00  0.00    +0.000 A 
ATOM      4  N   UNL     1      45.754   3.356  13.190  0.00  0.00    +0.000 NA
ATOM      5  C   UNL     1      44.820   3.812  12.321  0.00  0.00    +0.000 A 
ATOM      6  C   UNL     1      44.729   5.129  11.884  0.00  0.00    +0.000 A 
ENDROOT
BRANCH   6   7
ATOM      7  C   UNL     1      43.645   5.436  10.909  0.00  0.00    +0.000 C 
ATOM      8  N   UNL     1      42.851   6.517  11.137  0.00  0.00    +0.000 N 
ATOM      9  O   UNL     1      43.466   4.737   9.918  0.00  0.00    +0.000 OA
ATOM     10  H   UNL     1      42.946   7.083  11.975  0.00  0.00    +0.000 HD
ATOM     11  H   UNL     1      42.093   6.705  10.497  0.00  0.00    +0.000 HD
ENDBRANCH   6   7
BRANCH   1  13
ATOM     12  C   UNL     1      45.985   8.328  12.939  0.00  0.00    +0.000 C 
ATOM     13  O   UNL     1      45.605   7.350  11.973  0.00  0.00    +0.000 OA
ENDBRANCH   1  13
BRANCH   3  14
ATOM     14  O   UNL     1      47.592   3.864  14.584  0.00  0.00    +0.000 OA
BRANCH  14  15
ATOM     15  C   UNL     1      47.192   4.166  15.924  0.00  0.00    +0.000 C 
BRANCH  15  16
ATOM     16  C   UNL     1      48.219   3.613  16.915  0.00  0.00    +0.000 C 
BRANCH  16  17
ATOM     17  C   UNL     1      48.472   4.571  18.098  0.00  0.00    +0.000 C 
ATOM     18  C   UNL     1      48.807   3.817  19.398  0.00  0.00    +0.000 C 
ATOM     19  C   UNL     1      48.995   4.760  20.582  0.00  0.00    +0.000 C 
ATOM     20  C   UNL     1      47.782   5.658  20.780  0.00  0.00    +0.000 C 
ATOM     21  C   UNL     1      47.456   6.431  19.506  0.00  0.00    +0.000 C 
ATOM     22  C   UNL     1      47.261   5.495  18.313  0.00  0.00    +0.000 C 
ENDBRANCH  16  17
ENDBRANCH  15  16
ENDBRANCH  14  15
ENDBRANCH   3  14
TORSDOF 6
ENDMDL
MODEL 7
REMARK VINA RESULT:    -5.691      4.150      7.280
REMARK INTER + INTRA:          -8.437
REMARK INTER:                  -7.586
REMARK INTRA:                  -0.851
REMARK UNBOUND:                -0.750
REMARK  Name = 
REMARK  7 active torsions:
REMARK  status: ('A' for Active; 'I' for Inactive)
REMARK    1  A    between atoms: C_1  and  O_2
REMARK    2  A    between atoms: O_2  and  C_3
REMARK    3  A    between atoms: C_5  and  O_6
REMARK    4  A    between atoms: O_6  and  C_7
REMARK    5  A    between atoms: C_7  and  C_8
REMARK    6  A    between atoms: C_8  and  C_9
REMARK    7  A    between atoms: C_17  and  C_18
REMARK                            x       y       z     vdW  Elec       q    Type
REMARK                         _______ _______ _______ _____ _____    ______ ____
ROOT
ATOM      1  C   UNL     1      45.121   6.005  11.995  0.00  0.00    +0.000 A 
ATOM      2  C   UNL     1      46.367   6.244  12.584  0.00  0.00    +0.000 A 
ATOM      3  C   UNL     1      46.994   5.215  13.264  0.00  0.00    +0.000 A 
ATOM      4  N   UNL     1      46.449   3.995  13.432  0.00  0.00    +0.000 NA
ATOM      5  C   UNL     1      45.221   3.796  12.894  0.00  0.00    +0.000 A 
ATOM      6  C   UNL     1      44.515   4.750  12.170  0.00  0.00    +0.000 A 
ENDROOT
BRANCH   6   7
ATOM      7  C   UNL     1      43.186   4.337  11.637  0.00  0.00    +0.000 C 
ATOM      8  N   UNL     1      42.143   5.201  11.748  0.00  0.00    +0.000 N 
ATOM      9  O   UNL     1      43.027   3.242  11.107  0.00  0.00    +0.000 OA
ATOM     10  H   UNL     1      42.234   6.093  12.227  0.00  0.00    +0.000 HD
ATOM     11  H   UNL     1      41.233   4.909  11.421  0.00  0.00    +0.000 HD
ENDBRANCH   6   7
BRANCH   1  13
ATOM     12  C   UNL     1      44.855   8.314  11.517  0.00  0.00    +0.000 C 
ATOM     13  O   UNL     1      44.446   6.967  11.283  0.00  0.00    +0.000 OA
ENDBRANCH   1  13
BRANCH   3  14
ATOM     14  O   UNL     1      48.234   5.494  13.814  0.00  0.00    +0.000 OA
BRANCH  14  15
ATOM     15  C   UNL     1      48.228   6.750  14.500  0.00  0.00    +0.000 C 
BRANCH  15  16
ATOM     16  C   UNL     1      48.632   6.551  15.962  0.00  0.00    +0.000 C 
BRANCH  16  17
ATOM     17  C   UNL     1      48.627   5.064  16.377  0.00  0.00    +0.000 C 
ATOM     18  C   UNL     1      47.299   4.647  17.034  0.00  0.00    +0.000 C 
ATOM     19  C   UNL     1      47.316   3.195  17.502  0.00  0.00    +0.000 C 
ATOM     20  C   UNL     1      48.486   2.922  18.437  0.00  0.00    +0.000 C 
ATOM     21  C   UNL     1      49.811   3.308  17.787  0.00  0.00    +0.000 C 
ATOM     22  C   UNL     1      49.807   4.763  17.318  0.00  0.00    +0.000 C 
ENDBRANCH  16  17
ENDBRANCH  15  16
ENDBRANCH  14  15
ENDBRANCH   3  14
TORSDOF 6
ENDMDL
MODEL 8
REMARK VINA RESULT:    -5.625      3.563      6.345
REMARK INTER + INTRA:          -8.347
REMARK INTER:                  -7.530
REMARK INTRA:                  -0.818
REMARK UNBOUND:                -0.750
REMARK  Name = 
REMARK  7 active torsions:
REMARK  status: ('A' for Active; 'I' for Inactive)
REMARK    1  A    between atoms: C_1  and  O_2
REMARK    2  A    between atoms: O_2  and  C_3
REMARK    3  A    between atoms: C_5  and  O_6
REMARK    4  A    between atoms: O_6  and  C_7
REMARK    5  A    between atoms: C_7  and  C_8
REMARK    6  A    between atoms: C_8  and  C_9
REMARK    7  A    between atoms: C_17  and  C_18
REMARK                            x       y       z     vdW  Elec       q    Type
REMARK                         _______ _______ _______ _____ _____    ______ ____
ROOT
ATOM      1  C   UNL     1      45.514   4.567  12.697  0.00  0.00    +0.000 A 
ATOM      2  C   UNL     1      45.847   5.851  13.140  0.00  0.00    +0.000 A 
ATOM      3  C   UNL     1      45.176   6.938  12.607  0.00  0.00    +0.000 A 
ATOM      4  N   UNL     1      44.242   6.833  11.643  0.00  0.00    +0.000 NA
ATOM      5  C   UNL     1      43.965   5.586  11.193  0.00  0.00    +0.000 A 
ATOM      6  C   UNL     1      44.559   4.425  11.676  0.00  0.00    +0.000 A 
ENDROOT
BRANCH   6   7
ATOM      7  C   UNL     1      44.108   3.141  11.070  0.00  0.00    +0.000 C 
ATOM      8  N   UNL     1      44.955   2.483  10.234  0.00  0.00    +0.000 N 
ATOM      9  O   UNL     1      43.000   2.678  11.316  0.00  0.00    +0.000 OA
ATOM     10  H   UNL     1      45.858   2.869   9.975  0.00  0.00    +0.000 HD
ATOM     11  H   UNL     1      44.637   1.631   9.794  0.00  0.00    +0.000 HD
ENDBRANCH   6   7
BRANCH   1  13
ATOM     12  C   UNL     1      47.127   3.654  14.178  0.00  0.00    +0.000 C 
ATOM     13  O   UNL     1      46.117   3.437  13.195  0.00  0.00    +0.000 OA
ENDBRANCH   1  13
BRANCH   3  14
ATOM     14  O   UNL     1      45.527   8.187  13.090  0.00  0.00    +0.000 OA
BRANCH  14  15
ATOM     15  C   UNL     1      45.892   9.073  12.028  0.00  0.00    +0.000 C 
BRANCH  15  16
ATOM     16  C   UNL     1      47.133   9.879  12.420  0.00  0.00    +0.000 C 
BRANCH  16  17
ATOM     17  C   UNL     1      48.396   9.424  11.657  0.00  0.00    +0.000 C 
ATOM     18  C   UNL     1      48.882   8.035  12.110  0.00  0.00    +0.000 C 
ATOM     19  C   UNL     1      50.166   7.613  11.403  0.00  0.00    +0.000 C 
ATOM     20  C   UNL     1      51.267   8.650  11.575  0.00  0.00    +0.000 C 
ATOM     21  C   UNL     1      50.806  10.025  11.106  0.00  0.00    +0.000 C 
ATOM     22  C   UNL     1      49.521  10.461  11.811  0.00  0.00    +0.000 C 
ENDBRANCH  16  17
ENDBRANCH  15  16
ENDBRANCH  14  15
ENDBRANCH   3  14
TORSDOF 6
ENDMDL
MODEL 9
REMARK VINA RESULT:    -5.607      1.997      3.331
REMARK INTER + INTRA:          -8.324
REMARK INTER:                  -7.680
REMARK INTRA:                  -0.643
REMARK UNBOUND:                -0.750
REMARK  Name = 
REMARK  7 active torsions:
REMARK  status: ('A' for Active; 'I' for Inactive)
REMARK    1  A    between atoms: C_1  and  O_2
REMARK    2  A    between atoms: O_2  and  C_3
REMARK    3  A    between atoms: C_5  and  O_6
REMARK    4  A    between atoms: O_6  and  C_7
REMARK    5  A    between atoms: C_7  and  C_8
REMARK    6  A    between atoms: C_8  and  C_9
REMARK    7  A    between atoms: C_17  and  C_18
REMARK                            x       y       z     vdW  Elec       q    Type
REMARK                         _______ _______ _______ _____ _____    ______ ____
ROOT
ATOM      1  C   UNL     1      47.636   7.531  12.511  0.00  0.00    +0.000 A 
ATOM      2  C   UNL     1      46.675   6.687  11.944  0.00  0.00    +0.000 A 
ATOM      3  C   UNL     1      46.322   5.529  12.615  0.00  0.00    +0.000 A 
ATOM      4  N   UNL     1      46.887   5.141  13.773  0.00  0.00    +0.000 NA
ATOM      5  C   UNL     1      47.849   5.947  14.284  0.00  0.00    +0.000 A 
ATOM      6  C   UNL     1      48.261   7.143  13.708  0.00  0.00    +0.000 A 
ENDROOT
BRANCH   6   7
ATOM      7  C   UNL     1      49.319   7.905  14.431  0.00  0.00    +0.000 C 
ATOM      8  N   UNL     1      50.581   7.399  14.457  0.00  0.00    +0.000 N 
ATOM      9  O   UNL     1      49.066   8.965  14.991  0.00  0.00    +0.000 OA
ATOM     10  H   UNL     1      50.806   6.499  14.044  0.00  0.00    +0.000 HD
ATOM     11  H   UNL     1      51.291   7.895  14.977  0.00  0.00    +0.000 HD
ENDBRANCH   6   7
BRANCH   1  13
ATOM     12  C   UNL     1      47.124   9.806  12.073  0.00  0.00    +0.000 C 
ATOM     13  O   UNL     1      48.023   8.709  11.919  0.00  0.00    +0.000 OA
ENDBRANCH   1  13
BRANCH   3  14
ATOM     14  O   UNL     1      45.353   4.737  12.023  0.00  0.00    +0.000 OA
BRANCH  14  15
ATOM     15  C   UNL     1      45.021   5.210  10.714  0.00  0.00    +0.000 C 
BRANCH  15  16
ATOM     16  C   UNL     1      44.061   4.233  10.031  0.00  0.00    +0.000 C 
BRANCH  16  17
ATOM     17  C   UNL     1      44.711   3.510   8.831  0.00  0.00    +0.000 C 
ATOM     18  C   UNL     1      45.270   2.128   9.217  0.00  0.00    +0.000 C 
ATOM     19  C   UNL     1      45.968   1.441   8.047  0.00  0.00    +0.000 C 
ATOM     20  C   UNL     1      47.062   2.317   7.455  0.00  0.00    +0.000 C 
ATOM     21  C   UNL     1      46.515   3.680   7.046  0.00  0.00    +0.000 C 
ATOM     22  C   UNL     1      45.817   4.381   8.212  0.00  0.00    +0.000 C 
ENDBRANCH  16  17
ENDBRANCH  15  16
ENDBRANCH  14  15
ENDBRANCH   3  14
TORSDOF 6
ENDMDL
