MODEL 1
REMARK VINA RESULT:    -8.383      0.000      0.000
REMARK INTER + INTRA:         -12.137
REMARK INTER:                 -11.324
REMARK INTRA:                  -0.813
REMARK UNBOUND:                -0.813
REMARK  Name = 
REMARK  6 active torsions:
REMARK  status: ('A' for Active; 'I' for Inactive)
REMARK    1  A    between atoms: C_2  and  C_4
REMARK    2  A    between atoms: N_8  and  C_9
REMARK    3  A    between atoms: C_9  and  C_10
REMARK    4  A    between atoms: C_10  and  C_11
REMARK    5  A    between atoms: C_15  and  O_16
REMARK    6  A    between atoms: O_16  and  C_17
REMARK                            x       y       z     vdW  Elec       q    Type
REMARK                         _______ _______ _______ _____ _____    ______ ____
ROOT
ATOM      1  C   UNL     1      46.622   2.488   7.442  0.00  0.00    +0.000 A 
ATOM      2  C   UNL     1      45.858   1.878   8.428  0.00  0.00    +0.000 A 
ATOM      3  C   UNL     1      45.056   2.674   9.246  0.00  0.00    +0.000 A 
ATOM      4  C   UNL     1      45.038   4.056   9.078  0.00  0.00    +0.000 A 
ATOM      5  N   UNL     1      44.246   4.890   9.824  0.00  0.00    +0.000 N 
ATOM      6  N   UNL     1      45.801   4.656   8.144  0.00  0.00    +0.000 NA
ATOM      7  C   UNL     1      46.581   3.869   7.351  0.00  0.00    +0.000 A 
ATOM      8  H   UNL     1      44.370   5.875   9.626  0.00  0.00    +0.000 HD
ENDROOT
BRANCH   1  10
ATOM      9  N   UNL     1      48.486   2.399   5.891  0.00  0.00    +0.000 N 
ATOM     10  C   UNL     1      47.471   1.721   6.508  0.00  0.00    +0.000 C 
ATOM     11  O   UNL     1      47.302   0.522   6.324  0.00  0.00    +0.000 OA
ATOM     12  H   UNL     1      49.129   1.843   5.343  0.00  0.00    +0.000 HD
ATOM     13  H   UNL     1      48.806   3.303   6.211  0.00  0.00    +0.000 HD
ENDBRANCH   1  10
BRANCH   5  14
ATOM     14  C   UNL     1      43.341   4.422  10.850  0.00  0.00    +0.000 C 
BRANCH  14  15
ATOM     15  C   UNL     1      43.356   5.315  12.091  0.00  0.00    +0.000 C 
BRANCH  15  16
ATOM     16  C   UNL     1      44.779   5.479  12.578  0.00  0.00    +0.000 A 
ATOM     17  C   UNL     1      45.442   6.704  12.445  0.00  0.00    +0.000 A 
ATOM     18  C   UNL     1      46.711   6.879  13.003  0.00  0.00    +0.000 A 
ATOM     19  C   UNL     1      47.331   5.836  13.698  0.00  0.00    +0.000 A 
ATOM     20  C   UNL     1      46.685   4.609  13.823  0.00  0.00    +0.000 A 
ATOM     21  C   UNL     1      45.412   4.436  13.269  0.00  0.00    +0.000 A 
BRANCH  20  22
ATOM     22  O   UNL     1      47.168   3.528  14.515  0.00  0.00    +0.000 OA
BRANCH  22  23
ATOM     23  C   UNL     1      47.877   3.736  15.757  0.00  0.00    +0.000 C 
ATOM     24  C   UNL     1      48.393   2.478  16.490  0.00  0.00    +0.000 C 
ATOM     25  C   UNL     1      47.759   2.991  17.791  0.00  0.00    +0.000 C 
ATOM     26  C   UNL     1      46.946   3.995  16.968  0.00  0.00    +0.000 C 
ENDBRANCH  22  23
ENDBRANCH  20  22
ENDBRANCH  15  16
ENDBRANCH  14  15
ENDBRANCH   5  14
TORSDOF 6
ENDMDL
MODEL 2
REMARK VINA RESULT:    -7.817      1.840      3.382
REMARK INTER + INTRA:         -11.372
REMARK INTER:                 -10.430
REMARK INTRA:                  -0.942
REMARK UNBOUND:                -0.813
REMARK  Name = 
REMARK  6 active torsions:
REMARK  status: ('A' for Active; 'I' for Inactive)
REMARK    1  A    between atoms: C_2  and  C_4
REMARK    2  A    between atoms: N_8  and  C_9
REMARK    3  A    between atoms: C_9  and  C_10
REMARK    4  A    between atoms: C_10  and  C_11
REMARK    5  A    between atoms: C_15  and  O_16
REMARK    6  A    between atoms: O_16  and  C_17
REMARK                            x       y       z     vdW  Elec       q    Type
REMARK                         _______ _______ _______ _____ _____    ______ ____
ROOT
ATOM      1  C   UNL     1      46.547   2.508   7.630  0.00  0.00    +0.000 A 
ATOM      2  C   UNL     1      45.777   1.944   8.639  0.00  0.00    +0.000 A 
ATOM      3  C   UNL     1      44.946   2.772   9.394  0.00  0.00    +0.000 A 
ATOM      4  C   UNL     1      44.906   4.141   9.143  0.00  0.00    +0.000 A 
ATOM      5  N   UNL     1      44.087   5.003   9.825  0.00  0.00    +0.000 N 
ATOM      6  N   UNL     1      45.675   4.699   8.187  0.00  0.00    +0.000 NA
ATOM      7  C   UNL     1      46.482   3.881   7.456  0.00  0.00    +0.000 A 
ATOM      8  H   UNL     1      44.196   5.977   9.570  0.00  0.00    +0.000 HD
ENDROOT
BRANCH   1  10
ATOM      9  N   UNL     1      48.520   2.330   6.231  0.00  0.00    +0.000 N 
ATOM     10  C   UNL     1      47.426   1.703   6.758  0.00  0.00    +0.000 C 
ATOM     11  O   UNL     1      47.208   0.516   6.549  0.00  0.00    +0.000 OA
ATOM     12  H   UNL     1      49.175   1.744   5.729  0.00  0.00    +0.000 HD
ATOM     13  H   UNL     1      48.861   3.213   6.585  0.00  0.00    +0.000 HD
ENDBRANCH   1  10
BRANCH   5  14
ATOM     14  C   UNL     1      43.173   4.580  10.862  0.00  0.00    +0.000 C 
BRANCH  14  15
ATOM     15  C   UNL     1      43.216   5.496  12.086  0.00  0.00    +0.000 C 
BRANCH  15  16
ATOM     16  C   UNL     1      44.613   5.494  12.668  0.00  0.00    +0.000 A 
ATOM     17  C   UNL     1      45.194   4.308  13.129  0.00  0.00    +0.000 A 
ATOM     18  C   UNL     1      46.525   4.297  13.553  0.00  0.00    +0.000 A 
ATOM     19  C   UNL     1      47.290   5.468  13.523  0.00  0.00    +0.000 A 
ATOM     20  C   UNL     1      46.715   6.655  13.080  0.00  0.00    +0.000 A 
ATOM     21  C   UNL     1      45.385   6.665  12.650  0.00  0.00    +0.000 A 
BRANCH  20  22
ATOM     22  O   UNL     1      47.372   7.854  12.962  0.00  0.00    +0.000 OA
BRANCH  22  23
ATOM     23  C   UNL     1      48.548   7.944  12.129  0.00  0.00    +0.000 C 
ATOM     24  C   UNL     1      49.915   8.009  12.848  0.00  0.00    +0.000 C 
ATOM     25  C   UNL     1      50.296   9.223  11.989  0.00  0.00    +0.000 C 
ATOM     26  C   UNL     1      48.823   9.370  11.592  0.00  0.00    +0.000 C 
ENDBRANCH  22  23
ENDBRANCH  20  22
ENDBRANCH  15  16
ENDBRANCH  14  15
ENDBRANCH   5  14
TORSDOF 6
ENDMDL
MODEL 3
REMARK VINA RESULT:    -7.358      2.826      4.902
REMARK INTER + INTRA:         -10.753
REMARK INTER:                  -9.706
REMARK INTRA:                  -1.046
REMARK UNBOUND:                -0.813
REMARK  Name = 
REMARK  6 active torsions:
REMARK  status: ('A' for Active; 'I' for Inactive)
REMARK    1  A    between atoms: C_2  and  C_4
REMARK    2  A    between atoms: N_8  and  C_9
REMARK    3  A    between atoms: C_9  and  C_10
REMARK    4  A    between atoms: C_10  and  C_11
REMARK    5  A    between atoms: C_15  and  O_16
REMARK    6  A    between atoms: O_16  and  C_17
REMARK                            x       y       z     vdW  Elec       q    Type
REMARK                         _______ _______ _______ _____ _____    ______ ____
ROOT
ATOM      1  C   UNL     1      46.424   2.750   7.305  0.00  0.00    +0.000 A 
ATOM      2  C   UNL     1      45.843   3.897   7.830  0.00  0.00    +0.000 A 
ATOM      3  C   UNL     1      45.027   3.784   8.955  0.00  0.00    +0.000 A 
ATOM      4  C   UNL     1      44.794   2.536   9.529  0.00  0.00    +0.000 A 
ATOM      5  N   UNL     1      44.031   2.361  10.655  0.00  0.00    +0.000 N 
ATOM      6  N   UNL     1      45.329   1.416   9.005  0.00  0.00    +0.000 NA
ATOM      7  C   UNL     1      46.124   1.539   7.906  0.00  0.00    +0.000 A 
ATOM      8  H   UNL     1      43.909   1.395  10.933  0.00  0.00    +0.000 HD
ENDROOT
BRANCH   1  10
ATOM      9  N   UNL     1      48.670   2.678   6.391  0.00  0.00    +0.000 N 
ATOM     10  C   UNL     1      47.330   2.781   6.139  0.00  0.00    +0.000 C 
ATOM     11  O   UNL     1      46.901   2.856   4.995  0.00  0.00    +0.000 OA
ATOM     12  H   UNL     1      49.273   2.588   5.584  0.00  0.00    +0.000 HD
ATOM     13  H   UNL     1      49.031   2.363   7.281  0.00  0.00    +0.000 HD
ENDBRANCH   1  10
BRANCH   5  14
ATOM     14  C   UNL     1      43.404   3.450  11.368  0.00  0.00    +0.000 C 
BRANCH  14  15
ATOM     15  C   UNL     1      44.168   3.831  12.637  0.00  0.00    +0.000 C 
BRANCH  15  16
ATOM     16  C   UNL     1      44.871   5.154  12.425  0.00  0.00    +0.000 A 
ATOM     17  C   UNL     1      46.252   5.269  12.620  0.00  0.00    +0.000 A 
ATOM     18  C   UNL     1      46.908   6.461  12.307  0.00  0.00    +0.000 A 
ATOM     19  C   UNL     1      46.195   7.552  11.798  0.00  0.00    +0.000 A 
ATOM     20  C   UNL     1      44.819   7.452  11.615  0.00  0.00    +0.000 A 
ATOM     21  C   UNL     1      44.163   6.256  11.923  0.00  0.00    +0.000 A 
BRANCH  20  22
ATOM     22  O   UNL     1      44.019   8.432  11.084  0.00  0.00    +0.000 OA
BRANCH  22  23
ATOM     23  C   UNL     1      44.589   9.720  10.764  0.00  0.00    +0.000 C 
ATOM     24  C   UNL     1      44.427  10.840  11.817  0.00  0.00    +0.000 C 
ATOM     25  C   UNL     1      43.913  11.782  10.718  0.00  0.00    +0.000 C 
ATOM     26  C   UNL     1      43.713  10.566   9.807  0.00  0.00    +0.000 C 
ENDBRANCH  22  23
ENDBRANCH  20  22
ENDBRANCH  15  16
ENDBRANCH  14  15
ENDBRANCH   5  14
TORSDOF 6
ENDMDL
MODEL 4
REMARK VINA RESULT:    -7.336      1.517      1.968
REMARK INTER + INTRA:         -10.722
REMARK INTER:                 -10.303
REMARK INTRA:                  -0.420
REMARK UNBOUND:                -0.813
REMARK  Name = 
REMARK  6 active torsions:
REMARK  status: ('A' for Active; 'I' for Inactive)
REMARK    1  A    between atoms: C_2  and  C_4
REMARK    2  A    between atoms: N_8  and  C_9
REMARK    3  A    between atoms: C_9  and  C_10
REMARK    4  A    between atoms: C_10  and  C_11
REMARK    5  A    between atoms: C_15  and  O_16
REMARK    6  A    between atoms: O_16  and  C_17
REMARK                            x       y       z     vdW  Elec       q    Type
REMARK                         _______ _______ _______ _____ _____    ______ ____
ROOT
ATOM      1  C   UNL     1      46.629   2.485   7.429  0.00  0.00    +0.000 A 
ATOM      2  C   UNL     1      45.843   1.864   8.391  0.00  0.00    +0.000 A 
ATOM      3  C   UNL     1      45.066   2.654   9.239  0.00  0.00    +0.000 A 
ATOM      4  C   UNL     1      45.096   4.041   9.125  0.00  0.00    +0.000 A 
ATOM      5  N   UNL     1      44.332   4.872   9.903  0.00  0.00    +0.000 N 
ATOM      6  N   UNL     1      45.881   4.651   8.216  0.00  0.00    +0.000 NA
ATOM      7  C   UNL     1      46.635   3.870   7.393  0.00  0.00    +0.000 A 
ATOM      8  H   UNL     1      44.490   5.860   9.744  0.00  0.00    +0.000 HD
ENDROOT
BRANCH   1  10
ATOM      9  N   UNL     1      48.524   2.376   5.920  0.00  0.00    +0.000 N 
ATOM     10  C   UNL     1      47.453   1.726   6.467  0.00  0.00    +0.000 C 
ATOM     11  O   UNL     1      47.214   0.555   6.201  0.00  0.00    +0.000 OA
ATOM     12  H   UNL     1      49.146   1.816   5.350  0.00  0.00    +0.000 HD
ATOM     13  H   UNL     1      48.892   3.235   6.305  0.00  0.00    +0.000 HD
ENDBRANCH   1  10
BRANCH   5  14
ATOM     14  C   UNL     1      43.409   4.396  10.909  0.00  0.00    +0.000 C 
BRANCH  14  15
ATOM     15  C   UNL     1      44.037   4.355  12.303  0.00  0.00    +0.000 C 
BRANCH  15  16
ATOM     16  C   UNL     1      44.963   5.539  12.474  0.00  0.00    +0.000 A 
ATOM     17  C   UNL     1      44.523   6.837  12.194  0.00  0.00    +0.000 A 
ATOM     18  C   UNL     1      45.346   7.932  12.468  0.00  0.00    +0.000 A 
ATOM     19  C   UNL     1      46.616   7.744  13.023  0.00  0.00    +0.000 A 
ATOM     20  C   UNL     1      47.068   6.455  13.291  0.00  0.00    +0.000 A 
ATOM     21  C   UNL     1      46.241   5.360  13.022  0.00  0.00    +0.000 A 
BRANCH  20  22
ATOM     22  O   UNL     1      48.271   6.145  13.873  0.00  0.00    +0.000 OA
BRANCH  22  23
ATOM     23  C   UNL     1      48.691   6.853  15.061  0.00  0.00    +0.000 C 
ATOM     24  C   UNL     1      50.204   7.129  15.215  0.00  0.00    +0.000 C 
ATOM     25  C   UNL     1      50.149   6.565  16.642  0.00  0.00    +0.000 C 
ATOM     26  C   UNL     1      48.781   5.955  16.320  0.00  0.00    +0.000 C 
ENDBRANCH  22  23
ENDBRANCH  20  22
ENDBRANCH  15  16
ENDBRANCH  14  15
ENDBRANCH   5  14
TORSDOF 6
ENDMDL
MODEL 5
REMARK VINA RESULT:    -7.020      3.246      8.275
REMARK INTER + INTRA:         -10.295
REMARK INTER:                  -9.785
REMARK INTRA:                  -0.510
REMARK UNBOUND:                -0.813
REMARK  Name = 
REMARK  6 active torsions:
REMARK  status: ('A' for Active; 'I' for Inactive)
REMARK    1  A    between atoms: C_2  and  C_4
REMARK    2  A    between atoms: N_8  and  C_9
REMARK    3  A    between atoms: C_9  and  C_10
REMARK    4  A    between atoms: C_10  and  C_11
REMARK    5  A    between atoms: C_15  and  O_16
REMARK    6  A    between atoms: O_16  and  C_17
REMARK                            x       y       z     vdW  Elec       q    Type
REMARK                         _______ _______ _______ _____ _____    ______ ____
ROOT
ATOM      1  C   UNL     1      48.385   4.430  17.193  0.00  0.00    +0.000 A 
ATOM      2  C   UNL     1      48.630   5.663  16.602  0.00  0.00    +0.000 A 
ATOM      3  C   UNL     1      48.137   5.905  15.319  0.00  0.00    +0.000 A 
ATOM      4  C   UNL     1      47.426   4.915  14.645  0.00  0.00    +0.000 A 
ATOM      5  N   UNL     1      46.886   5.101  13.398  0.00  0.00    +0.000 N 
ATOM      6  N   UNL     1      47.213   3.706  15.200  0.00  0.00    +0.000 NA
ATOM      7  C   UNL     1      47.699   3.482  16.452  0.00  0.00    +0.000 A 
ATOM      8  H   UNL     1      46.436   4.281  13.010  0.00  0.00    +0.000 HD
ENDROOT
BRANCH   1  10
ATOM      9  N   UNL     1      48.204   3.067  19.191  0.00  0.00    +0.000 N 
ATOM     10  C   UNL     1      48.837   4.102  18.560  0.00  0.00    +0.000 C 
ATOM     11  O   UNL     1      49.763   4.702  19.091  0.00  0.00    +0.000 OA
ATOM     12  H   UNL     1      48.594   2.777  20.079  0.00  0.00    +0.000 HD
ATOM     13  H   UNL     1      47.628   2.401  18.695  0.00  0.00    +0.000 HD
ENDBRANCH   1  10
BRANCH   5  14
ATOM     14  C   UNL     1      46.987   6.341  12.663  0.00  0.00    +0.000 C 
BRANCH  14  15
ATOM     15  C   UNL     1      45.694   6.687  11.923  0.00  0.00    +0.000 C 
BRANCH  15  16
ATOM     16  C   UNL     1      45.279   5.517  11.057  0.00  0.00    +0.000 A 
ATOM     17  C   UNL     1      44.259   4.652  11.466  0.00  0.00    +0.000 A 
ATOM     18  C   UNL     1      43.804   3.649  10.607  0.00  0.00    +0.000 A 
ATOM     19  C   UNL     1      44.362   3.496   9.334  0.00  0.00    +0.000 A 
ATOM     20  C   UNL     1      45.388   4.343   8.925  0.00  0.00    +0.000 A 
ATOM     21  C   UNL     1      45.839   5.352   9.783  0.00  0.00    +0.000 A 
BRANCH  20  22
ATOM     22  O   UNL     1      45.984   4.323   7.690  0.00  0.00    +0.000 OA
BRANCH  22  23
ATOM     23  C   UNL     1      46.025   3.090   6.938  0.00  0.00    +0.000 C 
ATOM     24  C   UNL     1      46.984   1.989   7.446  0.00  0.00    +0.000 C 
ATOM     25  C   UNL     1      47.547   1.842   6.025  0.00  0.00    +0.000 C 
ATOM     26  C   UNL     1      46.886   3.173   5.654  0.00  0.00    +0.000 C 
ENDBRANCH  22  23
ENDBRANCH  20  22
ENDBRANCH  15  16
ENDBRANCH  14  15
ENDBRANCH   5  14
TORSDOF 6
ENDMDL
MODEL 6
REMARK VINA RESULT:    -6.954      3.070      7.483
REMARK INTER + INTRA:         -10.207
REMARK INTER:                  -9.219
REMARK INTRA:                  -0.989
REMARK UNBOUND:                -0.813
REMARK  Name = 
REMARK  6 active torsions:
REMARK  status: ('A' for Active; 'I' for Inactive)
REMARK    1  A    between atoms: C_2  and  C_4
REMARK    2  A    between atoms: N_8  and  C_9
REMARK    3  A    between atoms: C_9  and  C_10
REMARK    4  A    between atoms: C_10  and  C_11
REMARK    5  A    between atoms: C_15  and  O_16
REMARK    6  A    between atoms: O_16  and  C_17
REMARK                            x       y       z     vdW  Elec       q    Type
REMARK                         _______ _______ _______ _____ _____    ______ ____
ROOT
ATOM      1  C   UNL     1      47.868   4.453  16.320  0.00  0.00    +0.000 A 
ATOM      2  C   UNL     1      47.192   4.095  15.161  0.00  0.00    +0.000 A 
ATOM      3  C   UNL     1      47.180   4.985  14.087  0.00  0.00    +0.000 A 
ATOM      4  C   UNL     1      47.827   6.214  14.189  0.00  0.00    +0.000 A 
ATOM      5  N   UNL     1      47.882   7.118  13.159  0.00  0.00    +0.000 N 
ATOM      6  N   UNL     1      48.457   6.580  15.322  0.00  0.00    +0.000 NA
ATOM      7  C   UNL     1      48.462   5.704  16.364  0.00  0.00    +0.000 A 
ATOM      8  H   UNL     1      48.344   7.989  13.390  0.00  0.00    +0.000 HD
ENDROOT
BRANCH   1  10
ATOM      9  N   UNL     1      46.883   2.761  17.752  0.00  0.00    +0.000 N 
ATOM     10  C   UNL     1      47.963   3.558  17.491  0.00  0.00    +0.000 C 
ATOM     11  O   UNL     1      48.977   3.501  18.175  0.00  0.00    +0.000 OA
ATOM     12  H   UNL     1      46.999   2.073  18.486  0.00  0.00    +0.000 HD
ATOM     13  H   UNL     1      46.152   2.600  17.073  0.00  0.00    +0.000 HD
ENDBRANCH   1  10
BRANCH   5  14
ATOM     14  C   UNL     1      47.289   6.884  11.862  0.00  0.00    +0.000 C 
BRANCH  14  15
ATOM     15  C   UNL     1      45.836   7.353  11.792  0.00  0.00    +0.000 C 
BRANCH  15  16
ATOM     16  C   UNL     1      44.923   6.153  11.672  0.00  0.00    +0.000 A 
ATOM     17  C   UNL     1      43.881   5.953  12.585  0.00  0.00    +0.000 A 
ATOM     18  C   UNL     1      42.973   4.908  12.395  0.00  0.00    +0.000 A 
ATOM     19  C   UNL     1      43.094   4.052  11.296  0.00  0.00    +0.000 A 
ATOM     20  C   UNL     1      44.136   4.235  10.391  0.00  0.00    +0.000 A 
ATOM     21  C   UNL     1      45.041   5.284  10.578  0.00  0.00    +0.000 A 
BRANCH  20  22
ATOM     22  O   UNL     1      44.334   3.493   9.255  0.00  0.00    +0.000 OA
BRANCH  22  23
ATOM     23  C   UNL     1      45.680   3.167   8.843  0.00  0.00    +0.000 C 
ATOM     24  C   UNL     1      46.083   3.543   7.399  0.00  0.00    +0.000 C 
ATOM     25  C   UNL     1      46.621   2.120   7.191  0.00  0.00    +0.000 C 
ATOM     26  C   UNL     1      45.868   1.680   8.451  0.00  0.00    +0.000 C 
ENDBRANCH  22  23
ENDBRANCH  20  22
ENDBRANCH  15  16
ENDBRANCH  14  15
ENDBRANCH   5  14
TORSDOF 6
ENDMDL
MODEL 7
REMARK VINA RESULT:    -6.310      3.115      4.540
REMARK INTER + INTRA:          -9.337
REMARK INTER:                  -8.503
REMARK INTRA:                  -0.834
REMARK UNBOUND:                -0.813
REMARK  Name = 
REMARK  6 active torsions:
REMARK  status: ('A' for Active; 'I' for Inactive)
REMARK    1  A    between atoms: C_2  and  C_4
REMARK    2  A    between atoms: N_8  and  C_9
REMARK    3  A    between atoms: C_9  and  C_10
REMARK    4  A    between atoms: C_10  and  C_11
REMARK    5  A    between atoms: C_15  and  O_16
REMARK    6  A    between atoms: O_16  and  C_17
REMARK                            x       y       z     vdW  Elec       q    Type
REMARK                         _______ _______ _______ _____ _____    ______ ____
ROOT
ATOM      1  C   UNL     1      44.649   4.368  11.346  0.00  0.00    +0.000 A 
ATOM      2  C   UNL     1      45.376   5.299  10.616  0.00  0.00    +0.000 A 
ATOM      3  C   UNL     1      45.733   6.502  11.224  0.00  0.00    +0.000 A 
ATOM      4  C   UNL     1      45.351   6.763  12.538  0.00  0.00    +0.000 A 
ATOM      5  N   UNL     1      45.698   7.910  13.205  0.00  0.00    +0.000 N 
ATOM      6  N   UNL     1      44.617   5.878  13.241  0.00  0.00    +0.000 NA
ATOM      7  C   UNL     1      44.275   4.707  12.636  0.00  0.00    +0.000 A 
ATOM      8  H   UNL     1      45.312   7.986  14.137  0.00  0.00    +0.000 HD
ENDROOT
BRANCH   1  10
ATOM      9  N   UNL     1      43.443   2.275  11.565  0.00  0.00    +0.000 N 
ATOM     10  C   UNL     1      44.260   3.055  10.794  0.00  0.00    +0.000 C 
ATOM     11  O   UNL     1      44.619   2.696   9.680  0.00  0.00    +0.000 OA
ATOM     12  H   UNL     1      43.092   1.429  11.133  0.00  0.00    +0.000 HD
ATOM     13  H   UNL     1      42.932   2.642  12.356  0.00  0.00    +0.000 HD
ENDBRANCH   1  10
BRANCH   5  14
ATOM     14  C   UNL     1      46.506   8.956  12.620  0.00  0.00    +0.000 C 
BRANCH  14  15
ATOM     15  C   UNL     1      48.002   8.648  12.697  0.00  0.00    +0.000 C 
BRANCH  15  16
ATOM     16  C   UNL     1      48.379   8.325  14.126  0.00  0.00    +0.000 A 
ATOM     17  C   UNL     1      48.384   9.323  15.107  0.00  0.00    +0.000 A 
ATOM     18  C   UNL     1      48.618   8.992  16.444  0.00  0.00    +0.000 A 
ATOM     19  C   UNL     1      48.849   7.664  16.817  0.00  0.00    +0.000 A 
ATOM     20  C   UNL     1      48.860   6.667  15.846  0.00  0.00    +0.000 A 
ATOM     21  C   UNL     1      48.621   6.998  14.508  0.00  0.00    +0.000 A 
BRANCH  20  22
ATOM     22  O   UNL     1      49.030   5.328  16.090  0.00  0.00    +0.000 OA
BRANCH  22  23
ATOM     23  C   UNL     1      47.872   4.478  16.237  0.00  0.00    +0.000 C 
ATOM     24  C   UNL     1      47.182   4.463  17.620  0.00  0.00    +0.000 C 
ATOM     25  C   UNL     1      47.208   2.928  17.603  0.00  0.00    +0.000 C 
ATOM     26  C   UNL     1      48.220   2.984  16.454  0.00  0.00    +0.000 C 
ENDBRANCH  22  23
ENDBRANCH  20  22
ENDBRANCH  15  16
ENDBRANCH  14  15
ENDBRANCH   5  14
TORSDOF 6
ENDMDL
MODEL 8
REMARK VINA RESULT:    -6.061      3.262      5.407
REMARK INTER + INTRA:          -9.000
REMARK INTER:                  -8.294
REMARK INTRA:                  -0.706
REMARK UNBOUND:                -0.813
REMARK  Name = 
REMARK  6 active torsions:
REMARK  status: ('A' for Active; 'I' for Inactive)
REMARK    1  A    between atoms: C_2  and  C_4
REMARK    2  A    between atoms: N_8  and  C_9
REMARK    3  A    between atoms: C_9  and  C_10
REMARK    4  A    between atoms: C_10  and  C_11
REMARK    5  A    between atoms: C_15  and  O_16
REMARK    6  A    between atoms: O_16  and  C_17
REMARK                            x       y       z     vdW  Elec       q    Type
REMARK                         _______ _______ _______ _____ _____    ______ ____
ROOT
ATOM      1  C   UNL     1      44.849   4.763  11.403  0.00  0.00    +0.000 A 
ATOM      2  C   UNL     1      45.537   5.923  11.069  0.00  0.00    +0.000 A 
ATOM      3  C   UNL     1      46.384   6.499  12.016  0.00  0.00    +0.000 A 
ATOM      4  C   UNL     1      46.521   5.922  13.276  0.00  0.00    +0.000 A 
ATOM      5  N   UNL     1      47.362   6.418  14.238  0.00  0.00    +0.000 N 
ATOM      6  N   UNL     1      45.831   4.816  13.616  0.00  0.00    +0.000 NA
ATOM      7  C   UNL     1      45.007   4.262  12.684  0.00  0.00    +0.000 A 
ATOM      8  H   UNL     1      47.325   5.926  15.122  0.00  0.00    +0.000 HD
ENDROOT
BRANCH   1  10
ATOM      9  N   UNL     1      43.969   4.508   9.156  0.00  0.00    +0.000 N 
ATOM     10  C   UNL     1      43.961   4.066  10.451  0.00  0.00    +0.000 C 
ATOM     11  O   UNL     1      43.277   3.110  10.793  0.00  0.00    +0.000 OA
ATOM     12  H   UNL     1      43.445   3.955   8.490  0.00  0.00    +0.000 HD
ATOM     13  H   UNL     1      44.696   5.110   8.794  0.00  0.00    +0.000 HD
ENDBRANCH   1  10
BRANCH   5  14
ATOM     14  C   UNL     1      48.201   7.579  14.041  0.00  0.00    +0.000 C 
BRANCH  14  15
ATOM     15  C   UNL     1      49.586   7.409  14.667  0.00  0.00    +0.000 C 
BRANCH  15  16
ATOM     16  C   UNL     1      49.440   7.128  16.147  0.00  0.00    +0.000 A 
ATOM     17  C   UNL     1      48.791   8.039  16.987  0.00  0.00    +0.000 A 
ATOM     18  C   UNL     1      48.558   7.716  18.326  0.00  0.00    +0.000 A 
ATOM     19  C   UNL     1      48.968   6.483  18.841  0.00  0.00    +0.000 A 
ATOM     20  C   UNL     1      49.627   5.576  18.015  0.00  0.00    +0.000 A 
ATOM     21  C   UNL     1      49.856   5.897  16.674  0.00  0.00    +0.000 A 
BRANCH  20  22
ATOM     22  O   UNL     1      50.038   4.321  18.389  0.00  0.00    +0.000 OA
BRANCH  22  23
ATOM     23  C   UNL     1      50.777   3.506  17.454  0.00  0.00    +0.000 C 
ATOM     24  C   UNL     1      50.288   2.054  17.249  0.00  0.00    +0.000 C 
ATOM     25  C   UNL     1      51.724   1.553  17.460  0.00  0.00    +0.000 C 
ATOM     26  C   UNL     1      52.089   2.924  18.037  0.00  0.00    +0.000 C 
ENDBRANCH  22  23
ENDBRANCH  20  22
ENDBRANCH  15  16
ENDBRANCH  14  15
ENDBRANCH   5  14
TORSDOF 6
ENDMDL
MODEL 9
REMARK VINA RESULT:    -6.045      3.147      5.064
REMARK INTER + INTRA:          -8.979
REMARK INTER:                  -8.004
REMARK INTRA:                  -0.975
REMARK UNBOUND:                -0.813
REMARK  Name = 
REMARK  6 active torsions:
REMARK  status: ('A' for Active; 'I' for Inactive)
REMARK    1  A    between atoms: C_2  and  C_4
REMARK    2  A    between atoms: N_8  and  C_9
REMARK    3  A    between atoms: C_9  and  C_10
REMARK    4  A    between atoms: C_10  and  C_11
REMARK    5  A    between atoms: C_15  and  O_16
REMARK    6  A    between atoms: O_16  and  C_17
REMARK                            x       y       z     vdW  Elec       q    Type
REMARK                         _______ _______ _______ _____ _____    ______ ____
ROOT
ATOM      1  C   UNL     1      44.984   4.330  11.845  0.00  0.00    +0.000 A 
ATOM      2  C   UNL     1      45.473   4.595  13.118  0.00  0.00    +0.000 A 
ATOM      3  C   UNL     1      46.305   5.699  13.302  0.00  0.00    +0.000 A 
ATOM      4  C   UNL     1      46.645   6.508  12.221  0.00  0.00    +0.000 A 
ATOM      5  N   UNL     1      47.429   7.626  12.341  0.00  0.00    +0.000 N 
ATOM      6  N   UNL     1      46.200   6.237  10.978  0.00  0.00    +0.000 NA
ATOM      7  C   UNL     1      45.389   5.156  10.810  0.00  0.00    +0.000 A 
ATOM      8  H   UNL     1      47.634   8.091  11.465  0.00  0.00    +0.000 HD
ENDROOT
BRANCH   1  10
ATOM      9  N   UNL     1      43.772   2.372  12.609  0.00  0.00    +0.000 N 
ATOM     10  C   UNL     1      44.068   3.205  11.565  0.00  0.00    +0.000 C 
ATOM     11  O   UNL     1      43.565   3.046  10.461  0.00  0.00    +0.000 OA
ATOM     12  H   UNL     1      43.059   1.674  12.438  0.00  0.00    +0.000 HD
ATOM     13  H   UNL     1      43.961   2.620  13.570  0.00  0.00    +0.000 HD
ENDBRANCH   1  10
BRANCH   5  14
ATOM     14  C   UNL     1      47.970   8.088  13.599  0.00  0.00    +0.000 C 
BRANCH  14  15
ATOM     15  C   UNL     1      49.489   7.922  13.676  0.00  0.00    +0.000 C 
BRANCH  15  16
ATOM     16  C   UNL     1      49.858   7.256  14.983  0.00  0.00    +0.000 A 
ATOM     17  C   UNL     1      51.167   7.317  15.472  0.00  0.00    +0.000 A 
ATOM     18  C   UNL     1      51.470   6.801  16.734  0.00  0.00    +0.000 A 
ATOM     19  C   UNL     1      50.472   6.219  17.522  0.00  0.00    +0.000 A 
ATOM     20  C   UNL     1      49.169   6.141  17.038  0.00  0.00    +0.000 A 
ATOM     21  C   UNL     1      48.865   6.662  15.776  0.00  0.00    +0.000 A 
BRANCH  20  22
ATOM     22  O   UNL     1      48.098   5.635  17.730  0.00  0.00    +0.000 OA
BRANCH  22  23
ATOM     23  C   UNL     1      47.857   4.211  17.728  0.00  0.00    +0.000 C 
ATOM     24  C   UNL     1      49.097   3.289  17.755  0.00  0.00    +0.000 C 
ATOM     25  C   UNL     1      48.517   2.495  16.576  0.00  0.00    +0.000 C 
ATOM     26  C   UNL     1      47.528   3.638  16.328  0.00  0.00    +0.000 C 
ENDBRANCH  22  23
ENDBRANCH  20  22
ENDBRANCH  15  16
ENDBRANCH  14  15
ENDBRANCH   5  14
TORSDOF 6
ENDMDL
