MODEL 1
REMARK VINA RESULT:    -8.412      0.000      0.000
REMARK INTER + INTRA:         -11.391
REMARK INTER:                 -10.871
REMARK INTRA:                  -0.520
REMARK UNBOUND:                -0.520
REMARK  Name = 
REMARK  5 active torsions:
REMARK  status: ('A' for Active; 'I' for Inactive)
REMARK    1  A    between atoms: C_2  and  C_4
REMARK    2  A    between atoms: C_7  and  O_8
REMARK    3  A    between atoms: O_8  and  C_9
REMARK    4  A    between atoms: C_9  and  C_10
REMARK    5  A    between atoms: C_15  and  C_16
REMARK                            x       y       z     vdW  Elec       q    Type
REMARK                         _______ _______ _______ _____ _____    ______ ____
ROOT
ATOM      1  C   UNL     1      44.796   4.620  12.024  0.00  0.00    +0.000 A 
ATOM      2  C   UNL     1      45.496   3.691  12.794  0.00  0.00    +0.000 A 
ATOM      3  C   UNL     1      46.623   4.093  13.490  0.00  0.00    +0.000 A 
ATOM      4  F   UNL     1      47.282   3.206  14.247  0.00  0.00    +0.000 F 
ATOM      5  C   UNL     1      47.094   5.400  13.406  0.00  0.00    +0.000 A 
ATOM      6  C   UNL     1      46.459   6.340  12.583  0.00  0.00    +0.000 A 
ATOM      7  C   UNL     1      45.277   5.937  11.932  0.00  0.00    +0.000 A 
ENDROOT
BRANCH   6   8
ATOM      8  C   UNL     1      46.988   7.755  12.352  0.00  0.00    +0.000 C 
ATOM      9  C   UNL     1      48.356   7.751  11.634  0.00  0.00    +0.000 C 
ATOM     10  C   UNL     1      49.490   7.345  12.575  0.00  0.00    +0.000 C 
ATOM     11  N   UNL     1      49.576   8.234  13.735  0.00  0.00    +0.000 NA
ATOM     12  C   UNL     1      48.319   8.269  14.481  0.00  0.00    +0.000 C 
ATOM     13  C   UNL     1      47.121   8.648  13.603  0.00  0.00    +0.000 C 
ATOM     14  H   UNL     1      49.807   9.176  13.418  0.00  0.00    +0.000 HD
ENDBRANCH   6   8
BRANCH   1  15
ATOM     15  C   UNL     1      43.569   4.203  11.259  0.00  0.00    +0.000 C 
BRANCH  15  16
ATOM     16  O   UNL     1      43.748   4.562   9.890  0.00  0.00    +0.000 OA
BRANCH  16  20
ATOM     17  C   UNL     1      46.492   2.419   7.596  0.00  0.00    +0.000 A 
ATOM     18  C   UNL     1      45.676   1.719   8.490  0.00  0.00    +0.000 A 
ATOM     19  C   UNL     1      44.744   2.404   9.273  0.00  0.00    +0.000 A 
ATOM     20  C   UNL     1      44.622   3.791   9.174  0.00  0.00    +0.000 A 
ATOM     21  C   UNL     1      45.449   4.490   8.290  0.00  0.00    +0.000 A 
ATOM     22  C   UNL     1      46.386   3.810   7.507  0.00  0.00    +0.000 A 
BRANCH  17  24
ATOM     23  N   UNL     1      48.624   2.397   6.424  0.00  0.00    +0.000 N 
ATOM     24  C   UNL     1      47.490   1.711   6.757  0.00  0.00    +0.000 C 
ATOM     25  O   UNL     1      47.325   0.549   6.402  0.00  0.00    +0.000 OA
ATOM     26  H   UNL     1      49.339   1.874   5.935  0.00  0.00    +0.000 HD
ATOM     27  H   UNL     1      48.906   3.241   6.898  0.00  0.00    +0.000 HD
ENDBRANCH  17  24
ENDBRANCH  16  20
ENDBRANCH  15  16
ENDBRANCH   1  15
TORSDOF 5
ENDMDL
MODEL 2
REMARK VINA RESULT:    -7.899      1.702      2.309
REMARK INTER + INTRA:         -10.728
REMARK INTER:                 -10.287
REMARK INTRA:                  -0.441
REMARK UNBOUND:                -0.520
REMARK  Name = 
REMARK  5 active torsions:
REMARK  status: ('A' for Active; 'I' for Inactive)
REMARK    1  A    between atoms: C_2  and  C_4
REMARK    2  A    between atoms: C_7  and  O_8
REMARK    3  A    between atoms: O_8  and  C_9
REMARK    4  A    between atoms: C_9  and  C_10
REMARK    5  A    between atoms: C_15  and  C_16
REMARK                            x       y       z     vdW  Elec       q    Type
REMARK                         _______ _______ _______ _____ _____    ______ ____
ROOT
ATOM      1  C   UNL     1      44.823   5.316  11.619  0.00  0.00    +0.000 A 
ATOM      2  C   UNL     1      44.152   6.521  11.408  0.00  0.00    +0.000 A 
ATOM      3  C   UNL     1      44.829   7.717  11.576  0.00  0.00    +0.000 A 
ATOM      4  F   UNL     1      44.191   8.873  11.352  0.00  0.00    +0.000 F 
ATOM      5  C   UNL     1      46.157   7.742  11.991  0.00  0.00    +0.000 A 
ATOM      6  C   UNL     1      46.839   6.553  12.285  0.00  0.00    +0.000 A 
ATOM      7  C   UNL     1      46.162   5.342  12.046  0.00  0.00    +0.000 A 
ENDROOT
BRANCH   6   8
ATOM      8  C   UNL     1      48.256   6.512  12.856  0.00  0.00    +0.000 C 
ATOM      9  C   UNL     1      48.295   6.931  14.342  0.00  0.00    +0.000 C 
ATOM     10  C   UNL     1      48.136   8.442  14.509  0.00  0.00    +0.000 C 
ATOM     11  N   UNL     1      49.178   9.179  13.792  0.00  0.00    +0.000 NA
ATOM     12  C   UNL     1      49.185   8.849  12.367  0.00  0.00    +0.000 C 
ATOM     13  C   UNL     1      49.319   7.344  12.110  0.00  0.00    +0.000 C 
ATOM     14  H   UNL     1      50.087   8.952  14.196  0.00  0.00    +0.000 HD
ENDBRANCH   6   8
BRANCH   1  15
ATOM     15  C   UNL     1      44.106   4.005  11.442  0.00  0.00    +0.000 C 
BRANCH  15  16
ATOM     16  O   UNL     1      43.728   3.880  10.072  0.00  0.00    +0.000 OA
BRANCH  16  20
ATOM     17  C   UNL     1      46.583   2.337   7.453  0.00  0.00    +0.000 A 
ATOM     18  C   UNL     1      45.923   1.458   8.318  0.00  0.00    +0.000 A 
ATOM     19  C   UNL     1      44.959   1.939   9.206  0.00  0.00    +0.000 A 
ATOM     20  C   UNL     1      44.651   3.300   9.245  0.00  0.00    +0.000 A 
ATOM     21  C   UNL     1      45.322   4.179   8.390  0.00  0.00    +0.000 A 
ATOM     22  C   UNL     1      46.290   3.703   7.501  0.00  0.00    +0.000 A 
BRANCH  17  24
ATOM     23  N   UNL     1      48.726   2.620   6.337  0.00  0.00    +0.000 N 
ATOM     24  C   UNL     1      47.612   1.847   6.502  0.00  0.00    +0.000 C 
ATOM     25  O   UNL     1      47.487   0.779   5.913  0.00  0.00    +0.000 OA
ATOM     26  H   UNL     1      49.462   2.229   5.762  0.00  0.00    +0.000 HD
ATOM     27  H   UNL     1      48.977   3.355   6.979  0.00  0.00    +0.000 HD
ENDBRANCH  17  24
ENDBRANCH  16  20
ENDBRANCH  15  16
ENDBRANCH   1  15
TORSDOF 5
ENDMDL
MODEL 3
REMARK VINA RESULT:    -7.638      1.859      2.617
REMARK INTER + INTRA:         -10.390
REMARK INTER:                  -9.560
REMARK INTRA:                  -0.830
REMARK UNBOUND:                -0.520
REMARK  Name = 
REMARK  5 active torsions:
REMARK  status: ('A' for Active; 'I' for Inactive)
REMARK    1  A    between atoms: C_2  and  C_4
REMARK    2  A    between atoms: C_7  and  O_8
REMARK    3  A    between atoms: O_8  and  C_9
REMARK    4  A    between atoms: C_9  and  C_10
REMARK    5  A    between atoms: C_15  and  C_16
REMARK                            x       y       z     vdW  Elec       q    Type
REMARK                         _______ _______ _______ _____ _____    ______ ____
ROOT
ATOM      1  C   UNL     1      45.322   6.005  11.635  0.00  0.00    +0.000 A 
ATOM      2  C   UNL     1      44.396   7.042  11.521  0.00  0.00    +0.000 A 
ATOM      3  C   UNL     1      44.832   8.355  11.578  0.00  0.00    +0.000 A 
ATOM      4  F   UNL     1      43.946   9.351  11.446  0.00  0.00    +0.000 F 
ATOM      5  C   UNL     1      46.174   8.660  11.788  0.00  0.00    +0.000 A 
ATOM      6  C   UNL     1      47.118   7.644  11.982  0.00  0.00    +0.000 A 
ATOM      7  C   UNL     1      46.675   6.314  11.855  0.00  0.00    +0.000 A 
ENDROOT
BRANCH   6   8
ATOM      8  C   UNL     1      48.583   7.909  12.332  0.00  0.00    +0.000 C 
ATOM      9  C   UNL     1      49.135   6.870  13.333  0.00  0.00    +0.000 C 
ATOM     10  C   UNL     1      48.620   7.118  14.751  0.00  0.00    +0.000 C 
ATOM     11  N   UNL     1      48.972   8.457  15.228  0.00  0.00    +0.000 NA
ATOM     12  C   UNL     1      48.459   9.497  14.339  0.00  0.00    +0.000 C 
ATOM     13  C   UNL     1      48.912   9.310  12.887  0.00  0.00    +0.000 C 
ATOM     14  H   UNL     1      49.988   8.534  15.288  0.00  0.00    +0.000 HD
ENDBRANCH   6   8
BRANCH   1  15
ATOM     15  C   UNL     1      44.868   4.571  11.576  0.00  0.00    +0.000 C 
BRANCH  15  16
ATOM     16  O   UNL     1      44.264   4.342  10.305  0.00  0.00    +0.000 OA
BRANCH  16  20
ATOM     17  C   UNL     1      46.676   2.467   7.466  0.00  0.00    +0.000 A 
ATOM     18  C   UNL     1      46.588   3.863   7.453  0.00  0.00    +0.000 A 
ATOM     19  C   UNL     1      45.792   4.524   8.391  0.00  0.00    +0.000 A 
ATOM     20  C   UNL     1      45.073   3.801   9.343  0.00  0.00    +0.000 A 
ATOM     21  C   UNL     1      45.152   2.405   9.345  0.00  0.00    +0.000 A 
ATOM     22  C   UNL     1      45.945   1.737   8.407  0.00  0.00    +0.000 A 
BRANCH  17  24
ATOM     23  N   UNL     1      48.680   2.344   6.092  0.00  0.00    +0.000 N 
ATOM     24  C   UNL     1      47.515   1.744   6.478  0.00  0.00    +0.000 C 
ATOM     25  O   UNL     1      47.197   0.641   6.049  0.00  0.00    +0.000 OA
ATOM     26  H   UNL     1      49.289   1.800   5.495  0.00  0.00    +0.000 HD
ATOM     27  H   UNL     1      49.091   3.110   6.602  0.00  0.00    +0.000 HD
ENDBRANCH  17  24
ENDBRANCH  16  20
ENDBRANCH  15  16
ENDBRANCH   1  15
TORSDOF 5
ENDMDL
MODEL 4
REMARK VINA RESULT:    -7.137      4.878      8.695
REMARK INTER + INTRA:          -9.743
REMARK INTER:                  -9.575
REMARK INTRA:                  -0.168
REMARK UNBOUND:                -0.520
REMARK  Name = 
REMARK  5 active torsions:
REMARK  status: ('A' for Active; 'I' for Inactive)
REMARK    1  A    between atoms: C_2  and  C_4
REMARK    2  A    between atoms: C_7  and  O_8
REMARK    3  A    between atoms: O_8  and  C_9
REMARK    4  A    between atoms: C_9  and  C_10
REMARK    5  A    between atoms: C_15  and  C_16
REMARK                            x       y       z     vdW  Elec       q    Type
REMARK                         _______ _______ _______ _____ _____    ______ ____
ROOT
ATOM      1  C   UNL     1      46.678   5.215  13.609  0.00  0.00    +0.000 A 
ATOM      2  C   UNL     1      47.620   6.084  13.059  0.00  0.00    +0.000 A 
ATOM      3  C   UNL     1      47.354   6.701  11.848  0.00  0.00    +0.000 A 
ATOM      4  F   UNL     1      48.248   7.553  11.331  0.00  0.00    +0.000 F 
ATOM      5  C   UNL     1      46.179   6.439  11.148  0.00  0.00    +0.000 A 
ATOM      6  C   UNL     1      45.246   5.514  11.635  0.00  0.00    +0.000 A 
ATOM      7  C   UNL     1      45.496   4.944  12.898  0.00  0.00    +0.000 A 
ENDROOT
BRANCH   6   8
ATOM      8  C   UNL     1      43.995   5.092  10.864  0.00  0.00    +0.000 C 
ATOM      9  C   UNL     1      42.994   4.329  11.759  0.00  0.00    +0.000 C 
ATOM     10  C   UNL     1      43.458   2.899  12.038  0.00  0.00    +0.000 C 
ATOM     11  N   UNL     1      43.648   2.140  10.801  0.00  0.00    +0.000 NA
ATOM     12  C   UNL     1      44.606   2.794   9.911  0.00  0.00    +0.000 C 
ATOM     13  C   UNL     1      44.226   4.245   9.596  0.00  0.00    +0.000 C 
ATOM     14  H   UNL     1      42.751   2.049  10.323  0.00  0.00    +0.000 HD
ENDBRANCH   6   8
BRANCH   1  15
ATOM     15  C   UNL     1      46.948   4.534  14.923  0.00  0.00    +0.000 C 
BRANCH  15  16
ATOM     16  O   UNL     1      48.186   5.022  15.437  0.00  0.00    +0.000 OA
BRANCH  16  20
ATOM     17  C   UNL     1      48.812   4.702  19.547  0.00  0.00    +0.000 A 
ATOM     18  C   UNL     1      48.809   3.535  18.777  0.00  0.00    +0.000 A 
ATOM     19  C   UNL     1      48.605   3.604  17.398  0.00  0.00    +0.000 A 
ATOM     20  C   UNL     1      48.396   4.836  16.776  0.00  0.00    +0.000 A 
ATOM     21  C   UNL     1      48.385   6.000  17.550  0.00  0.00    +0.000 A 
ATOM     22  C   UNL     1      48.586   5.936  18.932  0.00  0.00    +0.000 A 
BRANCH  17  24
ATOM     23  N   UNL     1      50.319   4.612  21.456  0.00  0.00    +0.000 N 
ATOM     24  C   UNL     1      49.026   4.650  21.015  0.00  0.00    +0.000 C 
ATOM     25  O   UNL     1      48.088   4.674  21.803  0.00  0.00    +0.000 OA
ATOM     26  H   UNL     1      50.454   4.676  22.457  0.00  0.00    +0.000 HD
ATOM     27  H   UNL     1      51.101   4.845  20.864  0.00  0.00    +0.000 HD
ENDBRANCH  17  24
ENDBRANCH  16  20
ENDBRANCH  15  16
ENDBRANCH   1  15
TORSDOF 5
ENDMDL
MODEL 5
REMARK VINA RESULT:    -7.094      5.056      7.901
REMARK INTER + INTRA:          -9.687
REMARK INTER:                  -9.289
REMARK INTRA:                  -0.399
REMARK UNBOUND:                -0.520
REMARK  Name = 
REMARK  5 active torsions:
REMARK  status: ('A' for Active; 'I' for Inactive)
REMARK    1  A    between atoms: C_2  and  C_4
REMARK    2  A    between atoms: C_7  and  O_8
REMARK    3  A    between atoms: O_8  and  C_9
REMARK    4  A    between atoms: C_9  and  C_10
REMARK    5  A    between atoms: C_15  and  C_16
REMARK                            x       y       z     vdW  Elec       q    Type
REMARK                         _______ _______ _______ _____ _____    ______ ____
ROOT
ATOM      1  C   UNL     1      46.787   5.004  14.303  0.00  0.00    +0.000 A 
ATOM      2  C   UNL     1      47.851   5.750  13.795  0.00  0.00    +0.000 A 
ATOM      3  C   UNL     1      47.702   6.418  12.591  0.00  0.00    +0.000 A 
ATOM      4  F   UNL     1      48.715   7.153  12.115  0.00  0.00    +0.000 F 
ATOM      5  C   UNL     1      46.522   6.328  11.858  0.00  0.00    +0.000 A 
ATOM      6  C   UNL     1      45.462   5.527  12.301  0.00  0.00    +0.000 A 
ATOM      7  C   UNL     1      45.599   4.906  13.557  0.00  0.00    +0.000 A 
ENDROOT
BRANCH   6   8
ATOM      8  C   UNL     1      44.187   5.289  11.491  0.00  0.00    +0.000 C 
ATOM      9  C   UNL     1      43.168   4.417  12.257  0.00  0.00    +0.000 C 
ATOM     10  C   UNL     1      43.582   2.946  12.277  0.00  0.00    +0.000 C 
ATOM     11  N   UNL     1      43.729   2.407  10.923  0.00  0.00    +0.000 NA
ATOM     12  C   UNL     1      44.701   3.172  10.143  0.00  0.00    +0.000 C 
ATOM     13  C   UNL     1      44.372   4.667  10.092  0.00  0.00    +0.000 C 
ATOM     14  H   UNL     1      42.824   2.431  10.453  0.00  0.00    +0.000 HD
ENDBRANCH   6   8
BRANCH   1  15
ATOM     15  C   UNL     1      46.928   4.270  15.609  0.00  0.00    +0.000 C 
BRANCH  15  16
ATOM     16  O   UNL     1      47.904   4.944  16.401  0.00  0.00    +0.000 OA
BRANCH  16  20
ATOM     17  C   UNL     1      51.077   2.473  17.504  0.00  0.00    +0.000 A 
ATOM     18  C   UNL     1      51.227   3.856  17.640  0.00  0.00    +0.000 A 
ATOM     19  C   UNL     1      50.184   4.714  17.283  0.00  0.00    +0.000 A 
ATOM     20  C   UNL     1      48.988   4.200  16.782  0.00  0.00    +0.000 A 
ATOM     21  C   UNL     1      48.845   2.818  16.633  0.00  0.00    +0.000 A 
ATOM     22  C   UNL     1      49.886   1.954  16.986  0.00  0.00    +0.000 A 
BRANCH  17  24
ATOM     23  N   UNL     1      51.834   0.238  18.098  0.00  0.00    +0.000 N 
ATOM     24  C   UNL     1      52.173   1.543  17.876  0.00  0.00    +0.000 C 
ATOM     25  O   UNL     1      53.337   1.918  17.951  0.00  0.00    +0.000 OA
ATOM     26  H   UNL     1      52.601  -0.404  18.255  0.00  0.00    +0.000 HD
ATOM     27  H   UNL     1      50.953  -0.151  17.803  0.00  0.00    +0.000 HD
ENDBRANCH  17  24
ENDBRANCH  16  20
ENDBRANCH  15  16
ENDBRANCH   1  15
TORSDOF 5
ENDMDL
MODEL 6
REMARK VINA RESULT:    -6.839      4.189      6.204
REMARK INTER + INTRA:          -9.358
REMARK INTER:                  -8.430
REMARK INTRA:                  -0.927
REMARK UNBOUND:                -0.520
REMARK  Name = 
REMARK  5 active torsions:
REMARK  status: ('A' for Active; 'I' for Inactive)
REMARK    1  A    between atoms: C_2  and  C_4
REMARK    2  A    between atoms: C_7  and  O_8
REMARK    3  A    between atoms: O_8  and  C_9
REMARK    4  A    between atoms: C_9  and  C_10
REMARK    5  A    between atoms: C_15  and  C_16
REMARK                            x       y       z     vdW  Elec       q    Type
REMARK                         _______ _______ _______ _____ _____    ______ ____
ROOT
ATOM      1  C   UNL     1      48.828   7.834  14.598  0.00  0.00    +0.000 A 
ATOM      2  C   UNL     1      48.457   9.094  15.070  0.00  0.00    +0.000 A 
ATOM      3  C   UNL     1      48.420   9.327  16.434  0.00  0.00    +0.000 A 
ATOM      4  F   UNL     1      48.085  10.543  16.886  0.00  0.00    +0.000 F 
ATOM      5  C   UNL     1      48.708   8.316  17.346  0.00  0.00    +0.000 A 
ATOM      6  C   UNL     1      49.011   7.020  16.909  0.00  0.00    +0.000 A 
ATOM      7  C   UNL     1      49.111   6.812  15.520  0.00  0.00    +0.000 A 
ENDROOT
BRANCH   6   8
ATOM      8  C   UNL     1      49.221   5.837  17.854  0.00  0.00    +0.000 C 
ATOM      9  C   UNL     1      48.986   4.483  17.148  0.00  0.00    +0.000 C 
ATOM     10  C   UNL     1      47.499   4.208  16.931  0.00  0.00    +0.000 C 
ATOM     11  N   UNL     1      46.758   4.208  18.194  0.00  0.00    +0.000 NA
ATOM     12  C   UNL     1      46.915   5.474  18.908  0.00  0.00    +0.000 C 
ATOM     13  C   UNL     1      48.384   5.839  19.149  0.00  0.00    +0.000 C 
ATOM     14  H   UNL     1      47.095   3.444  18.780  0.00  0.00    +0.000 HD
ENDBRANCH   6   8
BRANCH   1  15
ATOM     15  C   UNL     1      48.874   7.560  13.119  0.00  0.00    +0.000 C 
BRANCH  15  16
ATOM     16  O   UNL     1      48.508   6.199  12.901  0.00  0.00    +0.000 OA
BRANCH  16  20
ATOM     17  C   UNL     1      44.531   5.377  11.955  0.00  0.00    +0.000 A 
ATOM     18  C   UNL     1      45.262   6.215  11.107  0.00  0.00    +0.000 A 
ATOM     19  C   UNL     1      46.597   6.510  11.391  0.00  0.00    +0.000 A 
ATOM     20  C   UNL     1      47.211   5.977  12.525  0.00  0.00    +0.000 A 
ATOM     21  C   UNL     1      46.475   5.151  13.380  0.00  0.00    +0.000 A 
ATOM     22  C   UNL     1      45.137   4.855  13.101  0.00  0.00    +0.000 A 
BRANCH  17  24
ATOM     23  N   UNL     1      42.211   6.078  11.739  0.00  0.00    +0.000 N 
ATOM     24  C   UNL     1      43.111   5.052  11.672  0.00  0.00    +0.000 C 
ATOM     25  O   UNL     1      42.760   3.920  11.358  0.00  0.00    +0.000 OA
ATOM     26  H   UNL     1      41.265   5.865  11.450  0.00  0.00    +0.000 HD
ATOM     27  H   UNL     1      42.492   7.046  11.741  0.00  0.00    +0.000 HD
ENDBRANCH  17  24
ENDBRANCH  16  20
ENDBRANCH  15  16
ENDBRANCH   1  15
TORSDOF 5
ENDMDL
MODEL 7
REMARK VINA RESULT:    -6.599      4.518      8.187
REMARK INTER + INTRA:          -9.048
REMARK INTER:                  -8.597
REMARK INTRA:                  -0.451
REMARK UNBOUND:                -0.520
REMARK  Name = 
REMARK  5 active torsions:
REMARK  status: ('A' for Active; 'I' for Inactive)
REMARK    1  A    between atoms: C_2  and  C_4
REMARK    2  A    between atoms: C_7  and  O_8
REMARK    3  A    between atoms: O_8  and  C_9
REMARK    4  A    between atoms: C_9  and  C_10
REMARK    5  A    between atoms: C_15  and  C_16
REMARK                            x       y       z     vdW  Elec       q    Type
REMARK                         _______ _______ _______ _____ _____    ______ ____
ROOT
ATOM      1  C   UNL     1      46.980   6.995  12.874  0.00  0.00    +0.000 A 
ATOM      2  C   UNL     1      46.673   8.353  12.772  0.00  0.00    +0.000 A 
ATOM      3  C   UNL     1      45.490   8.740  12.165  0.00  0.00    +0.000 A 
ATOM      4  F   UNL     1      45.185  10.042  12.086  0.00  0.00    +0.000 F 
ATOM      5  C   UNL     1      44.619   7.801  11.619  0.00  0.00    +0.000 A 
ATOM      6  C   UNL     1      44.932   6.436  11.638  0.00  0.00    +0.000 A 
ATOM      7  C   UNL     1      46.104   6.049  12.316  0.00  0.00    +0.000 A 
ENDROOT
BRANCH   6   8
ATOM      8  C   UNL     1      44.081   5.365  10.957  0.00  0.00    +0.000 C 
ATOM      9  C   UNL     1      42.837   4.994  11.794  0.00  0.00    +0.000 C 
ATOM     10  C   UNL     1      43.201   4.121  12.994  0.00  0.00    +0.000 C 
ATOM     11  N   UNL     1      43.868   2.884  12.582  0.00  0.00    +0.000 NA
ATOM     12  C   UNL     1      45.074   3.159  11.801  0.00  0.00    +0.000 C 
ATOM     13  C   UNL     1      44.801   4.052  10.586  0.00  0.00    +0.000 C 
ATOM     14  H   UNL     1      43.224   2.326  12.022  0.00  0.00    +0.000 HD
ENDBRANCH   6   8
BRANCH   1  15
ATOM     15  C   UNL     1      48.261   6.553  13.530  0.00  0.00    +0.000 C 
BRANCH  15  16
ATOM     16  O   UNL     1      48.022   5.314  14.194  0.00  0.00    +0.000 OA
BRANCH  16  20
ATOM     17  C   UNL     1      48.144   5.185  18.361  0.00  0.00    +0.000 A 
ATOM     18  C   UNL     1      48.873   6.179  17.700  0.00  0.00    +0.000 A 
ATOM     19  C   UNL     1      48.853   6.254  16.305  0.00  0.00    +0.000 A 
ATOM     20  C   UNL     1      48.113   5.336  15.559  0.00  0.00    +0.000 A 
ATOM     21  C   UNL     1      47.397   4.334  16.221  0.00  0.00    +0.000 A 
ATOM     22  C   UNL     1      47.415   4.253  17.617  0.00  0.00    +0.000 A 
BRANCH  17  24
ATOM     23  N   UNL     1      48.581   3.908  20.385  0.00  0.00    +0.000 N 
ATOM     24  C   UNL     1      48.153   5.086  19.841  0.00  0.00    +0.000 C 
ATOM     25  O   UNL     1      47.822   6.029  20.551  0.00  0.00    +0.000 OA
ATOM     26  H   UNL     1      48.674   3.886  21.392  0.00  0.00    +0.000 HD
ATOM     27  H   UNL     1      49.091   3.219  19.854  0.00  0.00    +0.000 HD
ENDBRANCH  17  24
ENDBRANCH  16  20
ENDBRANCH  15  16
ENDBRANCH   1  15
TORSDOF 5
ENDMDL
MODEL 8
REMARK VINA RESULT:    -6.574      4.436      6.438
REMARK INTER + INTRA:          -9.015
REMARK INTER:                  -8.560
REMARK INTRA:                  -0.455
REMARK UNBOUND:                -0.520
REMARK  Name = 
REMARK  5 active torsions:
REMARK  status: ('A' for Active; 'I' for Inactive)
REMARK    1  A    between atoms: C_2  and  C_4
REMARK    2  A    between atoms: C_7  and  O_8
REMARK    3  A    between atoms: O_8  and  C_9
REMARK    4  A    between atoms: C_9  and  C_10
REMARK    5  A    between atoms: C_15  and  C_16
REMARK                            x       y       z     vdW  Elec       q    Type
REMARK                         _______ _______ _______ _____ _____    ______ ____
ROOT
ATOM      1  C   UNL     1      48.753   6.970  15.524  0.00  0.00    +0.000 A 
ATOM      2  C   UNL     1      48.764   8.138  16.286  0.00  0.00    +0.000 A 
ATOM      3  C   UNL     1      48.661   8.055  17.664  0.00  0.00    +0.000 A 
ATOM      4  F   UNL     1      48.694   9.175  18.397  0.00  0.00    +0.000 F 
ATOM      5  C   UNL     1      48.507   6.827  18.302  0.00  0.00    +0.000 A 
ATOM      6  C   UNL     1      48.417   5.641  17.562  0.00  0.00    +0.000 A 
ATOM      7  C   UNL     1      48.590   5.731  16.168  0.00  0.00    +0.000 A 
ENDROOT
BRANCH   6   8
ATOM      8  C   UNL     1      48.131   4.275  18.187  0.00  0.00    +0.000 C 
ATOM      9  C   UNL     1      49.422   3.574  18.662  0.00  0.00    +0.000 C 
ATOM     10  C   UNL     1      50.225   3.010  17.489  0.00  0.00    +0.000 C 
ATOM     11  N   UNL     1      49.439   2.055  16.705  0.00  0.00    +0.000 NA
ATOM     12  C   UNL     1      48.207   2.660  16.200  0.00  0.00    +0.000 C 
ATOM     13  C   UNL     1      47.350   3.272  17.313  0.00  0.00    +0.000 C 
ATOM     14  H   UNL     1      49.206   1.252  17.289  0.00  0.00    +0.000 HD
ENDBRANCH   6   8
BRANCH   1  15
ATOM     15  C   UNL     1      48.864   7.039  14.024  0.00  0.00    +0.000 C 
BRANCH  15  16
ATOM     16  O   UNL     1      48.382   5.812  13.480  0.00  0.00    +0.000 OA
BRANCH  16  20
ATOM     17  C   UNL     1      44.483   5.982  12.011  0.00  0.00    +0.000 A 
ATOM     18  C   UNL     1      44.759   5.126  13.082  0.00  0.00    +0.000 A 
ATOM     19  C   UNL     1      46.053   5.045  13.601  0.00  0.00    +0.000 A 
ATOM     20  C   UNL     1      47.082   5.812  13.054  0.00  0.00    +0.000 A 
ATOM     21  C   UNL     1      46.808   6.656  11.974  0.00  0.00    +0.000 A 
ATOM     22  C   UNL     1      45.515   6.739  11.448  0.00  0.00    +0.000 A 
BRANCH  17  24
ATOM     23  N   UNL     1      42.644   7.335  11.173  0.00  0.00    +0.000 N 
ATOM     24  C   UNL     1      43.116   6.082  11.443  0.00  0.00    +0.000 C 
ATOM     25  O   UNL     1      42.448   5.085  11.194  0.00  0.00    +0.000 OA
ATOM     26  H   UNL     1      41.752   7.386  10.697  0.00  0.00    +0.000 HD
ATOM     27  H   UNL     1      43.245   8.143  11.124  0.00  0.00    +0.000 HD
ENDBRANCH  17  24
ENDBRANCH  16  20
ENDBRANCH  15  16
ENDBRANCH   1  15
TORSDOF 5
ENDMDL
MODEL 9
REMARK VINA RESULT:    -6.572      5.617      8.120
REMARK INTER + INTRA:          -9.013
REMARK INTER:                  -8.393
REMARK INTRA:                  -0.620
REMARK UNBOUND:                -0.520
REMARK  Name = 
REMARK  5 active torsions:
REMARK  status: ('A' for Active; 'I' for Inactive)
REMARK    1  A    between atoms: C_2  and  C_4
REMARK    2  A    between atoms: C_7  and  O_8
REMARK    3  A    between atoms: O_8  and  C_9
REMARK    4  A    between atoms: C_9  and  C_10
REMARK    5  A    between atoms: C_15  and  C_16
REMARK                            x       y       z     vdW  Elec       q    Type
REMARK                         _______ _______ _______ _____ _____    ______ ____
ROOT
ATOM      1  C   UNL     1      47.321   4.712  15.177  0.00  0.00    +0.000 A 
ATOM      2  C   UNL     1      48.092   5.854  14.958  0.00  0.00    +0.000 A 
ATOM      3  C   UNL     1      47.887   6.607  13.815  0.00  0.00    +0.000 A 
ATOM      4  F   UNL     1      48.612   7.716  13.616  0.00  0.00    +0.000 F 
ATOM      5  C   UNL     1      46.952   6.224  12.858  0.00  0.00    +0.000 A 
ATOM      6  C   UNL     1      46.213   5.043  13.009  0.00  0.00    +0.000 A 
ATOM      7  C   UNL     1      46.383   4.321  14.206  0.00  0.00    +0.000 A 
ENDROOT
BRANCH   6   8
ATOM      8  C   UNL     1      45.257   4.502  11.945  0.00  0.00    +0.000 C 
ATOM      9  C   UNL     1      44.875   5.581  10.908  0.00  0.00    +0.000 C 
ATOM     10  C   UNL     1      43.875   6.587  11.478  0.00  0.00    +0.000 C 
ATOM     11  N   UNL     1      42.649   5.930  11.938  0.00  0.00    +0.000 NA
ATOM     12  C   UNL     1      42.933   4.908  12.944  0.00  0.00    +0.000 C 
ATOM     13  C   UNL     1      43.949   3.868  12.460  0.00  0.00    +0.000 C 
ATOM     14  H   UNL     1      42.181   5.498  11.140  0.00  0.00    +0.000 HD
ENDBRANCH   6   8
BRANCH   1  15
ATOM     15  C   UNL     1      47.529   3.879  16.413  0.00  0.00    +0.000 C 
BRANCH  15  16
ATOM     16  O   UNL     1      48.585   4.460  17.175  0.00  0.00    +0.000 OA
BRANCH  16  20
ATOM     17  C   UNL     1      52.125   2.327  17.723  0.00  0.00    +0.000 A 
ATOM     18  C   UNL     1      50.979   1.631  17.327  0.00  0.00    +0.000 A 
ATOM     19  C   UNL     1      49.776   2.314  17.131  0.00  0.00    +0.000 A 
ATOM     20  C   UNL     1      49.706   3.692  17.335  0.00  0.00    +0.000 A 
ATOM     21  C   UNL     1      50.849   4.384  17.745  0.00  0.00    +0.000 A 
ATOM     22  C   UNL     1      52.055   3.705  17.945  0.00  0.00    +0.000 A 
BRANCH  17  24
ATOM     23  N   UNL     1      53.352   0.357  18.454  0.00  0.00    +0.000 N 
ATOM     24  C   UNL     1      53.413   1.621  17.938  0.00  0.00    +0.000 C 
ATOM     25  O   UNL     1      54.485   2.132  17.636  0.00  0.00    +0.000 OA
ATOM     26  H   UNL     1      54.227  -0.150  18.505  0.00  0.00    +0.000 HD
ATOM     27  H   UNL     1      52.500  -0.181  18.474  0.00  0.00    +0.000 HD
ENDBRANCH  17  24
ENDBRANCH  16  20
ENDBRANCH  15  16
ENDBRANCH   1  15
TORSDOF 5
ENDMDL
