MODEL 1
REMARK VINA RESULT:    -7.031      0.000      0.000
REMARK INTER + INTRA:         -10.014
REMARK INTER:                  -9.292
REMARK INTRA:                  -0.722
REMARK UNBOUND:                -0.722
REMARK  Name = 
REMARK  6 active torsions:
REMARK  status: ('A' for Active; 'I' for Inactive)
REMARK    1  A    between atoms: N_1  and  C_2
REMARK    2  A    between atoms: C_2  and  C_3
REMARK    3  A    between atoms: C_7  and  O_8
REMARK    4  A    between atoms: O_8  and  C_9
REMARK    5  A    between atoms: C_9  and  C_10
REMARK    6  A    between atoms: C_10  and  C_11
REMARK                            x       y       z     vdW  Elec       q    Type
REMARK                         _______ _______ _______ _____ _____    ______ ____
ROOT
ATOM      1  C   UNL     1      46.606   5.278  13.696  0.00  0.00    +0.000 A 
ATOM      2  C   UNL     1      47.412   6.148  12.966  0.00  0.00    +0.000 A 
ATOM      3  C   UNL     1      46.875   6.774  11.844  0.00  0.00    +0.000 A 
ATOM      4  C   UNL     1      45.555   6.514  11.478  0.00  0.00    +0.000 A 
ATOM      5  C   UNL     1      44.822   5.638  12.262  0.00  0.00    +0.000 A 
ATOM      6  N   UNL     1      45.322   5.026  13.354  0.00  0.00    +0.000 NA
ENDROOT
BRANCH   1   7
ATOM      7  C   UNL     1      47.129   4.554  14.914  0.00  0.00    +0.000 C 
BRANCH   7   8
ATOM      8  N   UNL     1      47.483   3.157  14.647  0.00  0.00    +0.000 NA
ATOM      9  H   UNL     1      46.895   2.821  13.886  0.00  0.00    +0.000 HD
ATOM     10  H   UNL     1      47.216   2.607  15.464  0.00  0.00    +0.000 HD
ENDBRANCH   7   8
ENDBRANCH   1   7
BRANCH   5  11
ATOM     11  O   UNL     1      43.515   5.381  11.889  0.00  0.00    +0.000 OA
BRANCH  11  12
ATOM     12  C   UNL     1      43.443   4.873  10.547  0.00  0.00    +0.000 C 
BRANCH  12  13
ATOM     13  C   UNL     1      43.930   3.426  10.509  0.00  0.00    +0.000 C 
BRANCH  13  14
ATOM     14  C   UNL     1      44.923   3.202   9.391  0.00  0.00    +0.000 A 
ATOM     15  C   UNL     1      45.397   4.285   8.637  0.00  0.00    +0.000 A 
ATOM     16  C   UNL     1      46.294   4.081   7.584  0.00  0.00    +0.000 A 
ATOM     17  C   UNL     1      46.723   2.792   7.271  0.00  0.00    +0.000 A 
ATOM     18  C   UNL     1      46.248   1.711   8.009  0.00  0.00    +0.000 A 
ATOM     19 CL   UNL     1      46.772   0.118   7.618  0.00  0.00    +0.000 Cl
ATOM     20  C   UNL     1      45.351   1.907   9.061  0.00  0.00    +0.000 A 
ENDBRANCH  13  14
ENDBRANCH  12  13
ENDBRANCH  11  12
ENDBRANCH   5  11
TORSDOF 6
ENDMDL
MODEL 2
REMARK VINA RESULT:    -6.600      3.523      5.857
REMARK INTER + INTRA:          -9.444
REMARK INTER:                  -8.772
REMARK INTRA:                  -0.672
REMARK UNBOUND:                -0.722
REMARK  Name = 
REMARK  6 active torsions:
REMARK  status: ('A' for Active; 'I' for Inactive)
REMARK    1  A    between atoms: N_1  and  C_2
REMARK    2  A    between atoms: C_2  and  C_3
REMARK    3  A    between atoms: C_7  and  O_8
REMARK    4  A    between atoms: O_8  and  C_9
REMARK    5  A    between atoms: C_9  and  C_10
REMARK    6  A    between atoms: C_10  and  C_11
REMARK                            x       y       z     vdW  Elec       q    Type
REMARK                         _______ _______ _______ _____ _____    ______ ____
ROOT
ATOM      1  C   UNL     1      46.208   2.120   8.061  0.00  0.00    +0.000 A 
ATOM      2  C   UNL     1      46.433   3.424   7.628  0.00  0.00    +0.000 A 
ATOM      3  C   UNL     1      45.697   4.457   8.204  0.00  0.00    +0.000 A 
ATOM      4  C   UNL     1      44.757   4.162   9.191  0.00  0.00    +0.000 A 
ATOM      5  C   UNL     1      44.600   2.838   9.567  0.00  0.00    +0.000 A 
ATOM      6  N   UNL     1      45.306   1.826   9.024  0.00  0.00    +0.000 NA
ENDROOT
BRANCH   1   7
ATOM      7  C   UNL     1      46.961   0.952   7.468  0.00  0.00    +0.000 C 
BRANCH   7   8
ATOM      8  N   UNL     1      47.999   1.359   6.516  0.00  0.00    +0.000 NA
ATOM      9  H   UNL     1      47.705   1.072   5.584  0.00  0.00    +0.000 HD
ATOM     10  H   UNL     1      48.838   0.815   6.721  0.00  0.00    +0.000 HD
ENDBRANCH   7   8
ENDBRANCH   1   7
BRANCH   5  11
ATOM     11  O   UNL     1      43.662   2.553  10.543  0.00  0.00    +0.000 OA
BRANCH  11  12
ATOM     12  C   UNL     1      43.234   3.744  11.222  0.00  0.00    +0.000 C 
BRANCH  12  13
ATOM     13  C   UNL     1      43.753   3.742  12.658  0.00  0.00    +0.000 C 
BRANCH  13  14
ATOM     14  C   UNL     1      44.868   4.745  12.848  0.00  0.00    +0.000 A 
ATOM     15  C   UNL     1      46.150   4.317  13.224  0.00  0.00    +0.000 A 
ATOM     16  C   UNL     1      47.179   5.241  13.427  0.00  0.00    +0.000 A 
ATOM     17  C   UNL     1      46.936   6.604  13.263  0.00  0.00    +0.000 A 
ATOM     18  C   UNL     1      45.663   7.037  12.900  0.00  0.00    +0.000 A 
ATOM     19 CL   UNL     1      45.362   8.721  12.703  0.00  0.00    +0.000 Cl
ATOM     20  C   UNL     1      44.631   6.119  12.696  0.00  0.00    +0.000 A 
ENDBRANCH  13  14
ENDBRANCH  12  13
ENDBRANCH  11  12
ENDBRANCH   5  11
TORSDOF 6
ENDMDL
MODEL 3
REMARK VINA RESULT:    -6.400      1.511      2.469
REMARK INTER + INTRA:          -9.180
REMARK INTER:                  -8.522
REMARK INTRA:                  -0.658
REMARK UNBOUND:                -0.722
REMARK  Name = 
REMARK  6 active torsions:
REMARK  status: ('A' for Active; 'I' for Inactive)
REMARK    1  A    between atoms: N_1  and  C_2
REMARK    2  A    between atoms: C_2  and  C_3
REMARK    3  A    between atoms: C_7  and  O_8
REMARK    4  A    between atoms: O_8  and  C_9
REMARK    5  A    between atoms: C_9  and  C_10
REMARK    6  A    between atoms: C_10  and  C_11
REMARK                            x       y       z     vdW  Elec       q    Type
REMARK                         _______ _______ _______ _____ _____    ______ ____
ROOT
ATOM      1  C   UNL     1      45.668   7.193  12.526  0.00  0.00    +0.000 A 
ATOM      2  C   UNL     1      46.871   6.841  13.130  0.00  0.00    +0.000 A 
ATOM      3  C   UNL     1      47.004   5.561  13.662  0.00  0.00    +0.000 A 
ATOM      4  C   UNL     1      45.935   4.669  13.580  0.00  0.00    +0.000 A 
ATOM      5  C   UNL     1      44.775   5.099  12.957  0.00  0.00    +0.000 A 
ATOM      6  N   UNL     1      44.629   6.332  12.433  0.00  0.00    +0.000 NA
ENDROOT
BRANCH   1   7
ATOM      7  C   UNL     1      45.451   8.570  11.942  0.00  0.00    +0.000 C 
BRANCH   7   8
ATOM      8  N   UNL     1      44.833   9.504  12.887  0.00  0.00    +0.000 NA
ATOM      9  H   UNL     1      43.948   9.106  13.194  0.00  0.00    +0.000 HD
ATOM     10  H   UNL     1      44.590  10.351  12.372  0.00  0.00    +0.000 HD
ENDBRANCH   7   8
ENDBRANCH   1   7
BRANCH   5  11
ATOM     11  O   UNL     1      43.717   4.210  12.884  0.00  0.00    +0.000 OA
BRANCH  11  12
ATOM     12  C   UNL     1      43.210   4.106  11.545  0.00  0.00    +0.000 C 
BRANCH  12  13
ATOM     13  C   UNL     1      43.669   2.793  10.913  0.00  0.00    +0.000 C 
BRANCH  13  14
ATOM     14  C   UNL     1      44.623   3.032   9.765  0.00  0.00    +0.000 A 
ATOM     15  C   UNL     1      44.838   4.331   9.280  0.00  0.00    +0.000 A 
ATOM     16  C   UNL     1      45.699   4.556   8.202  0.00  0.00    +0.000 A 
ATOM     17  C   UNL     1      46.349   3.484   7.592  0.00  0.00    +0.000 A 
ATOM     18  C   UNL     1      46.133   2.191   8.061  0.00  0.00    +0.000 A 
ATOM     19 CL   UNL     1      46.931   0.867   7.303  0.00  0.00    +0.000 Cl
ATOM     20  C   UNL     1      45.274   1.959   9.138  0.00  0.00    +0.000 A 
ENDBRANCH  13  14
ENDBRANCH  12  13
ENDBRANCH  11  12
ENDBRANCH   5  11
TORSDOF 6
ENDMDL
MODEL 4
REMARK VINA RESULT:    -6.128      3.175      5.818
REMARK INTER + INTRA:          -8.821
REMARK INTER:                  -8.151
REMARK INTRA:                  -0.670
REMARK UNBOUND:                -0.722
REMARK  Name = 
REMARK  6 active torsions:
REMARK  status: ('A' for Active; 'I' for Inactive)
REMARK    1  A    between atoms: N_1  and  C_2
REMARK    2  A    between atoms: C_2  and  C_3
REMARK    3  A    between atoms: C_7  and  O_8
REMARK    4  A    between atoms: O_8  and  C_9
REMARK    5  A    between atoms: C_9  and  C_10
REMARK    6  A    between atoms: C_10  and  C_11
REMARK                            x       y       z     vdW  Elec       q    Type
REMARK                         _______ _______ _______ _____ _____    ______ ____
ROOT
ATOM      1  C   UNL     1      46.033   3.268   7.555  0.00  0.00    +0.000 A 
ATOM      2  C   UNL     1      45.982   1.971   8.056  0.00  0.00    +0.000 A 
ATOM      3  C   UNL     1      45.132   1.698   9.125  0.00  0.00    +0.000 A 
ATOM      4  C   UNL     1      44.359   2.725   9.666  0.00  0.00    +0.000 A 
ATOM      5  C   UNL     1      44.466   3.987   9.104  0.00  0.00    +0.000 A 
ATOM      6  N   UNL     1      45.280   4.269   8.068  0.00  0.00    +0.000 NA
ENDROOT
BRANCH   1   7
ATOM      7  C   UNL     1      46.944   3.636   6.408  0.00  0.00    +0.000 C 
BRANCH   7   8
ATOM      8  N   UNL     1      48.228   2.930   6.443  0.00  0.00    +0.000 NA
ATOM      9  H   UNL     1      48.801   3.349   7.173  0.00  0.00    +0.000 HD
ATOM     10  H   UNL     1      48.713   3.123   5.566  0.00  0.00    +0.000 HD
ENDBRANCH   7   8
ENDBRANCH   1   7
BRANCH   5  11
ATOM     11  O   UNL     1      43.701   5.001   9.651  0.00  0.00    +0.000 OA
BRANCH  11  12
ATOM     12  C   UNL     1      43.196   4.637  10.946  0.00  0.00    +0.000 C 
BRANCH  12  13
ATOM     13  C   UNL     1      43.505   5.739  11.957  0.00  0.00    +0.000 C 
BRANCH  13  14
ATOM     14  C   UNL     1      44.957   5.718  12.376  0.00  0.00    +0.000 A 
ATOM     15  C   UNL     1      45.412   4.773  13.308  0.00  0.00    +0.000 A 
ATOM     16  C   UNL     1      46.748   4.765  13.719  0.00  0.00    +0.000 A 
ATOM     17  C   UNL     1      47.642   5.705  13.209  0.00  0.00    +0.000 A 
ATOM     18  C   UNL     1      47.196   6.652  12.291  0.00  0.00    +0.000 A 
ATOM     19 CL   UNL     1      48.299   7.817  11.666  0.00  0.00    +0.000 Cl
ATOM     20  C   UNL     1      45.862   6.666  11.876  0.00  0.00    +0.000 A 
ENDBRANCH  13  14
ENDBRANCH  12  13
ENDBRANCH  11  12
ENDBRANCH   5  11
TORSDOF 6
ENDMDL
MODEL 5
REMARK VINA RESULT:    -5.654      4.174      7.398
REMARK INTER + INTRA:          -8.194
REMARK INTER:                  -7.826
REMARK INTRA:                  -0.368
REMARK UNBOUND:                -0.722
REMARK  Name = 
REMARK  6 active torsions:
REMARK  status: ('A' for Active; 'I' for Inactive)
REMARK    1  A    between atoms: N_1  and  C_2
REMARK    2  A    between atoms: C_2  and  C_3
REMARK    3  A    between atoms: C_7  and  O_8
REMARK    4  A    between atoms: O_8  and  C_9
REMARK    5  A    between atoms: C_9  and  C_10
REMARK    6  A    between atoms: C_10  and  C_11
REMARK                            x       y       z     vdW  Elec       q    Type
REMARK                         _______ _______ _______ _____ _____    ______ ____
ROOT
ATOM      1  C   UNL     1      44.868   4.584  12.214  0.00  0.00    +0.000 A 
ATOM      2  C   UNL     1      45.348   5.837  11.840  0.00  0.00    +0.000 A 
ATOM      3  C   UNL     1      46.511   6.314  12.439  0.00  0.00    +0.000 A 
ATOM      4  C   UNL     1      47.161   5.534  13.394  0.00  0.00    +0.000 A 
ATOM      5  C   UNL     1      46.619   4.296  13.704  0.00  0.00    +0.000 A 
ATOM      6  N   UNL     1      45.497   3.816  13.132  0.00  0.00    +0.000 NA
ENDROOT
BRANCH   1   7
ATOM      7  C   UNL     1      43.604   4.013  11.615  0.00  0.00    +0.000 C 
BRANCH   7   8
ATOM      8  N   UNL     1      43.508   2.557  11.755  0.00  0.00    +0.000 NA
ATOM      9  H   UNL     1      44.344   2.143  11.346  0.00  0.00    +0.000 HD
ATOM     10  H   UNL     1      42.731   2.240  11.174  0.00  0.00    +0.000 HD
ENDBRANCH   7   8
ENDBRANCH   1   7
BRANCH   5  11
ATOM     11  O   UNL     1      47.267   3.531  14.657  0.00  0.00    +0.000 OA
BRANCH  11  12
ATOM     12  C   UNL     1      47.269   4.180  15.938  0.00  0.00    +0.000 C 
BRANCH  12  13
ATOM     13  C   UNL     1      47.705   3.196  17.022  0.00  0.00    +0.000 C 
BRANCH  13  14
ATOM     14  C   UNL     1      49.184   3.306  17.311  0.00  0.00    +0.000 A 
ATOM     15  C   UNL     1      49.764   4.557  17.570  0.00  0.00    +0.000 A 
ATOM     16  C   UNL     1      51.137   4.669  17.812  0.00  0.00    +0.000 A 
ATOM     17  C   UNL     1      51.945   3.533  17.793  0.00  0.00    +0.000 A 
ATOM     18  C   UNL     1      51.378   2.289  17.526  0.00  0.00    +0.000 A 
ATOM     19 CL   UNL     1      52.377   0.888  17.496  0.00  0.00    +0.000 Cl
ATOM     20  C   UNL     1      50.007   2.170  17.283  0.00  0.00    +0.000 A 
ENDBRANCH  13  14
ENDBRANCH  12  13
ENDBRANCH  11  12
ENDBRANCH   5  11
TORSDOF 6
ENDMDL
MODEL 6
REMARK VINA RESULT:    -5.576      1.924      3.034
REMARK INTER + INTRA:          -8.090
REMARK INTER:                  -7.751
REMARK INTRA:                  -0.339
REMARK UNBOUND:                -0.722
REMARK  Name = 
REMARK  6 active torsions:
REMARK  status: ('A' for Active; 'I' for Inactive)
REMARK    1  A    between atoms: N_1  and  C_2
REMARK    2  A    between atoms: C_2  and  C_3
REMARK    3  A    between atoms: C_7  and  O_8
REMARK    4  A    between atoms: O_8  and  C_9
REMARK    5  A    between atoms: C_9  and  C_10
REMARK    6  A    between atoms: C_10  and  C_11
REMARK                            x       y       z     vdW  Elec       q    Type
REMARK                         _______ _______ _______ _____ _____    ______ ____
ROOT
ATOM      1  C   UNL     1      47.740   4.792  15.933  0.00  0.00    +0.000 A 
ATOM      2  C   UNL     1      48.543   5.911  16.137  0.00  0.00    +0.000 A 
ATOM      3  C   UNL     1      48.717   6.811  15.088  0.00  0.00    +0.000 A 
ATOM      4  C   UNL     1      48.090   6.570  13.867  0.00  0.00    +0.000 A 
ATOM      5  C   UNL     1      47.303   5.436  13.750  0.00  0.00    +0.000 A 
ATOM      6  N   UNL     1      47.120   4.556  14.754  0.00  0.00    +0.000 NA
ENDROOT
BRANCH   1   7
ATOM      7  C   UNL     1      47.521   3.769  17.022  0.00  0.00    +0.000 C 
BRANCH   7   8
ATOM      8  N   UNL     1      46.810   4.308  18.184  0.00  0.00    +0.000 NA
ATOM      9  H   UNL     1      47.499   4.699  18.825  0.00  0.00    +0.000 HD
ATOM     10  H   UNL     1      46.385   3.524  18.681  0.00  0.00    +0.000 HD
ENDBRANCH   7   8
ENDBRANCH   1   7
BRANCH   5  11
ATOM     11  O   UNL     1      46.689   5.201  12.533  0.00  0.00    +0.000 OA
BRANCH  11  12
ATOM     12  C   UNL     1      46.303   6.429  11.895  0.00  0.00    +0.000 C 
BRANCH  12  13
ATOM     13  C   UNL     1      44.955   6.255  11.197  0.00  0.00    +0.000 C 
BRANCH  13  14
ATOM     14  C   UNL     1      44.915   4.988  10.374  0.00  0.00    +0.000 A 
ATOM     15  C   UNL     1      44.234   3.856  10.846  0.00  0.00    +0.000 A 
ATOM     16  C   UNL     1      44.215   2.673  10.102  0.00  0.00    +0.000 A 
ATOM     17  C   UNL     1      44.882   2.606   8.880  0.00  0.00    +0.000 A 
ATOM     18  C   UNL     1      45.570   3.722   8.409  0.00  0.00    +0.000 A 
ATOM     19 CL   UNL     1      46.400   3.637   6.903  0.00  0.00    +0.000 Cl
ATOM     20  C   UNL     1      45.593   4.907   9.148  0.00  0.00    +0.000 A 
ENDBRANCH  13  14
ENDBRANCH  12  13
ENDBRANCH  11  12
ENDBRANCH   5  11
TORSDOF 6
ENDMDL
MODEL 7
REMARK VINA RESULT:    -5.438      4.765      8.242
REMARK INTER + INTRA:          -7.909
REMARK INTER:                  -7.562
REMARK INTRA:                  -0.346
REMARK UNBOUND:                -0.722
REMARK  Name = 
REMARK  6 active torsions:
REMARK  status: ('A' for Active; 'I' for Inactive)
REMARK    1  A    between atoms: N_1  and  C_2
REMARK    2  A    between atoms: C_2  and  C_3
REMARK    3  A    between atoms: C_7  and  O_8
REMARK    4  A    between atoms: O_8  and  C_9
REMARK    5  A    between atoms: C_9  and  C_10
REMARK    6  A    between atoms: C_10  and  C_11
REMARK                            x       y       z     vdW  Elec       q    Type
REMARK                         _______ _______ _______ _____ _____    ______ ____
ROOT
ATOM      1  C   UNL     1      45.160   3.829  11.760  0.00  0.00    +0.000 A 
ATOM      2  C   UNL     1      45.375   5.184  11.522  0.00  0.00    +0.000 A 
ATOM      3  C   UNL     1      46.295   5.865  12.315  0.00  0.00    +0.000 A 
ATOM      4  C   UNL     1      46.971   5.180  13.324  0.00  0.00    +0.000 A 
ATOM      5  C   UNL     1      46.702   3.831  13.490  0.00  0.00    +0.000 A 
ATOM      6  N   UNL     1      45.819   3.154  12.730  0.00  0.00    +0.000 NA
ENDROOT
BRANCH   1   7
ATOM      7  C   UNL     1      44.166   3.033  10.947  0.00  0.00    +0.000 C 
BRANCH   7   8
ATOM      8  N   UNL     1      43.227   2.270  11.773  0.00  0.00    +0.000 NA
ATOM      9  H   UNL     1      43.763   1.738  12.456  0.00  0.00    +0.000 HD
ATOM     10  H   UNL     1      42.778   1.576  11.174  0.00  0.00    +0.000 HD
ENDBRANCH   7   8
ENDBRANCH   1   7
BRANCH   5  11
ATOM     11  O   UNL     1      47.373   3.160  14.497  0.00  0.00    +0.000 OA
BRANCH  11  12
ATOM     12  C   UNL     1      47.142   3.769  15.777  0.00  0.00    +0.000 C 
BRANCH  12  13
ATOM     13  C   UNL     1      48.246   3.368  16.753  0.00  0.00    +0.000 C 
BRANCH  13  14
ATOM     14  C   UNL     1      48.261   4.260  17.974  0.00  0.00    +0.000 A 
ATOM     15  C   UNL     1      47.251   5.215  18.166  0.00  0.00    +0.000 A 
ATOM     16  C   UNL     1      47.274   6.061  19.279  0.00  0.00    +0.000 A 
ATOM     17  C   UNL     1      48.308   5.965  20.208  0.00  0.00    +0.000 A 
ATOM     18  C   UNL     1      49.319   5.027  20.019  0.00  0.00    +0.000 A 
ATOM     19 CL   UNL     1      50.600   4.913  21.164  0.00  0.00    +0.000 Cl
ATOM     20  C   UNL     1      49.303   4.179  18.909  0.00  0.00    +0.000 A 
ENDBRANCH  13  14
ENDBRANCH  12  13
ENDBRANCH  11  12
ENDBRANCH   5  11
TORSDOF 6
ENDMDL
MODEL 8
REMARK VINA RESULT:    -5.271      3.387      6.065
REMARK INTER + INTRA:          -7.687
REMARK INTER:                  -7.115
REMARK INTRA:                  -0.572
REMARK UNBOUND:                -0.722
REMARK  Name = 
REMARK  6 active torsions:
REMARK  status: ('A' for Active; 'I' for Inactive)
REMARK    1  A    between atoms: N_1  and  C_2
REMARK    2  A    between atoms: C_2  and  C_3
REMARK    3  A    between atoms: C_7  and  O_8
REMARK    4  A    between atoms: O_8  and  C_9
REMARK    5  A    between atoms: C_9  and  C_10
REMARK    6  A    between atoms: C_10  and  C_11
REMARK                            x       y       z     vdW  Elec       q    Type
REMARK                         _______ _______ _______ _____ _____    ______ ____
ROOT
ATOM      1  C   UNL     1      44.227   4.025  10.657  0.00  0.00    +0.000 A 
ATOM      2  C   UNL     1      43.027   4.639  11.003  0.00  0.00    +0.000 A 
ATOM      3  C   UNL     1      42.830   5.024  12.327  0.00  0.00    +0.000 A 
ATOM      4  C   UNL     1      43.830   4.782  13.268  0.00  0.00    +0.000 A 
ATOM      5  C   UNL     1      44.996   4.170  12.838  0.00  0.00    +0.000 A 
ATOM      6  N   UNL     1      45.207   3.795  11.560  0.00  0.00    +0.000 NA
ENDROOT
BRANCH   1   7
ATOM      7  C   UNL     1      44.500   3.569   9.242  0.00  0.00    +0.000 C 
BRANCH   7   8
ATOM      8  N   UNL     1      45.130   4.602   8.416  0.00  0.00    +0.000 NA
ATOM      9  H   UNL     1      44.457   5.354   8.280  0.00  0.00    +0.000 HD
ATOM     10  H   UNL     1      45.291   4.205   7.490  0.00  0.00    +0.000 HD
ENDBRANCH   7   8
ENDBRANCH   1   7
BRANCH   5  11
ATOM     11  O   UNL     1      45.981   3.929  13.779  0.00  0.00    +0.000 OA
BRANCH  11  12
ATOM     12  C   UNL     1      46.655   5.140  14.155  0.00  0.00    +0.000 C 
BRANCH  12  13
ATOM     13  C   UNL     1      47.477   5.666  12.980  0.00  0.00    +0.000 C 
BRANCH  13  14
ATOM     14  C   UNL     1      47.188   7.125  12.707  0.00  0.00    +0.000 A 
ATOM     15  C   UNL     1      45.902   7.643  12.917  0.00  0.00    +0.000 A 
ATOM     16  C   UNL     1      45.621   8.985  12.642  0.00  0.00    +0.000 A 
ATOM     17  C   UNL     1      46.620   9.821  12.148  0.00  0.00    +0.000 A 
ATOM     18  C   UNL     1      47.898   9.310  11.927  0.00  0.00    +0.000 A 
ATOM     19 CL   UNL     1      49.131  10.341  11.311  0.00  0.00    +0.000 Cl
ATOM     20  C   UNL     1      48.185   7.971  12.200  0.00  0.00    +0.000 A 
ENDBRANCH  13  14
ENDBRANCH  12  13
ENDBRANCH  11  12
ENDBRANCH   5  11
TORSDOF 6
ENDMDL
MODEL 9
REMARK VINA RESULT:    -5.214      2.904      4.848
REMARK INTER + INTRA:          -7.613
REMARK INTER:                  -7.276
REMARK INTRA:                  -0.337
REMARK UNBOUND:                -0.722
REMARK  Name = 
REMARK  6 active torsions:
REMARK  status: ('A' for Active; 'I' for Inactive)
REMARK    1  A    between atoms: N_1  and  C_2
REMARK    2  A    between atoms: C_2  and  C_3
REMARK    3  A    between atoms: C_7  and  O_8
REMARK    4  A    between atoms: O_8  and  C_9
REMARK    5  A    between atoms: C_9  and  C_10
REMARK    6  A    between atoms: C_10  and  C_11
REMARK                            x       y       z     vdW  Elec       q    Type
REMARK                         _______ _______ _______ _____ _____    ______ ____
ROOT
ATOM      1  C   UNL     1      48.511   4.582  17.116  0.00  0.00    +0.000 A 
ATOM      2  C   UNL     1      49.194   5.360  18.046  0.00  0.00    +0.000 A 
ATOM      3  C   UNL     1      49.607   6.637  17.676  0.00  0.00    +0.000 A 
ATOM      4  C   UNL     1      49.332   7.102  16.390  0.00  0.00    +0.000 A 
ATOM      5  C   UNL     1      48.642   6.264  15.528  0.00  0.00    +0.000 A 
ATOM      6  N   UNL     1      48.231   5.027  15.870  0.00  0.00    +0.000 NA
ENDROOT
BRANCH   1   7
ATOM      7  C   UNL     1      48.048   3.182  17.447  0.00  0.00    +0.000 C 
BRANCH   7   8
ATOM      8  N   UNL     1      46.589   3.062  17.525  0.00  0.00    +0.000 NA
ATOM      9  H   UNL     1      46.341   2.089  17.355  0.00  0.00    +0.000 HD
ATOM     10  H   UNL     1      46.192   3.588  16.746  0.00  0.00    +0.000 HD
ENDBRANCH   7   8
ENDBRANCH   1   7
BRANCH   5  11
ATOM     11  O   UNL     1      48.379   6.730  14.253  0.00  0.00    +0.000 OA
BRANCH  11  12
ATOM     12  C   UNL     1      47.430   5.892  13.574  0.00  0.00    +0.000 C 
BRANCH  12  13
ATOM     13  C   UNL     1      46.592   6.728  12.609  0.00  0.00    +0.000 C 
BRANCH  13  14
ATOM     14  C   UNL     1      45.389   5.960  12.108  0.00  0.00    +0.000 A 
ATOM     15  C   UNL     1      44.279   5.760  12.943  0.00  0.00    +0.000 A 
ATOM     16  C   UNL     1      43.175   5.028  12.495  0.00  0.00    +0.000 A 
ATOM     17  C   UNL     1      43.170   4.485  11.212  0.00  0.00    +0.000 A 
ATOM     18  C   UNL     1      44.273   4.671  10.381  0.00  0.00    +0.000 A 
ATOM     19 CL   UNL     1      44.270   3.994   8.798  0.00  0.00    +0.000 Cl
ATOM     20  C   UNL     1      45.380   5.401  10.822  0.00  0.00    +0.000 A 
ENDBRANCH  13  14
ENDBRANCH  12  13
ENDBRANCH  11  12
ENDBRANCH   5  11
TORSDOF 6
ENDMDL
