MODEL 1
REMARK VINA RESULT:    -8.822      0.000      0.000
REMARK INTER + INTRA:         -12.756
REMARK INTER:                 -11.917
REMARK INTRA:                  -0.840
REMARK UNBOUND:                -0.840
REMARK  Name = 
REMARK  6 active torsions:
REMARK  status: ('A' for Active; 'I' for Inactive)
REMARK    1  A    between atoms: C_2  and  C_25
REMARK    2  A    between atoms: N_3  and  C_4
REMARK    3  A    between atoms: C_4  and  C_5
REMARK    4  A    between atoms: C_9  and  C_10
REMARK    5  A    between atoms: C_10  and  N_11
REMARK    6  A    between atoms: C_12  and  C_14
REMARK                            x       y       z     vdW  Elec       q    Type
REMARK                         _______ _______ _______ _____ _____    ______ ____
ROOT
ATOM      1  C   UNL     1      45.445   5.385  11.136  0.00  0.00    +0.000 A 
ATOM      2  C   UNL     1      46.237   6.536  11.041  0.00  0.00    +0.000 A 
ATOM      3  C   UNL     1      47.052   6.924  12.105  0.00  0.00    +0.000 A 
ATOM      4  C   UNL     1      47.062   6.180  13.287  0.00  0.00    +0.000 A 
ATOM      5  C   UNL     1      46.246   5.049  13.426  0.00  0.00    +0.000 A 
ATOM      6  C   UNL     1      45.463   4.644  12.331  0.00  0.00    +0.000 A 
ENDROOT
BRANCH   1   7
ATOM      7  C   UNL     1      44.563   4.970   9.988  0.00  0.00    +0.000 C 
BRANCH   7  10
ATOM      8  O   UNL     1      44.699   2.216   9.493  0.00  0.00    +0.000 OA
ATOM      9  C   UNL     1      45.317   2.981   8.759  0.00  0.00    +0.000 C 
ATOM     10  N   UNL     1      45.311   4.352   8.919  0.00  0.00    +0.000 N 
ATOM     11  H   UNL     1      45.855   4.924   8.279  0.00  0.00    +0.000 HD
BRANCH   9  12
ATOM     12  C   UNL     1      46.135   2.454   7.628  0.00  0.00    +0.000 A 
ATOM     13  C   UNL     1      46.354   3.223   6.494  0.00  0.00    +0.000 A 
ATOM     14  C   UNL     1      47.105   2.674   5.463  0.00  0.00    +0.000 A 
ATOM     15  C   UNL     1      47.592   1.391   5.624  0.00  0.00    +0.000 A 
ATOM     16  N   UNL     1      47.370   0.663   6.741  0.00  0.00    +0.000 NA
ATOM     17  N   UNL     1      46.631   1.199   7.759  0.00  0.00    +0.000 NA
ENDBRANCH   9  12
ENDBRANCH   7  10
ENDBRANCH   1   7
BRANCH   5  18
ATOM     18  C   UNL     1      46.199   4.294  14.732  0.00  0.00    +0.000 C 
BRANCH  18  19
ATOM     19  N   UNL     1      47.362   4.530  15.546  0.00  0.00    +0.000 N 
ATOM     20  C   UNL     1      47.471   3.985  16.802  0.00  0.00    +0.000 C 
ATOM     21  O   UNL     1      46.606   3.250  17.273  0.00  0.00    +0.000 OA
ATOM     22  H   UNL     1      47.937   5.332  15.306  0.00  0.00    +0.000 HD
BRANCH  20  23
ATOM     23  C   UNL     1      48.711   4.274  17.536  0.00  0.00    +0.000 A 
ATOM     24  C   UNL     1      48.814   5.430  18.296  0.00  0.00    +0.000 A 
ATOM     25  S   UNL     1      50.300   5.575  19.124  0.00  0.00    +0.000 S 
ATOM     26  C   UNL     1      50.879   4.125  18.450  0.00  0.00    +0.000 A 
ATOM     27  N   UNL     1      52.131   3.672  18.728  0.00  0.00    +0.000 NA
ATOM     28  C   UNL     1      52.448   2.575  18.126  0.00  0.00    +0.000 A 
ATOM     29  N   UNL     1      51.624   1.885  17.274  0.00  0.00    +0.000 N 
ATOM     30  C   UNL     1      50.343   2.287  16.990  0.00  0.00    +0.000 A 
ATOM     31  O   UNL     1      49.614   1.621  16.259  0.00  0.00    +0.000 OA
ATOM     32  C   UNL     1      49.941   3.525  17.625  0.00  0.00    +0.000 A 
ATOM     33  H   UNL     1      51.929   1.026  16.841  0.00  0.00    +0.000 HD
ENDBRANCH  20  23
ENDBRANCH  18  19
ENDBRANCH   5  18
TORSDOF 6
ENDMDL
MODEL 2
REMARK VINA RESULT:    -8.655      1.554      1.845
REMARK INTER + INTRA:         -12.531
REMARK INTER:                 -11.599
REMARK INTRA:                  -0.932
REMARK UNBOUND:                -0.840
REMARK  Name = 
REMARK  6 active torsions:
REMARK  status: ('A' for Active; 'I' for Inactive)
REMARK    1  A    between atoms: C_2  and  C_25
REMARK    2  A    between atoms: N_3  and  C_4
REMARK    3  A    between atoms: C_4  and  C_5
REMARK    4  A    between atoms: C_9  and  C_10
REMARK    5  A    between atoms: C_10  and  N_11
REMARK    6  A    between atoms: C_12  and  C_14
REMARK                            x       y       z     vdW  Elec       q    Type
REMARK                         _______ _______ _______ _____ _____    ______ ____
ROOT
ATOM      1  C   UNL     1      44.858   4.868  11.585  0.00  0.00    +0.000 A 
ATOM      2  C   UNL     1      45.033   6.257  11.644  0.00  0.00    +0.000 A 
ATOM      3  C   UNL     1      45.863   6.825  12.612  0.00  0.00    +0.000 A 
ATOM      4  C   UNL     1      46.504   6.013  13.549  0.00  0.00    +0.000 A 
ATOM      5  C   UNL     1      46.312   4.625  13.542  0.00  0.00    +0.000 A 
ATOM      6  C   UNL     1      45.509   4.061  12.535  0.00  0.00    +0.000 A 
ENDROOT
BRANCH   1   7
ATOM      7  C   UNL     1      43.959   4.257  10.543  0.00  0.00    +0.000 C 
BRANCH   7  10
ATOM      8  O   UNL     1      45.545   5.059   8.377  0.00  0.00    +0.000 OA
ATOM      9  C   UNL     1      45.428   3.860   8.614  0.00  0.00    +0.000 C 
ATOM     10  N   UNL     1      44.673   3.367   9.659  0.00  0.00    +0.000 N 
ATOM     11  H   UNL     1      44.613   2.361   9.790  0.00  0.00    +0.000 HD
BRANCH   9  12
ATOM     12  C   UNL     1      46.112   2.846   7.760  0.00  0.00    +0.000 A 
ATOM     13  C   UNL     1      46.596   3.188   6.505  0.00  0.00    +0.000 A 
ATOM     14  C   UNL     1      47.205   2.199   5.744  0.00  0.00    +0.000 A 
ATOM     15  C   UNL     1      47.296   0.928   6.279  0.00  0.00    +0.000 A 
ATOM     16  N   UNL     1      46.823   0.621   7.507  0.00  0.00    +0.000 NA
ATOM     17  N   UNL     1      46.221   1.591   8.260  0.00  0.00    +0.000 NA
ENDBRANCH   9  12
ENDBRANCH   7  10
ENDBRANCH   1   7
BRANCH   5  18
ATOM     18  C   UNL     1      46.942   3.758  14.604  0.00  0.00    +0.000 C 
BRANCH  18  19
ATOM     19  N   UNL     1      47.429   4.523  15.722  0.00  0.00    +0.000 N 
ATOM     20  C   UNL     1      47.170   4.135  17.013  0.00  0.00    +0.000 C 
ATOM     21  O   UNL     1      46.547   3.109  17.275  0.00  0.00    +0.000 OA
ATOM     22  H   UNL     1      47.689   5.488  15.540  0.00  0.00    +0.000 HD
BRANCH  20  23
ATOM     23  C   UNL     1      47.734   4.979  18.076  0.00  0.00    +0.000 A 
ATOM     24  C   UNL     1      46.893   5.733  18.883  0.00  0.00    +0.000 A 
ATOM     25  S   UNL     1      47.713   6.607  20.098  0.00  0.00    +0.000 S 
ATOM     26  C   UNL     1      49.226   6.053  19.553  0.00  0.00    +0.000 A 
ATOM     27  N   UNL     1      50.379   6.456  20.150  0.00  0.00    +0.000 NA
ATOM     28  C   UNL     1      51.453   5.979  19.615  0.00  0.00    +0.000 A 
ATOM     29  N   UNL     1      51.479   5.129  18.538  0.00  0.00    +0.000 N 
ATOM     30  C   UNL     1      50.340   4.672  17.925  0.00  0.00    +0.000 A 
ATOM     31  O   UNL     1      50.397   3.874  16.992  0.00  0.00    +0.000 OA
ATOM     32  C   UNL     1      49.105   5.192  18.474  0.00  0.00    +0.000 A 
ATOM     33  H   UNL     1      52.353   4.784  18.173  0.00  0.00    +0.000 HD
ENDBRANCH  20  23
ENDBRANCH  18  19
ENDBRANCH   5  18
TORSDOF 6
ENDMDL
MODEL 3
REMARK VINA RESULT:    -8.559      1.966      2.857
REMARK INTER + INTRA:         -12.401
REMARK INTER:                 -11.250
REMARK INTRA:                  -1.151
REMARK UNBOUND:                -0.840
REMARK  Name = 
REMARK  6 active torsions:
REMARK  status: ('A' for Active; 'I' for Inactive)
REMARK    1  A    between atoms: C_2  and  C_25
REMARK    2  A    between atoms: N_3  and  C_4
REMARK    3  A    between atoms: C_4  and  C_5
REMARK    4  A    between atoms: C_9  and  C_10
REMARK    5  A    between atoms: C_10  and  N_11
REMARK    6  A    between atoms: C_12  and  C_14
REMARK                            x       y       z     vdW  Elec       q    Type
REMARK                         _______ _______ _______ _____ _____    ______ ____
ROOT
ATOM      1  C   UNL     1      45.201   6.294  11.215  0.00  0.00    +0.000 A 
ATOM      2  C   UNL     1      44.463   7.465  11.432  0.00  0.00    +0.000 A 
ATOM      3  C   UNL     1      45.092   8.621  11.894  0.00  0.00    +0.000 A 
ATOM      4  C   UNL     1      46.461   8.611  12.171  0.00  0.00    +0.000 A 
ATOM      5  C   UNL     1      47.215   7.442  12.005  0.00  0.00    +0.000 A 
ATOM      6  C   UNL     1      46.578   6.296  11.497  0.00  0.00    +0.000 A 
ENDROOT
BRANCH   1   7
ATOM      7  C   UNL     1      44.519   5.045  10.720  0.00  0.00    +0.000 C 
BRANCH   7  10
ATOM      8  O   UNL     1      44.043   2.450   9.778  0.00  0.00    +0.000 OA
ATOM      9  C   UNL     1      44.963   3.100   9.287  0.00  0.00    +0.000 C 
ATOM     10  N   UNL     1      45.273   4.385   9.681  0.00  0.00    +0.000 N 
ATOM     11  H   UNL     1      46.055   4.859   9.238  0.00  0.00    +0.000 HD
BRANCH   9  12
ATOM     12  C   UNL     1      45.818   2.514   8.214  0.00  0.00    +0.000 A 
ATOM     13  C   UNL     1      46.209   3.280   7.125  0.00  0.00    +0.000 A 
ATOM     14  C   UNL     1      46.988   2.677   6.145  0.00  0.00    +0.000 A 
ATOM     15  C   UNL     1      47.329   1.349   6.310  0.00  0.00    +0.000 A 
ATOM     16  N   UNL     1      46.941   0.626   7.383  0.00  0.00    +0.000 NA
ATOM     17  N   UNL     1      46.174   1.214   8.350  0.00  0.00    +0.000 NA
ENDBRANCH   9  12
ENDBRANCH   7  10
ENDBRANCH   1   7
BRANCH   5  18
ATOM     18  C   UNL     1      48.676   7.412  12.381  0.00  0.00    +0.000 C 
BRANCH  18  19
ATOM     19  N   UNL     1      48.918   6.673  13.592  0.00  0.00    +0.000 N 
ATOM     20  C   UNL     1      48.831   7.279  14.822  0.00  0.00    +0.000 C 
ATOM     21  O   UNL     1      48.514   8.460  14.947  0.00  0.00    +0.000 OA
ATOM     22  H   UNL     1      49.439   5.806  13.506  0.00  0.00    +0.000 HD
BRANCH  20  23
ATOM     23  C   UNL     1      49.076   6.425  15.992  0.00  0.00    +0.000 A 
ATOM     24  C   UNL     1      50.086   6.747  16.887  0.00  0.00    +0.000 A 
ATOM     25  S   UNL     1      50.191   5.678  18.214  0.00  0.00    +0.000 S 
ATOM     26  C   UNL     1      48.925   4.716  17.610  0.00  0.00    +0.000 A 
ATOM     27  N   UNL     1      48.522   3.594  18.263  0.00  0.00    +0.000 NA
ATOM     28  C   UNL     1      47.572   2.946  17.676  0.00  0.00    +0.000 A 
ATOM     29  N   UNL     1      46.984   3.321  16.495  0.00  0.00    +0.000 N 
ATOM     30  C   UNL     1      47.337   4.462  15.818  0.00  0.00    +0.000 A 
ATOM     31  O   UNL     1      46.757   4.794  14.787  0.00  0.00    +0.000 OA
ATOM     32  C   UNL     1      48.413   5.218  16.424  0.00  0.00    +0.000 A 
ATOM     33  H   UNL     1      46.238   2.775  16.093  0.00  0.00    +0.000 HD
ENDBRANCH  20  23
ENDBRANCH  18  19
ENDBRANCH   5  18
TORSDOF 6
ENDMDL
MODEL 4
REMARK VINA RESULT:    -8.090      2.165      2.639
REMARK INTER + INTRA:         -11.768
REMARK INTER:                 -10.833
REMARK INTRA:                  -0.934
REMARK UNBOUND:                -0.840
REMARK  Name = 
REMARK  6 active torsions:
REMARK  status: ('A' for Active; 'I' for Inactive)
REMARK    1  A    between atoms: C_2  and  C_25
REMARK    2  A    between atoms: N_3  and  C_4
REMARK    3  A    between atoms: C_4  and  C_5
REMARK    4  A    between atoms: C_9  and  C_10
REMARK    5  A    between atoms: C_10  and  N_11
REMARK    6  A    between atoms: C_12  and  C_14
REMARK                            x       y       z     vdW  Elec       q    Type
REMARK                         _______ _______ _______ _____ _____    ______ ____
ROOT
ATOM      1  C   UNL     1      45.049   6.170  11.410  0.00  0.00    +0.000 A 
ATOM      2  C   UNL     1      44.572   7.480  11.553  0.00  0.00    +0.000 A 
ATOM      3  C   UNL     1      45.307   8.425  12.270  0.00  0.00    +0.000 A 
ATOM      4  C   UNL     1      46.512   8.064  12.876  0.00  0.00    +0.000 A 
ATOM      5  C   UNL     1      46.990   6.749  12.786  0.00  0.00    +0.000 A 
ATOM      6  C   UNL     1      46.264   5.818  12.025  0.00  0.00    +0.000 A 
ENDROOT
BRANCH   1   7
ATOM      7  C   UNL     1      44.253   5.150  10.640  0.00  0.00    +0.000 C 
BRANCH   7  10
ATOM      8  O   UNL     1      43.955   2.465   9.897  0.00  0.00    +0.000 OA
ATOM      9  C   UNL     1      44.829   3.137   9.355  0.00  0.00    +0.000 C 
ATOM     10  N   UNL     1      45.051   4.466   9.651  0.00  0.00    +0.000 N 
ATOM     11  H   UNL     1      45.799   4.957   9.170  0.00  0.00    +0.000 HD
BRANCH   9  12
ATOM     12  C   UNL     1      45.722   2.532   8.325  0.00  0.00    +0.000 A 
ATOM     13  C   UNL     1      46.195   3.291   7.265  0.00  0.00    +0.000 A 
ATOM     14  C   UNL     1      47.007   2.671   6.324  0.00  0.00    +0.000 A 
ATOM     15  C   UNL     1      47.299   1.331   6.497  0.00  0.00    +0.000 A 
ATOM     16  N   UNL     1      46.832   0.614   7.543  0.00  0.00    +0.000 NA
ATOM     17  N   UNL     1      46.031   1.220   8.471  0.00  0.00    +0.000 NA
ENDBRANCH   9  12
ENDBRANCH   7  10
ENDBRANCH   1   7
BRANCH   5  18
ATOM     18  C   UNL     1      48.252   6.342  13.508  0.00  0.00    +0.000 C 
BRANCH  18  19
ATOM     19  N   UNL     1      48.108   6.394  14.939  0.00  0.00    +0.000 N 
ATOM     20  C   UNL     1      49.000   7.092  15.716  0.00  0.00    +0.000 C 
ATOM     21  O   UNL     1      49.933   7.727  15.230  0.00  0.00    +0.000 OA
ATOM     22  H   UNL     1      47.537   5.674  15.371  0.00  0.00    +0.000 HD
BRANCH  20  23
ATOM     23  C   UNL     1      48.744   7.097  17.163  0.00  0.00    +0.000 A 
ATOM     24  C   UNL     1      48.384   8.276  17.800  0.00  0.00    +0.000 A 
ATOM     25  S   UNL     1      48.071   8.086  19.467  0.00  0.00    +0.000 S 
ATOM     26  C   UNL     1      48.461   6.431  19.407  0.00  0.00    +0.000 A 
ATOM     27  N   UNL     1      48.429   5.661  20.527  0.00  0.00    +0.000 NA
ATOM     28  C   UNL     1      48.776   4.431  20.340  0.00  0.00    +0.000 A 
ATOM     29  N   UNL     1      49.147   3.899  19.131  0.00  0.00    +0.000 N 
ATOM     30  C   UNL     1      49.163   4.631  17.970  0.00  0.00    +0.000 A 
ATOM     31  O   UNL     1      49.455   4.112  16.895  0.00  0.00    +0.000 OA
ATOM     32  C   UNL     1      48.801   6.024  18.127  0.00  0.00    +0.000 A 
ATOM     33  H   UNL     1      49.398   2.926  19.050  0.00  0.00    +0.000 HD
ENDBRANCH  20  23
ENDBRANCH  18  19
ENDBRANCH   5  18
TORSDOF 6
ENDMDL
MODEL 5
REMARK VINA RESULT:    -8.062      2.032      2.789
REMARK INTER + INTRA:         -11.729
REMARK INTER:                 -10.883
REMARK INTRA:                  -0.846
REMARK UNBOUND:                -0.840
REMARK  Name = 
REMARK  6 active torsions:
REMARK  status: ('A' for Active; 'I' for Inactive)
REMARK    1  A    between atoms: C_2  and  C_25
REMARK    2  A    between atoms: N_3  and  C_4
REMARK    3  A    between atoms: C_4  and  C_5
REMARK    4  A    between atoms: C_9  and  C_10
REMARK    5  A    between atoms: C_10  and  N_11
REMARK    6  A    between atoms: C_12  and  C_14
REMARK                            x       y       z     vdW  Elec       q    Type
REMARK                         _______ _______ _______ _____ _____    ______ ____
ROOT
ATOM      1  C   UNL     1      44.911   5.746  11.276  0.00  0.00    +0.000 A 
ATOM      2  C   UNL     1      45.085   7.134  11.352  0.00  0.00    +0.000 A 
ATOM      3  C   UNL     1      45.849   7.695  12.376  0.00  0.00    +0.000 A 
ATOM      4  C   UNL     1      46.423   6.878  13.351  0.00  0.00    +0.000 A 
ATOM      5  C   UNL     1      46.228   5.490  13.325  0.00  0.00    +0.000 A 
ATOM      6  C   UNL     1      45.494   4.933  12.264  0.00  0.00    +0.000 A 
ENDROOT
BRANCH   1   7
ATOM      7  C   UNL     1      44.083   5.142  10.173  0.00  0.00    +0.000 C 
BRANCH   7  10
ATOM      8  O   UNL     1      44.253   2.361   9.873  0.00  0.00    +0.000 OA
ATOM      9  C   UNL     1      44.912   3.080   9.125  0.00  0.00    +0.000 C 
ATOM     10  N   UNL     1      44.893   4.458   9.193  0.00  0.00    +0.000 N 
ATOM     11  H   UNL     1      45.472   4.989   8.548  0.00  0.00    +0.000 HD
BRANCH   9  12
ATOM     12  C   UNL     1      45.794   2.483   8.081  0.00  0.00    +0.000 A 
ATOM     13  C   UNL     1      46.169   3.219   6.966  0.00  0.00    +0.000 A 
ATOM     14  C   UNL     1      46.975   2.606   6.015  0.00  0.00    +0.000 A 
ATOM     15  C   UNL     1      47.359   1.297   6.233  0.00  0.00    +0.000 A 
ATOM     16  N   UNL     1      46.986   0.603   7.331  0.00  0.00    +0.000 NA
ATOM     17  N   UNL     1      46.192   1.201   8.269  0.00  0.00    +0.000 NA
ENDBRANCH   9  12
ENDBRANCH   7  10
ENDBRANCH   1   7
BRANCH   5  18
ATOM     18  C   UNL     1      46.782   4.618  14.425  0.00  0.00    +0.000 C 
BRANCH  18  19
ATOM     19  N   UNL     1      47.514   5.371  15.409  0.00  0.00    +0.000 N 
ATOM     20  C   UNL     1      48.288   4.741  16.352  0.00  0.00    +0.000 C 
ATOM     21  O   UNL     1      48.419   3.519  16.381  0.00  0.00    +0.000 OA
ATOM     22  H   UNL     1      47.209   6.324  15.579  0.00  0.00    +0.000 HD
BRANCH  20  23
ATOM     23  C   UNL     1      49.009   5.609  17.294  0.00  0.00    +0.000 A 
ATOM     24  C   UNL     1      50.320   5.981  17.030  0.00  0.00    +0.000 A 
ATOM     25  S   UNL     1      50.981   7.034  18.199  0.00  0.00    +0.000 S 
ATOM     26  C   UNL     1      49.558   6.985  19.129  0.00  0.00    +0.000 A 
ATOM     27  N   UNL     1      49.463   7.660  20.305  0.00  0.00    +0.000 NA
ATOM     28  C   UNL     1      48.336   7.510  20.918  0.00  0.00    +0.000 A 
ATOM     29  N   UNL     1      47.292   6.749  20.458  0.00  0.00    +0.000 N 
ATOM     30  C   UNL     1      47.332   6.077  19.262  0.00  0.00    +0.000 A 
ATOM     31  O   UNL     1      46.361   5.442  18.857  0.00  0.00    +0.000 OA
ATOM     32  C   UNL     1      48.582   6.195  18.541  0.00  0.00    +0.000 A 
ATOM     33  H   UNL     1      46.433   6.680  20.981  0.00  0.00    +0.000 HD
ENDBRANCH  20  23
ENDBRANCH  18  19
ENDBRANCH   5  18
TORSDOF 6
ENDMDL
MODEL 6
REMARK VINA RESULT:    -7.745      1.481      2.055
REMARK INTER + INTRA:         -11.302
REMARK INTER:                 -10.367
REMARK INTRA:                  -0.935
REMARK UNBOUND:                -0.840
REMARK  Name = 
REMARK  6 active torsions:
REMARK  status: ('A' for Active; 'I' for Inactive)
REMARK    1  A    between atoms: C_2  and  C_25
REMARK    2  A    between atoms: N_3  and  C_4
REMARK    3  A    between atoms: C_4  and  C_5
REMARK    4  A    between atoms: C_9  and  C_10
REMARK    5  A    between atoms: C_10  and  N_11
REMARK    6  A    between atoms: C_12  and  C_14
REMARK                            x       y       z     vdW  Elec       q    Type
REMARK                         _______ _______ _______ _____ _____    ______ ____
ROOT
ATOM      1  C   UNL     1      45.517   5.476  11.399  0.00  0.00    +0.000 A 
ATOM      2  C   UNL     1      46.374   6.576  11.268  0.00  0.00    +0.000 A 
ATOM      3  C   UNL     1      47.252   6.915  12.298  0.00  0.00    +0.000 A 
ATOM      4  C   UNL     1      47.263   6.175  13.482  0.00  0.00    +0.000 A 
ATOM      5  C   UNL     1      46.385   5.097  13.658  0.00  0.00    +0.000 A 
ATOM      6  C   UNL     1      45.536   4.738  12.596  0.00  0.00    +0.000 A 
ENDROOT
BRANCH   1   7
ATOM      7  C   UNL     1      44.566   5.114  10.288  0.00  0.00    +0.000 C 
BRANCH   7  10
ATOM      8  O   UNL     1      44.828   2.380   9.736  0.00  0.00    +0.000 OA
ATOM      9  C   UNL     1      45.327   3.191   8.961  0.00  0.00    +0.000 C 
ATOM     10  N   UNL     1      45.249   4.557   9.145  0.00  0.00    +0.000 N 
ATOM     11  H   UNL     1      45.694   5.169   8.467  0.00  0.00    +0.000 HD
BRANCH   9  12
ATOM     12  C   UNL     1      46.066   2.730   7.750  0.00  0.00    +0.000 A 
ATOM     13  C   UNL     1      46.662   1.477   7.720  0.00  0.00    +0.000 A 
ATOM     14  C   UNL     1      47.355   1.108   6.574  0.00  0.00    +0.000 A 
ATOM     15  C   UNL     1      47.413   2.009   5.529  0.00  0.00    +0.000 A 
ATOM     16  N   UNL     1      46.819   3.222   5.580  0.00  0.00    +0.000 NA
ATOM     17  N   UNL     1      46.135   3.590   6.705  0.00  0.00    +0.000 NA
ENDBRANCH   9  12
ENDBRANCH   7  10
ENDBRANCH   1   7
BRANCH   5  18
ATOM     18  C   UNL     1      46.343   4.348  14.968  0.00  0.00    +0.000 C 
BRANCH  18  19
ATOM     19  N   UNL     1      47.654   4.142  15.525  0.00  0.00    +0.000 N 
ATOM     20  C   UNL     1      47.826   3.434  16.690  0.00  0.00    +0.000 C 
ATOM     21  O   UNL     1      46.882   2.919  17.287  0.00  0.00    +0.000 OA
ATOM     22  H   UNL     1      48.388   4.773  15.220  0.00  0.00    +0.000 HD
BRANCH  20  23
ATOM     23  C   UNL     1      49.209   3.266  17.156  0.00  0.00    +0.000 A 
ATOM     24  C   UNL     1      49.821   2.023  17.076  0.00  0.00    +0.000 A 
ATOM     25  S   UNL     1      51.443   2.023  17.609  0.00  0.00    +0.000 S 
ATOM     26  C   UNL     1      51.365   3.672  18.019  0.00  0.00    +0.000 A 
ATOM     27  N   UNL     1      52.432   4.310  18.570  0.00  0.00    +0.000 NA
ATOM     28  C   UNL     1      52.222   5.552  18.857  0.00  0.00    +0.000 A 
ATOM     29  N   UNL     1      51.043   6.217  18.636  0.00  0.00    +0.000 N 
ATOM     30  C   UNL     1      49.952   5.622  18.053  0.00  0.00    +0.000 A 
ATOM     31  O   UNL     1      48.926   6.258  17.826  0.00  0.00    +0.000 OA
ATOM     32  C   UNL     1      50.126   4.221  17.729  0.00  0.00    +0.000 A 
ATOM     33  H   UNL     1      50.946   7.191  18.874  0.00  0.00    +0.000 HD
ENDBRANCH  20  23
ENDBRANCH  18  19
ENDBRANCH   5  18
TORSDOF 6
ENDMDL
MODEL 7
REMARK VINA RESULT:    -7.459      4.340      8.317
REMARK INTER + INTRA:         -10.915
REMARK INTER:                  -9.501
REMARK INTRA:                  -1.414
REMARK UNBOUND:                -0.840
REMARK  Name = 
REMARK  6 active torsions:
REMARK  status: ('A' for Active; 'I' for Inactive)
REMARK    1  A    between atoms: C_2  and  C_25
REMARK    2  A    between atoms: N_3  and  C_4
REMARK    3  A    between atoms: C_4  and  C_5
REMARK    4  A    between atoms: C_9  and  C_10
REMARK    5  A    between atoms: C_10  and  N_11
REMARK    6  A    between atoms: C_12  and  C_14
REMARK                            x       y       z     vdW  Elec       q    Type
REMARK                         _______ _______ _______ _____ _____    ______ ____
ROOT
ATOM      1  C   UNL     1      50.639   5.394  17.075  0.00  0.00    +0.000 A 
ATOM      2  C   UNL     1      51.432   4.376  17.620  0.00  0.00    +0.000 A 
ATOM      3  C   UNL     1      50.915   3.092  17.791  0.00  0.00    +0.000 A 
ATOM      4  C   UNL     1      49.590   2.818  17.445  0.00  0.00    +0.000 A 
ATOM      5  C   UNL     1      48.761   3.829  16.940  0.00  0.00    +0.000 A 
ATOM      6  C   UNL     1      49.306   5.107  16.731  0.00  0.00    +0.000 A 
ENDROOT
BRANCH   1   7
ATOM      7  C   UNL     1      51.198   6.781  16.896  0.00  0.00    +0.000 C 
BRANCH   7  10
ATOM      8  O   UNL     1      49.264   8.757  16.444  0.00  0.00    +0.000 OA
ATOM      9  C   UNL     1      49.892   8.313  15.487  0.00  0.00    +0.000 C 
ATOM     10  N   UNL     1      50.866   7.342  15.608  0.00  0.00    +0.000 N 
ATOM     11  H   UNL     1      51.339   7.015  14.771  0.00  0.00    +0.000 HD
BRANCH   9  12
ATOM     12  C   UNL     1      49.626   8.811  14.106  0.00  0.00    +0.000 A 
ATOM     13  C   UNL     1      48.806   9.911  13.896  0.00  0.00    +0.000 A 
ATOM     14  C   UNL     1      48.576  10.318  12.588  0.00  0.00    +0.000 A 
ATOM     15  C   UNL     1      49.177   9.604  11.569  0.00  0.00    +0.000 A 
ATOM     16  N   UNL     1      49.977   8.539  11.799  0.00  0.00    +0.000 NA
ATOM     17  N   UNL     1      50.206   8.134  13.084  0.00  0.00    +0.000 NA
ENDBRANCH   9  12
ENDBRANCH   7  10
ENDBRANCH   1   7
BRANCH   5  18
ATOM     18  C   UNL     1      47.307   3.550  16.642  0.00  0.00    +0.000 C 
BRANCH  18  19
ATOM     19  N   UNL     1      46.745   4.496  15.713  0.00  0.00    +0.000 N 
ATOM     20  C   UNL     1      46.741   4.246  14.363  0.00  0.00    +0.000 C 
ATOM     21  O   UNL     1      47.181   3.200  13.890  0.00  0.00    +0.000 OA
ATOM     22  H   UNL     1      46.640   5.452  16.038  0.00  0.00    +0.000 HD
BRANCH  20  23
ATOM     23  C   UNL     1      46.122   5.270  13.509  0.00  0.00    +0.000 A 
ATOM     24  C   UNL     1      46.794   6.456  13.252  0.00  0.00    +0.000 A 
ATOM     25  S   UNL     1      45.952   7.504  12.198  0.00  0.00    +0.000 S 
ATOM     26  C   UNL     1      44.636   6.432  12.095  0.00  0.00    +0.000 A 
ATOM     27  N   UNL     1      43.535   6.740  11.360  0.00  0.00    +0.000 NA
ATOM     28  C   UNL     1      42.602   5.848  11.395  0.00  0.00    +0.000 A 
ATOM     29  N   UNL     1      42.672   4.670  12.094  0.00  0.00    +0.000 N 
ATOM     30  C   UNL     1      43.776   4.304  12.823  0.00  0.00    +0.000 A 
ATOM     31  O   UNL     1      43.826   3.220  13.400  0.00  0.00    +0.000 OA
ATOM     32  C   UNL     1      44.847   5.279  12.835  0.00  0.00    +0.000 A 
ATOM     33  H   UNL     1      41.912   4.009  12.073  0.00  0.00    +0.000 HD
ENDBRANCH  20  23
ENDBRANCH  18  19
ENDBRANCH   5  18
TORSDOF 6
ENDMDL
MODEL 8
REMARK VINA RESULT:    -7.336      4.182     10.095
REMARK INTER + INTRA:         -10.749
REMARK INTER:                  -9.745
REMARK INTRA:                  -1.004
REMARK UNBOUND:                -0.840
REMARK  Name = 
REMARK  6 active torsions:
REMARK  status: ('A' for Active; 'I' for Inactive)
REMARK    1  A    between atoms: C_2  and  C_25
REMARK    2  A    between atoms: N_3  and  C_4
REMARK    3  A    between atoms: C_4  and  C_5
REMARK    4  A    between atoms: C_9  and  C_10
REMARK    5  A    between atoms: C_10  and  N_11
REMARK    6  A    between atoms: C_12  and  C_14
REMARK                            x       y       z     vdW  Elec       q    Type
REMARK                         _______ _______ _______ _____ _____    ______ ____
ROOT
ATOM      1  C   UNL     1      50.707   4.661  18.045  0.00  0.00    +0.000 A 
ATOM      2  C   UNL     1      51.494   3.510  17.910  0.00  0.00    +0.000 A 
ATOM      3  C   UNL     1      50.948   2.339  17.382  0.00  0.00    +0.000 A 
ATOM      4  C   UNL     1      49.603   2.299  17.009  0.00  0.00    +0.000 A 
ATOM      5  C   UNL     1      48.782   3.423  17.175  0.00  0.00    +0.000 A 
ATOM      6  C   UNL     1      49.354   4.609  17.667  0.00  0.00    +0.000 A 
ENDROOT
BRANCH   1   7
ATOM      7  C   UNL     1      51.297   5.923  18.619  0.00  0.00    +0.000 C 
BRANCH   7  10
ATOM      8  O   UNL     1      49.836   6.655  20.895  0.00  0.00    +0.000 OA
ATOM      9  C   UNL     1      49.662   7.280  19.852  0.00  0.00    +0.000 C 
ATOM     10  N   UNL     1      50.335   6.997  18.681  0.00  0.00    +0.000 N 
ATOM     11  H   UNL     1      50.132   7.550  17.853  0.00  0.00    +0.000 HD
BRANCH   9  12
ATOM     12  C   UNL     1      48.683   8.404  19.795  0.00  0.00    +0.000 A 
ATOM     13  C   UNL     1      47.780   8.609  20.828  0.00  0.00    +0.000 A 
ATOM     14  C   UNL     1      46.877   9.659  20.713  0.00  0.00    +0.000 A 
ATOM     15  C   UNL     1      46.930  10.440  19.574  0.00  0.00    +0.000 A 
ATOM     16  N   UNL     1      47.824  10.225  18.584  0.00  0.00    +0.000 NA
ATOM     17  N   UNL     1      48.714   9.193  18.693  0.00  0.00    +0.000 NA
ENDBRANCH   9  12
ENDBRANCH   7  10
ENDBRANCH   1   7
BRANCH   5  18
ATOM     18  C   UNL     1      47.310   3.353  16.846  0.00  0.00    +0.000 C 
BRANCH  18  19
ATOM     19  N   UNL     1      46.907   4.369  15.910  0.00  0.00    +0.000 N 
ATOM     20  C   UNL     1      46.935   4.139  14.557  0.00  0.00    +0.000 C 
ATOM     21  O   UNL     1      47.271   3.054  14.085  0.00  0.00    +0.000 OA
ATOM     22  H   UNL     1      46.900   5.327  16.247  0.00  0.00    +0.000 HD
BRANCH  20  23
ATOM     23  C   UNL     1      46.480   5.239  13.695  0.00  0.00    +0.000 A 
ATOM     24  C   UNL     1      47.276   6.363  13.528  0.00  0.00    +0.000 A 
ATOM     25  S   UNL     1      46.619   7.513  12.452  0.00  0.00    +0.000 S 
ATOM     26  C   UNL     1      45.221   6.573  12.215  0.00  0.00    +0.000 A 
ATOM     27  N   UNL     1      44.213   7.004  11.412  0.00  0.00    +0.000 NA
ATOM     28  C   UNL     1      43.201   6.204  11.347  0.00  0.00    +0.000 A 
ATOM     29  N   UNL     1      43.109   5.006  12.010  0.00  0.00    +0.000 N 
ATOM     30  C   UNL     1      44.115   4.517  12.805  0.00  0.00    +0.000 A 
ATOM     31  O   UNL     1      44.020   3.419  13.347  0.00  0.00    +0.000 OA
ATOM     32  C   UNL     1      45.267   5.386  12.929  0.00  0.00    +0.000 A 
ATOM     33  H   UNL     1      42.294   4.421  11.910  0.00  0.00    +0.000 HD
ENDBRANCH  20  23
ENDBRANCH  18  19
ENDBRANCH   5  18
TORSDOF 6
ENDMDL
MODEL 9
REMARK VINA RESULT:    -7.293      4.675      9.148
REMARK INTER + INTRA:         -10.691
REMARK INTER:                  -8.372
REMARK INTRA:                  -2.319
REMARK UNBOUND:                -0.840
REMARK  Name = 
REMARK  6 active torsions:
REMARK  status: ('A' for Active; 'I' for Inactive)
REMARK    1  A    between atoms: C_2  and  C_25
REMARK    2  A    between atoms: N_3  and  C_4
REMARK    3  A    between atoms: C_4  and  C_5
REMARK    4  A    between atoms: C_9  and  C_10
REMARK    5  A    between atoms: C_10  and  N_11
REMARK    6  A    between atoms: C_12  and  C_14
REMARK                            x       y       z     vdW  Elec       q    Type
REMARK                         _______ _______ _______ _____ _____    ______ ____
ROOT
ATOM      1  C   UNL     1      50.952   4.325  17.736  0.00  0.00    +0.000 A 
ATOM      2  C   UNL     1      51.603   3.085  17.697  0.00  0.00    +0.000 A 
ATOM      3  C   UNL     1      50.914   1.937  17.303  0.00  0.00    +0.000 A 
ATOM      4  C   UNL     1      49.560   2.011  16.972  0.00  0.00    +0.000 A 
ATOM      5  C   UNL     1      48.873   3.230  17.046  0.00  0.00    +0.000 A 
ATOM      6  C   UNL     1      49.588   4.387  17.401  0.00  0.00    +0.000 A 
ENDROOT
BRANCH   1   7
ATOM      7  C   UNL     1      51.696   5.562  18.165  0.00  0.00    +0.000 C 
BRANCH   7  10
ATOM      8  O   UNL     1      50.058   7.373  19.538  0.00  0.00    +0.000 OA
ATOM      9  C   UNL     1      50.329   7.594  18.361  0.00  0.00    +0.000 C 
ATOM     10  N   UNL     1      51.129   6.764  17.602  0.00  0.00    +0.000 N 
ATOM     11  H   UNL     1      51.303   7.004  16.630  0.00  0.00    +0.000 HD
BRANCH   9  12
ATOM     12  C   UNL     1      49.789   8.801  17.670  0.00  0.00    +0.000 A 
ATOM     13  C   UNL     1      48.651   9.437  18.145  0.00  0.00    +0.000 A 
ATOM     14  C   UNL     1      48.180  10.545  17.450  0.00  0.00    +0.000 A 
ATOM     15  C   UNL     1      48.873  10.951  16.326  0.00  0.00    +0.000 A 
ATOM     16  N   UNL     1      49.983  10.318  15.887  0.00  0.00    +0.000 NA
ATOM     17  N   UNL     1      50.450   9.227  16.566  0.00  0.00    +0.000 NA
ENDBRANCH   9  12
ENDBRANCH   7  10
ENDBRANCH   1   7
BRANCH   5  18
ATOM     18  C   UNL     1      47.391   3.293  16.765  0.00  0.00    +0.000 C 
BRANCH  18  19
ATOM     19  N   UNL     1      47.041   4.392  15.903  0.00  0.00    +0.000 N 
ATOM     20  C   UNL     1      47.024   4.244  14.538  0.00  0.00    +0.000 C 
ATOM     21  O   UNL     1      47.272   3.171  13.993  0.00  0.00    +0.000 OA
ATOM     22  H   UNL     1      47.109   5.325  16.297  0.00  0.00    +0.000 HD
BRANCH  20  23
ATOM     23  C   UNL     1      46.631   5.425  13.756  0.00  0.00    +0.000 A 
ATOM     24  C   UNL     1      45.457   5.406  13.016  0.00  0.00    +0.000 A 
ATOM     25  S   UNL     1      45.129   6.879  12.217  0.00  0.00    +0.000 S 
ATOM     26  C   UNL     1      46.573   7.574  12.788  0.00  0.00    +0.000 A 
ATOM     27  N   UNL     1      46.928   8.839  12.441  0.00  0.00    +0.000 NA
ATOM     28  C   UNL     1      48.062   9.227  12.923  0.00  0.00    +0.000 A 
ATOM     29  N   UNL     1      48.872   8.465  13.725  0.00  0.00    +0.000 N 
ATOM     30  C   UNL     1      48.538   7.195  14.126  0.00  0.00    +0.000 A 
ATOM     31  O   UNL     1      49.264   6.556  14.884  0.00  0.00    +0.000 OA
ATOM     32  C   UNL     1      47.283   6.702  13.598  0.00  0.00    +0.000 A 
ATOM     33  H   UNL     1      49.743   8.830  14.078  0.00  0.00    +0.000 HD
ENDBRANCH  20  23
ENDBRANCH  18  19
ENDBRANCH   5  18
TORSDOF 6
ENDMDL
