MODEL 1
REMARK VINA RESULT:    -6.218      0.000      0.000
REMARK INTER + INTRA:          -8.151
REMARK INTER:                  -7.854
REMARK INTRA:                  -0.296
REMARK UNBOUND:                -0.296
REMARK  Name = 
REMARK  5 active torsions:
REMARK  status: ('A' for Active; 'I' for Inactive)
REMARK    1  A    between atoms: N_1  and  C_2
REMARK    2  A    between atoms: C_2  and  C_3
REMARK    3  A    between atoms: C_7  and  C_8
REMARK    4  A    between atoms: C_9  and  N_10
REMARK    5  A    between atoms: C_14  and  C_15
REMARK                            x       y       z     vdW  Elec       q    Type
REMARK                         _______ _______ _______ _____ _____    ______ ____
ROOT
ATOM      1  N   UNL     1      47.177   3.518  14.775  0.00  0.00    +0.000 N 
ATOM      2  C   UNL     1      46.354   3.925  13.722  0.00  0.00    +0.000 A 
ATOM      3  C   UNL     1      46.070   5.270  13.484  0.00  0.00    +0.000 A 
ATOM      4  C   UNL     1      45.193   5.624  12.457  0.00  0.00    +0.000 A 
ATOM      5  C   UNL     1      44.613   4.631  11.674  0.00  0.00    +0.000 A 
ATOM      6  C   UNL     1      44.978   3.321  11.952  0.00  0.00    +0.000 A 
ATOM      7  N   UNL     1      45.836   2.954  12.944  0.00  0.00    +0.000 NA
ATOM      8  H   UNL     1      47.343   2.518  14.770  0.00  0.00    +0.000 HD
ENDROOT
BRANCH   5   9
ATOM      9  C   UNL     1      43.663   5.027  10.611  0.00  0.00    +0.000 C 
ATOM     10  N   UNL     1      43.871   4.599   9.333  0.00  0.00    +0.000 N 
ATOM     11  O   UNL     1      42.684   5.722  10.866  0.00  0.00    +0.000 OA
ATOM     12  H   UNL     1      44.621   4.004   9.021  0.00  0.00    +0.000 HD
ATOM     13  H   UNL     1      43.182   4.880   8.648  0.00  0.00    +0.000 HD
ENDBRANCH   5   9
BRANCH   1  15
ATOM     14  C   UNL     1      47.398   3.737  17.195  0.00  0.00    +0.000 C 
ATOM     15  C   UNL     1      47.425   4.197  15.937  0.00  0.00    +0.000 C 
BRANCH  14  20
ATOM     16  C   UNL     1      49.270   5.184  20.139  0.00  0.00    +0.000 A 
ATOM     17  C   UNL     1      48.476   6.299  20.444  0.00  0.00    +0.000 A 
ATOM     18  C   UNL     1      47.306   6.551  19.733  0.00  0.00    +0.000 A 
ATOM     19  C   UNL     1      46.929   5.703  18.691  0.00  0.00    +0.000 A 
ATOM     20  C   UNL     1      47.725   4.604  18.339  0.00  0.00    +0.000 A 
ATOM     21  C   UNL     1      48.877   4.336  19.090  0.00  0.00    +0.000 A 
BRANCH  16  22
ATOM     22  C   UNL     1      50.560   4.936  20.879  0.00  0.00    +0.000 C 
BRANCH  22  23
ATOM     23  N   UNL     1      51.574   4.330  20.023  0.00  0.00    +0.000 NA
ATOM     24  H   UNL     1      51.155   3.556  19.512  0.00  0.00    +0.000 HD
ATOM     25  H   UNL     1      52.301   3.928  20.613  0.00  0.00    +0.000 HD
ENDBRANCH  22  23
ENDBRANCH  16  22
ENDBRANCH  14  20
ENDBRANCH   1  15
TORSDOF 5
ENDMDL
MODEL 2
REMARK VINA RESULT:    -6.200      2.490      2.953
REMARK INTER + INTRA:          -8.128
REMARK INTER:                  -7.817
REMARK INTRA:                  -0.310
REMARK UNBOUND:                -0.296
REMARK  Name = 
REMARK  5 active torsions:
REMARK  status: ('A' for Active; 'I' for Inactive)
REMARK    1  A    between atoms: N_1  and  C_2
REMARK    2  A    between atoms: C_2  and  C_3
REMARK    3  A    between atoms: C_7  and  C_8
REMARK    4  A    between atoms: C_9  and  N_10
REMARK    5  A    between atoms: C_14  and  C_15
REMARK                            x       y       z     vdW  Elec       q    Type
REMARK                         _______ _______ _______ _____ _____    ______ ____
ROOT
ATOM      1  N   UNL     1      46.642   3.530  14.329  0.00  0.00    +0.000 N 
ATOM      2  C   UNL     1      46.047   4.545  13.576  0.00  0.00    +0.000 A 
ATOM      3  C   UNL     1      46.766   5.658  13.136  0.00  0.00    +0.000 A 
ATOM      4  C   UNL     1      46.113   6.676  12.439  0.00  0.00    +0.000 A 
ATOM      5  C   UNL     1      44.750   6.571  12.183  0.00  0.00    +0.000 A 
ATOM      6  C   UNL     1      44.118   5.416  12.621  0.00  0.00    +0.000 A 
ATOM      7  N   UNL     1      44.735   4.408  13.297  0.00  0.00    +0.000 NA
ATOM      8  H   UNL     1      46.006   2.761  14.508  0.00  0.00    +0.000 HD
ENDROOT
BRANCH   5   9
ATOM      9  C   UNL     1      44.073   7.676  11.470  0.00  0.00    +0.000 C 
ATOM     10  N   UNL     1      42.779   7.521  11.070  0.00  0.00    +0.000 N 
ATOM     11  O   UNL     1      44.654   8.734  11.246  0.00  0.00    +0.000 OA
ATOM     12  H   UNL     1      42.201   6.711  11.227  0.00  0.00    +0.000 HD
ATOM     13  H   UNL     1      42.355   8.313  10.604  0.00  0.00    +0.000 HD
ENDBRANCH   5   9
BRANCH   1  15
ATOM     14  C   UNL     1      47.850   3.471  16.448  0.00  0.00    +0.000 C 
ATOM     15  C   UNL     1      47.752   3.635  15.122  0.00  0.00    +0.000 C 
BRANCH  14  20
ATOM     16  C   UNL     1      51.292   2.593  17.732  0.00  0.00    +0.000 A 
ATOM     17  C   UNL     1      51.671   3.800  18.339  0.00  0.00    +0.000 A 
ATOM     18  C   UNL     1      50.791   4.879  18.380  0.00  0.00    +0.000 A 
ATOM     19  C   UNL     1      49.531   4.771  17.793  0.00  0.00    +0.000 A 
ATOM     20  C   UNL     1      49.140   3.590  17.146  0.00  0.00    +0.000 A 
ATOM     21  C   UNL     1      50.017   2.497  17.148  0.00  0.00    +0.000 A 
BRANCH  16  22
ATOM     22  C   UNL     1      52.260   1.441  17.648  0.00  0.00    +0.000 C 
BRANCH  22  23
ATOM     23  N   UNL     1      51.666   0.192  18.110  0.00  0.00    +0.000 NA
ATOM     24  H   UNL     1      51.865   0.079  19.101  0.00  0.00    +0.000 HD
ATOM     25  H   UNL     1      52.124  -0.584  17.633  0.00  0.00    +0.000 HD
ENDBRANCH  22  23
ENDBRANCH  16  22
ENDBRANCH  14  20
ENDBRANCH   1  15
TORSDOF 5
ENDMDL
MODEL 3
REMARK VINA RESULT:    -6.117      1.493      2.019
REMARK INTER + INTRA:          -8.022
REMARK INTER:                  -7.672
REMARK INTRA:                  -0.350
REMARK UNBOUND:                -0.296
REMARK  Name = 
REMARK  5 active torsions:
REMARK  status: ('A' for Active; 'I' for Inactive)
REMARK    1  A    between atoms: N_1  and  C_2
REMARK    2  A    between atoms: C_2  and  C_3
REMARK    3  A    between atoms: C_7  and  C_8
REMARK    4  A    between atoms: C_9  and  N_10
REMARK    5  A    between atoms: C_14  and  C_15
REMARK                            x       y       z     vdW  Elec       q    Type
REMARK                         _______ _______ _______ _____ _____    ______ ____
ROOT
ATOM      1  N   UNL     1      47.310   3.309  14.689  0.00  0.00    +0.000 N 
ATOM      2  C   UNL     1      46.480   3.783  13.670  0.00  0.00    +0.000 A 
ATOM      3  C   UNL     1      46.263   5.146  13.467  0.00  0.00    +0.000 A 
ATOM      4  C   UNL     1      45.377   5.569  12.475  0.00  0.00    +0.000 A 
ATOM      5  C   UNL     1      44.720   4.627  11.691  0.00  0.00    +0.000 A 
ATOM      6  C   UNL     1      45.020   3.293  11.932  0.00  0.00    +0.000 A 
ATOM      7  N   UNL     1      45.885   2.858  12.890  0.00  0.00    +0.000 NA
ATOM      8  H   UNL     1      47.419   2.302  14.658  0.00  0.00    +0.000 HD
ENDROOT
BRANCH   5   9
ATOM      9  C   UNL     1      43.761   5.097  10.667  0.00  0.00    +0.000 C 
ATOM     10  N   UNL     1      43.961   4.762   9.360  0.00  0.00    +0.000 N 
ATOM     11  O   UNL     1      42.784   5.771  10.978  0.00  0.00    +0.000 OA
ATOM     12  H   UNL     1      44.709   4.192   9.000  0.00  0.00    +0.000 HD
ATOM     13  H   UNL     1      43.266   5.091   8.702  0.00  0.00    +0.000 HD
ENDBRANCH   5   9
BRANCH   1  15
ATOM     14  C   UNL     1      47.406   3.550  17.114  0.00  0.00    +0.000 C 
ATOM     15  C   UNL     1      47.630   3.948  15.855  0.00  0.00    +0.000 C 
BRANCH  14  20
ATOM     16  C   UNL     1      47.917   6.517  19.395  0.00  0.00    +0.000 A 
ATOM     17  C   UNL     1      48.545   5.911  20.493  0.00  0.00    +0.000 A 
ATOM     18  C   UNL     1      48.852   4.553  20.471  0.00  0.00    +0.000 A 
ATOM     19  C   UNL     1      48.512   3.781  19.361  0.00  0.00    +0.000 A 
ATOM     20  C   UNL     1      47.849   4.353  18.266  0.00  0.00    +0.000 A 
ATOM     21  C   UNL     1      47.584   5.728  18.281  0.00  0.00    +0.000 A 
BRANCH  16  22
ATOM     22  C   UNL     1      47.543   7.978  19.436  0.00  0.00    +0.000 C 
BRANCH  22  23
ATOM     23  N   UNL     1      47.481   8.564  18.102  0.00  0.00    +0.000 NA
ATOM     24  H   UNL     1      47.832   9.518  18.145  0.00  0.00    +0.000 HD
ATOM     25  H   UNL     1      46.504   8.628  17.819  0.00  0.00    +0.000 HD
ENDBRANCH  22  23
ENDBRANCH  16  22
ENDBRANCH  14  20
ENDBRANCH   1  15
TORSDOF 5
ENDMDL
MODEL 4
REMARK VINA RESULT:    -6.047      2.525      2.989
REMARK INTER + INTRA:          -7.934
REMARK INTER:                  -7.560
REMARK INTRA:                  -0.375
REMARK UNBOUND:                -0.296
REMARK  Name = 
REMARK  5 active torsions:
REMARK  status: ('A' for Active; 'I' for Inactive)
REMARK    1  A    between atoms: N_1  and  C_2
REMARK    2  A    between atoms: C_2  and  C_3
REMARK    3  A    between atoms: C_7  and  C_8
REMARK    4  A    between atoms: C_9  and  N_10
REMARK    5  A    between atoms: C_14  and  C_15
REMARK                            x       y       z     vdW  Elec       q    Type
REMARK                         _______ _______ _______ _____ _____    ______ ____
ROOT
ATOM      1  N   UNL     1      47.418   6.639  14.086  0.00  0.00    +0.000 N 
ATOM      2  C   UNL     1      46.543   5.970  13.227  0.00  0.00    +0.000 A 
ATOM      3  C   UNL     1      46.099   4.673  13.489  0.00  0.00    +0.000 A 
ATOM      4  C   UNL     1      45.274   4.023  12.570  0.00  0.00    +0.000 A 
ATOM      5  C   UNL     1      44.896   4.675  11.401  0.00  0.00    +0.000 A 
ATOM      6  C   UNL     1      45.351   5.976  11.235  0.00  0.00    +0.000 A 
ATOM      7  N   UNL     1      46.150   6.632  12.120  0.00  0.00    +0.000 NA
ATOM      8  H   UNL     1      47.588   7.595  13.793  0.00  0.00    +0.000 HD
ENDROOT
BRANCH   5   9
ATOM      9  C   UNL     1      44.047   3.955  10.426  0.00  0.00    +0.000 C 
ATOM     10  N   UNL     1      43.959   4.416   9.146  0.00  0.00    +0.000 N 
ATOM     11  O   UNL     1      43.432   2.943  10.751  0.00  0.00    +0.000 OA
ATOM     12  H   UNL     1      44.441   5.215   8.767  0.00  0.00    +0.000 HD
ATOM     13  H   UNL     1      43.381   3.876   8.514  0.00  0.00    +0.000 HD
ENDBRANCH   5   9
BRANCH   1  15
ATOM     14  C   UNL     1      48.529   6.395  16.244  0.00  0.00    +0.000 C 
ATOM     15  C   UNL     1      48.304   6.076  14.962  0.00  0.00    +0.000 C 
BRANCH  14  20
ATOM     16  C   UNL     1      50.578   3.536  17.619  0.00  0.00    +0.000 A 
ATOM     17  C   UNL     1      51.443   4.215  18.489  0.00  0.00    +0.000 A 
ATOM     18  C   UNL     1      51.326   5.591  18.672  0.00  0.00    +0.000 A 
ATOM     19  C   UNL     1      50.358   6.306  17.968  0.00  0.00    +0.000 A 
ATOM     20  C   UNL     1      49.506   5.659  17.062  0.00  0.00    +0.000 A 
ATOM     21  C   UNL     1      49.605   4.268  16.918  0.00  0.00    +0.000 A 
BRANCH  16  22
ATOM     22  C   UNL     1      50.733   2.054  17.386  0.00  0.00    +0.000 C 
BRANCH  22  23
ATOM     23  N   UNL     1      49.941   1.592  16.253  0.00  0.00    +0.000 NA
ATOM     24  H   UNL     1      49.890   0.576  16.278  0.00  0.00    +0.000 HD
ATOM     25  H   UNL     1      50.430   1.836  15.392  0.00  0.00    +0.000 HD
ENDBRANCH  22  23
ENDBRANCH  16  22
ENDBRANCH  14  20
ENDBRANCH   1  15
TORSDOF 5
ENDMDL
MODEL 5
REMARK VINA RESULT:    -5.789      3.032      8.369
REMARK INTER + INTRA:          -7.608
REMARK INTER:                  -7.290
REMARK INTRA:                  -0.318
REMARK UNBOUND:                -0.296
REMARK  Name = 
REMARK  5 active torsions:
REMARK  status: ('A' for Active; 'I' for Inactive)
REMARK    1  A    between atoms: N_1  and  C_2
REMARK    2  A    between atoms: C_2  and  C_3
REMARK    3  A    between atoms: C_7  and  C_8
REMARK    4  A    between atoms: C_9  and  N_10
REMARK    5  A    between atoms: C_14  and  C_15
REMARK                            x       y       z     vdW  Elec       q    Type
REMARK                         _______ _______ _______ _____ _____    ______ ____
ROOT
ATOM      1  N   UNL     1      47.647   3.232  15.213  0.00  0.00    +0.000 N 
ATOM      2  C   UNL     1      47.996   3.543  16.529  0.00  0.00    +0.000 A 
ATOM      3  C   UNL     1      47.202   4.363  17.331  0.00  0.00    +0.000 A 
ATOM      4  C   UNL     1      47.625   4.695  18.620  0.00  0.00    +0.000 A 
ATOM      5  C   UNL     1      48.833   4.199  19.097  0.00  0.00    +0.000 A 
ATOM      6  C   UNL     1      49.544   3.360  18.251  0.00  0.00    +0.000 A 
ATOM      7  N   UNL     1      49.149   3.018  16.993  0.00  0.00    +0.000 NA
ATOM      8  H   UNL     1      48.288   2.570  14.791  0.00  0.00    +0.000 HD
ENDROOT
BRANCH   5   9
ATOM      9  C   UNL     1      49.275   4.589  20.454  0.00  0.00    +0.000 C 
ATOM     10  N   UNL     1      50.603   4.555  20.760  0.00  0.00    +0.000 N 
ATOM     11  O   UNL     1      48.466   4.955  21.302  0.00  0.00    +0.000 OA
ATOM     12  H   UNL     1      51.352   4.301  20.136  0.00  0.00    +0.000 HD
ATOM     13  H   UNL     1      50.856   4.851  21.695  0.00  0.00    +0.000 HD
ENDBRANCH   5   9
BRANCH   1  15
ATOM     14  C   UNL     1      47.016   5.225  13.954  0.00  0.00    +0.000 C 
ATOM     15  C   UNL     1      46.849   3.964  14.378  0.00  0.00    +0.000 C 
BRANCH  14  20
ATOM     16  C   UNL     1      43.906   5.794  11.888  0.00  0.00    +0.000 A 
ATOM     17  C   UNL     1      44.161   7.068  11.360  0.00  0.00    +0.000 A 
ATOM     18  C   UNL     1      45.363   7.718  11.628  0.00  0.00    +0.000 A 
ATOM     19  C   UNL     1      46.313   7.112  12.448  0.00  0.00    +0.000 A 
ATOM     20  C   UNL     1      46.069   5.856  13.022  0.00  0.00    +0.000 A 
ATOM     21  C   UNL     1      44.875   5.193  12.710  0.00  0.00    +0.000 A 
BRANCH  16  22
ATOM     22  C   UNL     1      42.587   5.110  11.636  0.00  0.00    +0.000 C 
BRANCH  22  23
ATOM     23  N   UNL     1      42.753   3.690  11.346  0.00  0.00    +0.000 NA
ATOM     24  H   UNL     1      43.090   3.220  12.183  0.00  0.00    +0.000 HD
ATOM     25  H   UNL     1      43.482   3.584  10.641  0.00  0.00    +0.000 HD
ENDBRANCH  22  23
ENDBRANCH  16  22
ENDBRANCH  14  20
ENDBRANCH   1  15
TORSDOF 5
ENDMDL
MODEL 6
REMARK VINA RESULT:    -5.763      3.057      8.529
REMARK INTER + INTRA:          -7.576
REMARK INTER:                  -7.261
REMARK INTRA:                  -0.315
REMARK UNBOUND:                -0.296
REMARK  Name = 
REMARK  5 active torsions:
REMARK  status: ('A' for Active; 'I' for Inactive)
REMARK    1  A    between atoms: N_1  and  C_2
REMARK    2  A    between atoms: C_2  and  C_3
REMARK    3  A    between atoms: C_7  and  C_8
REMARK    4  A    between atoms: C_9  and  N_10
REMARK    5  A    between atoms: C_14  and  C_15
REMARK                            x       y       z     vdW  Elec       q    Type
REMARK                         _______ _______ _______ _____ _____    ______ ____
ROOT
ATOM      1  N   UNL     1      47.664   3.114  15.066  0.00  0.00    +0.000 N 
ATOM      2  C   UNL     1      48.029   3.453  16.371  0.00  0.00    +0.000 A 
ATOM      3  C   UNL     1      47.175   4.158  17.219  0.00  0.00    +0.000 A 
ATOM      4  C   UNL     1      47.608   4.528  18.493  0.00  0.00    +0.000 A 
ATOM      5  C   UNL     1      48.889   4.184  18.911  0.00  0.00    +0.000 A 
ATOM      6  C   UNL     1      49.662   3.449  18.023  0.00  0.00    +0.000 A 
ATOM      7  N   UNL     1      49.258   3.073  16.778  0.00  0.00    +0.000 NA
ATOM      8  H   UNL     1      48.364   2.542  14.607  0.00  0.00    +0.000 HD
ENDROOT
BRANCH   5   9
ATOM      9  C   UNL     1      49.338   4.612  20.254  0.00  0.00    +0.000 C 
ATOM     10  N   UNL     1      50.670   4.606  20.548  0.00  0.00    +0.000 N 
ATOM     11  O   UNL     1      48.532   4.986  21.101  0.00  0.00    +0.000 OA
ATOM     12  H   UNL     1      51.415   4.348  19.922  0.00  0.00    +0.000 HD
ATOM     13  H   UNL     1      50.927   4.927  21.473  0.00  0.00    +0.000 HD
ENDBRANCH   5   9
BRANCH   1  15
ATOM     14  C   UNL     1      46.251   3.361  13.093  0.00  0.00    +0.000 C 
ATOM     15  C   UNL     1      46.744   3.748  14.277  0.00  0.00    +0.000 C 
BRANCH  14  20
ATOM     16  C   UNL     1      44.470   6.336  11.595  0.00  0.00    +0.000 A 
ATOM     17  C   UNL     1      43.401   5.710  10.938  0.00  0.00    +0.000 A 
ATOM     18  C   UNL     1      43.225   4.331  11.027  0.00  0.00    +0.000 A 
ATOM     19  C   UNL     1      44.132   3.560  11.753  0.00  0.00    +0.000 A 
ATOM     20  C   UNL     1      45.233   4.155  12.386  0.00  0.00    +0.000 A 
ATOM     21  C   UNL     1      45.374   5.547  12.326  0.00  0.00    +0.000 A 
BRANCH  16  22
ATOM     22  C   UNL     1      44.686   7.822  11.462  0.00  0.00    +0.000 C 
BRANCH  22  23
ATOM     23  N   UNL     1      43.509   8.502  10.935  0.00  0.00    +0.000 NA
ATOM     24  H   UNL     1      42.759   7.823  10.821  0.00  0.00    +0.000 HD
ATOM     25  H   UNL     1      43.725   8.854  10.003  0.00  0.00    +0.000 HD
ENDBRANCH  22  23
ENDBRANCH  16  22
ENDBRANCH  14  20
ENDBRANCH   1  15
TORSDOF 5
ENDMDL
MODEL 7
REMARK VINA RESULT:    -5.377      3.035      3.466
REMARK INTER + INTRA:          -7.088
REMARK INTER:                  -6.739
REMARK INTRA:                  -0.349
REMARK UNBOUND:                -0.296
REMARK  Name = 
REMARK  5 active torsions:
REMARK  status: ('A' for Active; 'I' for Inactive)
REMARK    1  A    between atoms: N_1  and  C_2
REMARK    2  A    between atoms: C_2  and  C_3
REMARK    3  A    between atoms: C_7  and  C_8
REMARK    4  A    between atoms: C_9  and  N_10
REMARK    5  A    between atoms: C_14  and  C_15
REMARK                            x       y       z     vdW  Elec       q    Type
REMARK                         _______ _______ _______ _____ _____    ______ ____
ROOT
ATOM      1  N   UNL     1      47.320   7.111  13.916  0.00  0.00    +0.000 N 
ATOM      2  C   UNL     1      46.500   6.164  13.298  0.00  0.00    +0.000 A 
ATOM      3  C   UNL     1      46.592   4.803  13.590  0.00  0.00    +0.000 A 
ATOM      4  C   UNL     1      45.793   3.889  12.901  0.00  0.00    +0.000 A 
ATOM      5  C   UNL     1      44.906   4.343  11.932  0.00  0.00    +0.000 A 
ATOM      6  C   UNL     1      44.848   5.715  11.729  0.00  0.00    +0.000 A 
ATOM      7  N   UNL     1      45.613   6.625  12.393  0.00  0.00    +0.000 NA
ATOM      8  H   UNL     1      47.081   8.060  13.650  0.00  0.00    +0.000 HD
ENDROOT
BRANCH   5   9
ATOM      9  C   UNL     1      44.092   3.353  11.192  0.00  0.00    +0.000 C 
ATOM     10  N   UNL     1      43.514   2.321  11.870  0.00  0.00    +0.000 N 
ATOM     11  O   UNL     1      43.918   3.456   9.981  0.00  0.00    +0.000 OA
ATOM     12  H   UNL     1      43.566   2.159  12.863  0.00  0.00    +0.000 HD
ATOM     13  H   UNL     1      42.950   1.684  11.322  0.00  0.00    +0.000 HD
ENDBRANCH   5   9
BRANCH   1  15
ATOM     14  C   UNL     1      48.877   6.757  15.761  0.00  0.00    +0.000 C 
ATOM     15  C   UNL     1      48.553   6.898  14.468  0.00  0.00    +0.000 C 
BRANCH  14  20
ATOM     16  C   UNL     1      51.824   5.158  17.499  0.00  0.00    +0.000 A 
ATOM     17  C   UNL     1      52.892   5.866  16.928  0.00  0.00    +0.000 A 
ATOM     18  C   UNL     1      52.655   6.897  16.023  0.00  0.00    +0.000 A 
ATOM     19  C   UNL     1      51.347   7.216  15.659  0.00  0.00    +0.000 A 
ATOM     20  C   UNL     1      50.263   6.499  16.184  0.00  0.00    +0.000 A 
ATOM     21  C   UNL     1      50.511   5.492  17.126  0.00  0.00    +0.000 A 
BRANCH  16  22
ATOM     22  C   UNL     1      52.082   4.012  18.444  0.00  0.00    +0.000 C 
BRANCH  22  23
ATOM     23  N   UNL     1      51.390   4.185  19.716  0.00  0.00    +0.000 NA
ATOM     24  H   UNL     1      52.013   4.655  20.369  0.00  0.00    +0.000 HD
ATOM     25  H   UNL     1      51.198   3.265  20.111  0.00  0.00    +0.000 HD
ENDBRANCH  22  23
ENDBRANCH  16  22
ENDBRANCH  14  20
ENDBRANCH   1  15
TORSDOF 5
ENDMDL
MODEL 8
REMARK VINA RESULT:    -5.341      3.276      8.860
REMARK INTER + INTRA:          -7.042
REMARK INTER:                  -6.752
REMARK INTRA:                  -0.290
REMARK UNBOUND:                -0.296
REMARK  Name = 
REMARK  5 active torsions:
REMARK  status: ('A' for Active; 'I' for Inactive)
REMARK    1  A    between atoms: N_1  and  C_2
REMARK    2  A    between atoms: C_2  and  C_3
REMARK    3  A    between atoms: C_7  and  C_8
REMARK    4  A    between atoms: C_9  and  N_10
REMARK    5  A    between atoms: C_14  and  C_15
REMARK                            x       y       z     vdW  Elec       q    Type
REMARK                         _______ _______ _______ _____ _____    ______ ____
ROOT
ATOM      1  N   UNL     1      48.194   6.227  14.731  0.00  0.00    +0.000 N 
ATOM      2  C   UNL     1      48.483   5.993  16.078  0.00  0.00    +0.000 A 
ATOM      3  C   UNL     1      47.937   4.914  16.775  0.00  0.00    +0.000 A 
ATOM      4  C   UNL     1      48.207   4.757  18.135  0.00  0.00    +0.000 A 
ATOM      5  C   UNL     1      49.023   5.676  18.786  0.00  0.00    +0.000 A 
ATOM      6  C   UNL     1      49.555   6.699  18.013  0.00  0.00    +0.000 A 
ATOM      7  N   UNL     1      49.312   6.868  16.684  0.00  0.00    +0.000 NA
ATOM      8  H   UNL     1      48.723   7.005  14.354  0.00  0.00    +0.000 HD
ENDROOT
BRANCH   5   9
ATOM      9  C   UNL     1      49.270   5.508  20.235  0.00  0.00    +0.000 C 
ATOM     10  N   UNL     1      49.403   4.253  20.750  0.00  0.00    +0.000 N 
ATOM     11  O   UNL     1      49.369   6.482  20.976  0.00  0.00    +0.000 OA
ATOM     12  H   UNL     1      49.370   3.391  20.231  0.00  0.00    +0.000 HD
ATOM     13  H   UNL     1      49.591   4.193  21.743  0.00  0.00    +0.000 HD
ENDBRANCH   5   9
BRANCH   1  15
ATOM     14  C   UNL     1      46.661   6.211  12.834  0.00  0.00    +0.000 C 
ATOM     15  C   UNL     1      47.083   5.822  14.045  0.00  0.00    +0.000 C 
BRANCH  14  20
ATOM     16  C   UNL     1      44.369   4.647  10.272  0.00  0.00    +0.000 A 
ATOM     17  C   UNL     1      43.213   4.433  11.036  0.00  0.00    +0.000 A 
ATOM     18  C   UNL     1      43.156   4.845  12.365  0.00  0.00    +0.000 A 
ATOM     19  C   UNL     1      44.265   5.454  12.952  0.00  0.00    +0.000 A 
ATOM     20  C   UNL     1      45.448   5.645  12.222  0.00  0.00    +0.000 A 
ATOM     21  C   UNL     1      45.478   5.265  10.874  0.00  0.00    +0.000 A 
BRANCH  16  22
ATOM     22  C   UNL     1      44.447   4.160   8.847  0.00  0.00    +0.000 C 
BRANCH  22  23
ATOM     23  N   UNL     1      44.321   2.710   8.756  0.00  0.00    +0.000 NA
ATOM     24  H   UNL     1      45.228   2.288   8.946  0.00  0.00    +0.000 HD
ATOM     25  H   UNL     1      44.082   2.462   7.797  0.00  0.00    +0.000 HD
ENDBRANCH  22  23
ENDBRANCH  16  22
ENDBRANCH  14  20
ENDBRANCH   1  15
TORSDOF 5
ENDMDL
MODEL 9
REMARK VINA RESULT:    -5.155      3.594      8.738
REMARK INTER + INTRA:          -6.808
REMARK INTER:                  -6.496
REMARK INTRA:                  -0.311
REMARK UNBOUND:                -0.296
REMARK  Name = 
REMARK  5 active torsions:
REMARK  status: ('A' for Active; 'I' for Inactive)
REMARK    1  A    between atoms: N_1  and  C_2
REMARK    2  A    between atoms: C_2  and  C_3
REMARK    3  A    between atoms: C_7  and  C_8
REMARK    4  A    between atoms: C_9  and  N_10
REMARK    5  A    between atoms: C_14  and  C_15
REMARK                            x       y       z     vdW  Elec       q    Type
REMARK                         _______ _______ _______ _____ _____    ______ ____
ROOT
ATOM      1  N   UNL     1      47.623   4.204  16.813  0.00  0.00    +0.000 N 
ATOM      2  C   UNL     1      48.461   4.983  17.615  0.00  0.00    +0.000 A 
ATOM      3  C   UNL     1      48.492   6.375  17.518  0.00  0.00    +0.000 A 
ATOM      4  C   UNL     1      49.390   7.106  18.297  0.00  0.00    +0.000 A 
ATOM      5  C   UNL     1      50.245   6.441  19.169  0.00  0.00    +0.000 A 
ATOM      6  C   UNL     1      50.124   5.060  19.233  0.00  0.00    +0.000 A 
ATOM      7  N   UNL     1      49.251   4.327  18.488  0.00  0.00    +0.000 NA
ATOM      8  H   UNL     1      47.666   3.220  17.055  0.00  0.00    +0.000 HD
ENDROOT
BRANCH   5   9
ATOM      9  C   UNL     1      51.210   7.234  19.962  0.00  0.00    +0.000 C 
ATOM     10  N   UNL     1      51.197   8.594  19.868  0.00  0.00    +0.000 N 
ATOM     11  O   UNL     1      52.012   6.686  20.713  0.00  0.00    +0.000 OA
ATOM     12  H   UNL     1      50.565   9.145  19.309  0.00  0.00    +0.000 HD
ATOM     13  H   UNL     1      51.863   9.091  20.446  0.00  0.00    +0.000 HD
ENDBRANCH   5   9
BRANCH   1  15
ATOM     14  C   UNL     1      47.014   3.775  14.490  0.00  0.00    +0.000 C 
ATOM     15  C   UNL     1      47.112   4.536  15.589  0.00  0.00    +0.000 C 
BRANCH  14  20
ATOM     16  C   UNL     1      44.819   3.955  11.421  0.00  0.00    +0.000 A 
ATOM     17  C   UNL     1      45.096   5.252  10.965  0.00  0.00    +0.000 A 
ATOM     18  C   UNL     1      46.034   6.047  11.618  0.00  0.00    +0.000 A 
ATOM     19  C   UNL     1      46.688   5.563  12.751  0.00  0.00    +0.000 A 
ATOM     20  C   UNL     1      46.401   4.285  13.253  0.00  0.00    +0.000 A 
ATOM     21  C   UNL     1      45.488   3.478  12.562  0.00  0.00    +0.000 A 
BRANCH  16  22
ATOM     22  C   UNL     1      43.771   3.111  10.741  0.00  0.00    +0.000 C 
BRANCH  22  23
ATOM     23  N   UNL     1      43.062   2.255  11.685  0.00  0.00    +0.000 NA
ATOM     24  H   UNL     1      43.420   2.427  12.621  0.00  0.00    +0.000 HD
ATOM     25  H   UNL     1      43.275   1.282  11.467  0.00  0.00    +0.000 HD
ENDBRANCH  22  23
ENDBRANCH  16  22
ENDBRANCH  14  20
ENDBRANCH   1  15
TORSDOF 5
ENDMDL
