MODEL 1
REMARK VINA RESULT:    -8.322      0.000      0.000
REMARK INTER + INTRA:         -11.599
REMARK INTER:                 -10.754
REMARK INTRA:                  -0.845
REMARK UNBOUND:                -0.845
REMARK  Name = 
REMARK  5 active torsions:
REMARK  status: ('A' for Active; 'I' for Inactive)
REMARK    1  A    between atoms: C_2  and  C_4
REMARK    2  A    between atoms: C_7  and  O_8
REMARK    3  A    between atoms: O_8  and  C_9
REMARK    4  A    between atoms: C_9  and  C_10
REMARK    5  A    between atoms: C_15  and  N_16
REMARK                            x       y       z     vdW  Elec       q    Type
REMARK                         _______ _______ _______ _____ _____    ______ ____
ROOT
ATOM      1  C   UNL     1      44.861   4.775  12.032  0.00  0.00    +0.000 A 
ATOM      2  C   UNL     1      45.856   4.105  12.736  0.00  0.00    +0.000 A 
ATOM      3  F   UNL     1      45.804   2.772  12.870  0.00  0.00    +0.000 F 
ATOM      4  C   UNL     1      46.915   4.792  13.315  0.00  0.00    +0.000 A 
ATOM      5  C   UNL     1      46.996   6.177  13.174  0.00  0.00    +0.000 A 
ATOM      6  C   UNL     1      46.036   6.899  12.443  0.00  0.00    +0.000 A 
ATOM      7  C   UNL     1      44.966   6.163  11.891  0.00  0.00    +0.000 A 
ATOM      8  F   UNL     1      43.994   6.804  11.220  0.00  0.00    +0.000 F 
ENDROOT
BRANCH   6   9
ATOM      9  N   UNL     1      46.248   8.258  12.239  0.00  0.00    +0.000 N 
ATOM     10  C   UNL     1      45.196   9.224  12.602  0.00  0.00    +0.000 C 
ATOM     11  C   UNL     1      45.435  10.513  11.796  0.00  0.00    +0.000 C 
ATOM     12  O   UNL     1      46.741  11.061  12.058  0.00  0.00    +0.000 OA
ATOM     13  C   UNL     1      47.766  10.107  11.719  0.00  0.00    +0.000 C 
ATOM     14  C   UNL     1      47.599   8.791  12.499  0.00  0.00    +0.000 C 
ENDBRANCH   6   9
BRANCH   1  15
ATOM     15  C   UNL     1      43.730   4.020  11.400  0.00  0.00    +0.000 C 
BRANCH  15  16
ATOM     16  O   UNL     1      43.733   4.287   9.999  0.00  0.00    +0.000 OA
BRANCH  16  20
ATOM     17  C   UNL     1      46.524   2.375   7.557  0.00  0.00    +0.000 A 
ATOM     18  C   UNL     1      45.781   1.600   8.452  0.00  0.00    +0.000 A 
ATOM     19  C   UNL     1      44.833   2.203   9.287  0.00  0.00    +0.000 A 
ATOM     20  C   UNL     1      44.625   3.584   9.238  0.00  0.00    +0.000 A 
ATOM     21  C   UNL     1      45.381   4.356   8.352  0.00  0.00    +0.000 A 
ATOM     22  C   UNL     1      46.332   3.760   7.518  0.00  0.00    +0.000 A 
BRANCH  17  24
ATOM     23  N   UNL     1      48.672   2.499   6.414  0.00  0.00    +0.000 N 
ATOM     24  C   UNL     1      47.539   1.771   6.654  0.00  0.00    +0.000 C 
ATOM     25  O   UNL     1      47.395   0.654   6.176  0.00  0.00    +0.000 OA
ATOM     26  H   UNL     1      49.400   2.029   5.891  0.00  0.00    +0.000 HD
ATOM     27  H   UNL     1      48.941   3.285   6.987  0.00  0.00    +0.000 HD
ENDBRANCH  17  24
ENDBRANCH  16  20
ENDBRANCH  15  16
ENDBRANCH   1  15
TORSDOF 5
ENDMDL
MODEL 2
REMARK VINA RESULT:    -8.229      2.181      3.341
REMARK INTER + INTRA:         -11.480
REMARK INTER:                 -11.251
REMARK INTRA:                  -0.228
REMARK UNBOUND:                -0.845
REMARK  Name = 
REMARK  5 active torsions:
REMARK  status: ('A' for Active; 'I' for Inactive)
REMARK    1  A    between atoms: C_2  and  C_4
REMARK    2  A    between atoms: C_7  and  O_8
REMARK    3  A    between atoms: O_8  and  C_9
REMARK    4  A    between atoms: C_9  and  C_10
REMARK    5  A    between atoms: C_15  and  N_16
REMARK                            x       y       z     vdW  Elec       q    Type
REMARK                         _______ _______ _______ _____ _____    ______ ____
ROOT
ATOM      1  C   UNL     1      44.502   4.360  11.861  0.00  0.00    +0.000 A 
ATOM      2  C   UNL     1      43.883   5.554  11.508  0.00  0.00    +0.000 A 
ATOM      3  F   UNL     1      42.808   5.543  10.706  0.00  0.00    +0.000 F 
ATOM      4  C   UNL     1      44.359   6.775  11.968  0.00  0.00    +0.000 A 
ATOM      5  C   UNL     1      45.466   6.807  12.815  0.00  0.00    +0.000 A 
ATOM      6  C   UNL     1      46.107   5.628  13.231  0.00  0.00    +0.000 A 
ATOM      7  C   UNL     1      45.604   4.412  12.722  0.00  0.00    +0.000 A 
ATOM      8  F   UNL     1      46.204   3.254  13.048  0.00  0.00    +0.000 F 
ENDROOT
BRANCH   6   9
ATOM      9  N   UNL     1      47.125   5.729  14.174  0.00  0.00    +0.000 N 
ATOM     10  C   UNL     1      47.379   4.608  15.097  0.00  0.00    +0.000 C 
ATOM     11  C   UNL     1      48.117   5.163  16.327  0.00  0.00    +0.000 C 
ATOM     12  O   UNL     1      49.351   5.805  15.955  0.00  0.00    +0.000 OA
ATOM     13  C   UNL     1      49.099   6.889  15.039  0.00  0.00    +0.000 C 
ATOM     14  C   UNL     1      48.373   6.406  13.772  0.00  0.00    +0.000 C 
ENDBRANCH   6   9
BRANCH   1  15
ATOM     15  C   UNL     1      43.971   3.047  11.369  0.00  0.00    +0.000 C 
BRANCH  15  16
ATOM     16  O   UNL     1      43.609   3.189   9.997  0.00  0.00    +0.000 OA
BRANCH  16  20
ATOM     17  C   UNL     1      46.643   2.313   7.269  0.00  0.00    +0.000 A 
ATOM     18  C   UNL     1      46.110   3.606   7.279  0.00  0.00    +0.000 A 
ATOM     19  C   UNL     1      45.092   3.940   8.181  0.00  0.00    +0.000 A 
ATOM     20  C   UNL     1      44.597   2.985   9.073  0.00  0.00    +0.000 A 
ATOM     21  C   UNL     1      45.123   1.691   9.048  0.00  0.00    +0.000 A 
ATOM     22  C   UNL     1      46.137   1.350   8.147  0.00  0.00    +0.000 A 
BRANCH  17  24
ATOM     23  N   UNL     1      48.882   2.647   6.370  0.00  0.00    +0.000 N 
ATOM     24  C   UNL     1      47.724   1.921   6.327  0.00  0.00    +0.000 C 
ATOM     25  O   UNL     1      47.607   0.966   5.571  0.00  0.00    +0.000 OA
ATOM     26  H   UNL     1      49.646   2.299   5.804  0.00  0.00    +0.000 HD
ATOM     27  H   UNL     1      49.111   3.255   7.142  0.00  0.00    +0.000 HD
ENDBRANCH  17  24
ENDBRANCH  16  20
ENDBRANCH  15  16
ENDBRANCH   1  15
TORSDOF 5
ENDMDL
MODEL 3
REMARK VINA RESULT:    -7.281      2.308      6.769
REMARK INTER + INTRA:         -10.254
REMARK INTER:                  -9.277
REMARK INTRA:                  -0.977
REMARK UNBOUND:                -0.845
REMARK  Name = 
REMARK  5 active torsions:
REMARK  status: ('A' for Active; 'I' for Inactive)
REMARK    1  A    between atoms: C_2  and  C_4
REMARK    2  A    between atoms: C_7  and  O_8
REMARK    3  A    between atoms: O_8  and  C_9
REMARK    4  A    between atoms: C_9  and  C_10
REMARK    5  A    between atoms: C_15  and  N_16
REMARK                            x       y       z     vdW  Elec       q    Type
REMARK                         _______ _______ _______ _____ _____    ______ ____
ROOT
ATOM      1  C   UNL     1      44.237   5.219  11.178  0.00  0.00    +0.000 A 
ATOM      2  C   UNL     1      43.364   4.331  11.797  0.00  0.00    +0.000 A 
ATOM      3  F   UNL     1      42.561   4.755  12.784  0.00  0.00    +0.000 F 
ATOM      4  C   UNL     1      43.305   2.997  11.416  0.00  0.00    +0.000 A 
ATOM      5  C   UNL     1      44.121   2.539  10.381  0.00  0.00    +0.000 A 
ATOM      6  C   UNL     1      44.996   3.403   9.700  0.00  0.00    +0.000 A 
ATOM      7  C   UNL     1      45.038   4.744  10.133  0.00  0.00    +0.000 A 
ATOM      8  F   UNL     1      45.888   5.607   9.549  0.00  0.00    +0.000 F 
ENDROOT
BRANCH   6   9
ATOM      9  N   UNL     1      45.686   2.906   8.598  0.00  0.00    +0.000 N 
ATOM     10  C   UNL     1      45.871   1.452   8.448  0.00  0.00    +0.000 C 
ATOM     11  C   UNL     1      47.078   1.219   7.522  0.00  0.00    +0.000 C 
ATOM     12  O   UNL     1      46.883   1.844   6.238  0.00  0.00    +0.000 OA
ATOM     13  C   UNL     1      46.684   3.262   6.393  0.00  0.00    +0.000 C 
ATOM     14  C   UNL     1      45.481   3.574   7.299  0.00  0.00    +0.000 C 
ENDBRANCH   6   9
BRANCH   1  15
ATOM     15  C   UNL     1      44.281   6.660  11.588  0.00  0.00    +0.000 C 
BRANCH  15  16
ATOM     16  O   UNL     1      45.087   6.775  12.760  0.00  0.00    +0.000 OA
BRANCH  16  20
ATOM     17  C   UNL     1      49.110   7.790  12.321  0.00  0.00    +0.000 A 
ATOM     18  C   UNL     1      48.142   8.732  11.958  0.00  0.00    +0.000 A 
ATOM     19  C   UNL     1      46.782   8.430  12.092  0.00  0.00    +0.000 A 
ATOM     20  C   UNL     1      46.379   7.186  12.584  0.00  0.00    +0.000 A 
ATOM     21  C   UNL     1      47.351   6.244  12.932  0.00  0.00    +0.000 A 
ATOM     22  C   UNL     1      48.711   6.537  12.796  0.00  0.00    +0.000 A 
BRANCH  17  24
ATOM     23  N   UNL     1      51.238   7.431  11.193  0.00  0.00    +0.000 N 
ATOM     24  C   UNL     1      50.564   8.074  12.194  0.00  0.00    +0.000 C 
ATOM     25  O   UNL     1      51.132   8.876  12.921  0.00  0.00    +0.000 OA
ATOM     26  H   UNL     1      52.198   7.718  11.047  0.00  0.00    +0.000 HD
ATOM     27  H   UNL     1      50.764   6.979  10.425  0.00  0.00    +0.000 HD
ENDBRANCH  17  24
ENDBRANCH  16  20
ENDBRANCH  15  16
ENDBRANCH   1  15
TORSDOF 5
ENDMDL
MODEL 4
REMARK VINA RESULT:    -6.993      1.903      3.069
REMARK INTER + INTRA:          -9.882
REMARK INTER:                  -9.183
REMARK INTRA:                  -0.698
REMARK UNBOUND:                -0.845
REMARK  Name = 
REMARK  5 active torsions:
REMARK  status: ('A' for Active; 'I' for Inactive)
REMARK    1  A    between atoms: C_2  and  C_4
REMARK    2  A    between atoms: C_7  and  O_8
REMARK    3  A    between atoms: O_8  and  C_9
REMARK    4  A    between atoms: C_9  and  C_10
REMARK    5  A    between atoms: C_15  and  N_16
REMARK                            x       y       z     vdW  Elec       q    Type
REMARK                         _______ _______ _______ _____ _____    ______ ____
ROOT
ATOM      1  C   UNL     1      45.264   5.965  11.960  0.00  0.00    +0.000 A 
ATOM      2  C   UNL     1      44.525   7.097  11.637  0.00  0.00    +0.000 A 
ATOM      3  F   UNL     1      43.259   6.975  11.211  0.00  0.00    +0.000 F 
ATOM      4  C   UNL     1      45.073   8.369  11.740  0.00  0.00    +0.000 A 
ATOM      5  C   UNL     1      46.383   8.519  12.196  0.00  0.00    +0.000 A 
ATOM      6  C   UNL     1      47.163   7.410  12.568  0.00  0.00    +0.000 A 
ATOM      7  C   UNL     1      46.573   6.136  12.427  0.00  0.00    +0.000 A 
ATOM      8  F   UNL     1      47.284   5.036  12.725  0.00  0.00    +0.000 F 
ENDROOT
BRANCH   6   9
ATOM      9  N   UNL     1      48.414   7.643  13.130  0.00  0.00    +0.000 N 
ATOM     10  C   UNL     1      49.284   8.691  12.566  0.00  0.00    +0.000 C 
ATOM     11  C   UNL     1      50.734   8.374  12.970  0.00  0.00    +0.000 C 
ATOM     12  O   UNL     1      50.878   8.308  14.402  0.00  0.00    +0.000 OA
ATOM     13  C   UNL     1      50.012   7.295  14.950  0.00  0.00    +0.000 C 
ATOM     14  C   UNL     1      48.538   7.553  14.598  0.00  0.00    +0.000 C 
ENDBRANCH   6   9
BRANCH   1  15
ATOM     15  C   UNL     1      44.657   4.598  11.857  0.00  0.00    +0.000 C 
BRANCH  15  16
ATOM     16  O   UNL     1      44.085   4.452  10.558  0.00  0.00    +0.000 OA
BRANCH  16  20
ATOM     17  C   UNL     1      46.574   2.893   7.594  0.00  0.00    +0.000 A 
ATOM     18  C   UNL     1      46.452   4.282   7.698  0.00  0.00    +0.000 A 
ATOM     19  C   UNL     1      45.628   4.845   8.681  0.00  0.00    +0.000 A 
ATOM     20  C   UNL     1      44.918   4.024   9.561  0.00  0.00    +0.000 A 
ATOM     21  C   UNL     1      45.032   2.637   9.443  0.00  0.00    +0.000 A 
ATOM     22  C   UNL     1      45.850   2.069   8.461  0.00  0.00    +0.000 A 
BRANCH  17  24
ATOM     23  N   UNL     1      47.412   2.801   5.309  0.00  0.00    +0.000 N 
ATOM     24  C   UNL     1      47.438   2.259   6.564  0.00  0.00    +0.000 C 
ATOM     25  O   UNL     1      48.175   1.319   6.829  0.00  0.00    +0.000 OA
ATOM     26  H   UNL     1      48.087   2.432   4.650  0.00  0.00    +0.000 HD
ATOM     27  H   UNL     1      47.031   3.717   5.123  0.00  0.00    +0.000 HD
ENDBRANCH  17  24
ENDBRANCH  16  20
ENDBRANCH  15  16
ENDBRANCH   1  15
TORSDOF 5
ENDMDL
MODEL 5
REMARK VINA RESULT:    -6.522      3.869      6.111
REMARK INTER + INTRA:          -9.274
REMARK INTER:                  -8.227
REMARK INTRA:                  -1.047
REMARK UNBOUND:                -0.845
REMARK  Name = 
REMARK  5 active torsions:
REMARK  status: ('A' for Active; 'I' for Inactive)
REMARK    1  A    between atoms: C_2  and  C_4
REMARK    2  A    between atoms: C_7  and  O_8
REMARK    3  A    between atoms: O_8  and  C_9
REMARK    4  A    between atoms: C_9  and  C_10
REMARK    5  A    between atoms: C_15  and  N_16
REMARK                            x       y       z     vdW  Elec       q    Type
REMARK                         _______ _______ _______ _____ _____    ______ ____
ROOT
ATOM      1  C   UNL     1      48.085   7.732  13.827  0.00  0.00    +0.000 A 
ATOM      2  C   UNL     1      48.335   8.895  14.547  0.00  0.00    +0.000 A 
ATOM      3  F   UNL     1      48.185  10.093  13.964  0.00  0.00    +0.000 F 
ATOM      4  C   UNL     1      48.748   8.846  15.872  0.00  0.00    +0.000 A 
ATOM      5  C   UNL     1      48.896   7.610  16.502  0.00  0.00    +0.000 A 
ATOM      6  C   UNL     1      48.622   6.406  15.831  0.00  0.00    +0.000 A 
ATOM      7  C   UNL     1      48.227   6.502  14.480  0.00  0.00    +0.000 A 
ATOM      8  F   UNL     1      47.995   5.383  13.772  0.00  0.00    +0.000 F 
ENDROOT
BRANCH   6   9
ATOM      9  N   UNL     1      48.671   5.221  16.557  0.00  0.00    +0.000 N 
ATOM     10  C   UNL     1      49.838   4.936  17.412  0.00  0.00    +0.000 C 
ATOM     11  C   UNL     1      49.904   3.415  17.634  0.00  0.00    +0.000 C 
ATOM     12  O   UNL     1      48.695   2.919  18.241  0.00  0.00    +0.000 OA
ATOM     13  C   UNL     1      47.556   3.217  17.410  0.00  0.00    +0.000 C 
ATOM     14  C   UNL     1      47.416   4.727  17.154  0.00  0.00    +0.000 C 
ENDBRANCH   6   9
BRANCH   1  15
ATOM     15  C   UNL     1      47.627   7.798  12.401  0.00  0.00    +0.000 C 
BRANCH  15  16
ATOM     16  O   UNL     1      46.201   7.791  12.381  0.00  0.00    +0.000 OA
BRANCH  16  20
ATOM     17  C   UNL     1      44.445   4.141  11.380  0.00  0.00    +0.000 A 
ATOM     18  C   UNL     1      44.226   4.656  12.661  0.00  0.00    +0.000 A 
ATOM     19  C   UNL     1      44.796   5.879  13.035  0.00  0.00    +0.000 A 
ATOM     20  C   UNL     1      45.592   6.592  12.134  0.00  0.00    +0.000 A 
ATOM     21  C   UNL     1      45.820   6.065  10.860  0.00  0.00    +0.000 A 
ATOM     22  C   UNL     1      45.257   4.842  10.482  0.00  0.00    +0.000 A 
BRANCH  17  24
ATOM     23  N   UNL     1      44.472   2.198   9.911  0.00  0.00    +0.000 N 
ATOM     24  C   UNL     1      43.857   2.846  10.946  0.00  0.00    +0.000 C 
ATOM     25  O   UNL     1      42.890   2.354  11.511  0.00  0.00    +0.000 OA
ATOM     26  H   UNL     1      44.130   1.269   9.702  0.00  0.00    +0.000 HD
ATOM     27  H   UNL     1      45.404   2.434   9.603  0.00  0.00    +0.000 HD
ENDBRANCH  17  24
ENDBRANCH  16  20
ENDBRANCH  15  16
ENDBRANCH   1  15
TORSDOF 5
ENDMDL
MODEL 6
REMARK VINA RESULT:    -6.469      2.623      7.291
REMARK INTER + INTRA:          -9.205
REMARK INTER:                  -9.535
REMARK INTRA:                   0.330
REMARK UNBOUND:                -0.845
REMARK  Name = 
REMARK  5 active torsions:
REMARK  status: ('A' for Active; 'I' for Inactive)
REMARK    1  A    between atoms: C_2  and  C_4
REMARK    2  A    between atoms: C_7  and  O_8
REMARK    3  A    between atoms: O_8  and  C_9
REMARK    4  A    between atoms: C_9  and  C_10
REMARK    5  A    between atoms: C_15  and  N_16
REMARK                            x       y       z     vdW  Elec       q    Type
REMARK                         _______ _______ _______ _____ _____    ______ ____
ROOT
ATOM      1  C   UNL     1      44.770   4.525  10.141  0.00  0.00    +0.000 A 
ATOM      2  C   UNL     1      43.947   3.563  10.716  0.00  0.00    +0.000 A 
ATOM      3  F   UNL     1      43.152   3.886  11.747  0.00  0.00    +0.000 F 
ATOM      4  C   UNL     1      43.932   2.255  10.248  0.00  0.00    +0.000 A 
ATOM      5  C   UNL     1      44.740   1.902   9.167  0.00  0.00    +0.000 A 
ATOM      6  C   UNL     1      45.564   2.843   8.527  0.00  0.00    +0.000 A 
ATOM      7  C   UNL     1      45.564   4.154   9.049  0.00  0.00    +0.000 A 
ATOM      8  F   UNL     1      46.365   5.087   8.507  0.00  0.00    +0.000 F 
ENDROOT
BRANCH   6   9
ATOM      9  N   UNL     1      46.246   2.450   7.380  0.00  0.00    +0.000 N 
ATOM     10  C   UNL     1      46.800   3.472   6.474  0.00  0.00    +0.000 C 
ATOM     11  C   UNL     1      46.984   2.829   5.088  0.00  0.00    +0.000 C 
ATOM     12  O   UNL     1      47.852   1.681   5.152  0.00  0.00    +0.000 OA
ATOM     13  C   UNL     1      47.314   0.693   6.054  0.00  0.00    +0.000 C 
ATOM     14  C   UNL     1      47.115   1.261   7.469  0.00  0.00    +0.000 C 
ENDBRANCH   6   9
BRANCH   1  15
ATOM     15  C   UNL     1      44.768   5.936  10.647  0.00  0.00    +0.000 C 
BRANCH  15  16
ATOM     16  O   UNL     1      46.119   6.357  10.825  0.00  0.00    +0.000 OA
BRANCH  16  20
ATOM     17  C   UNL     1      47.615   5.545  14.634  0.00  0.00    +0.000 A 
ATOM     18  C   UNL     1      48.276   6.494  13.848  0.00  0.00    +0.000 A 
ATOM     19  C   UNL     1      47.804   6.797  12.565  0.00  0.00    +0.000 A 
ATOM     20  C   UNL     1      46.674   6.149  12.057  0.00  0.00    +0.000 A 
ATOM     21  C   UNL     1      46.027   5.191  12.842  0.00  0.00    +0.000 A 
ATOM     22  C   UNL     1      46.496   4.882  14.122  0.00  0.00    +0.000 A 
BRANCH  17  24
ATOM     23  N   UNL     1      47.160   4.687  16.868  0.00  0.00    +0.000 N 
ATOM     24  C   UNL     1      48.086   5.197  16.001  0.00  0.00    +0.000 C 
ATOM     25  O   UNL     1      49.258   5.320  16.331  0.00  0.00    +0.000 OA
ATOM     26  H   UNL     1      47.518   4.351  17.753  0.00  0.00    +0.000 HD
ATOM     27  H   UNL     1      46.269   4.330  16.558  0.00  0.00    +0.000 HD
ENDBRANCH  17  24
ENDBRANCH  16  20
ENDBRANCH  15  16
ENDBRANCH   1  15
TORSDOF 5
ENDMDL
MODEL 7
REMARK VINA RESULT:    -6.390      3.564      5.691
REMARK INTER + INTRA:          -9.103
REMARK INTER:                  -7.985
REMARK INTRA:                  -1.118
REMARK UNBOUND:                -0.845
REMARK  Name = 
REMARK  5 active torsions:
REMARK  status: ('A' for Active; 'I' for Inactive)
REMARK    1  A    between atoms: C_2  and  C_4
REMARK    2  A    between atoms: C_7  and  O_8
REMARK    3  A    between atoms: O_8  and  C_9
REMARK    4  A    between atoms: C_9  and  C_10
REMARK    5  A    between atoms: C_15  and  N_16
REMARK                            x       y       z     vdW  Elec       q    Type
REMARK                         _______ _______ _______ _____ _____    ______ ____
ROOT
ATOM      1  C   UNL     1      46.997   9.738  12.221  0.00  0.00    +0.000 A 
ATOM      2  C   UNL     1      47.777  10.595  11.452  0.00  0.00    +0.000 A 
ATOM      3  F   UNL     1      49.110  10.450  11.426  0.00  0.00    +0.000 F 
ATOM      4  C   UNL     1      47.203  11.614  10.703  0.00  0.00    +0.000 A 
ATOM      5  C   UNL     1      45.817  11.772  10.704  0.00  0.00    +0.000 A 
ATOM      6  C   UNL     1      44.980  10.912  11.436  0.00  0.00    +0.000 A 
ATOM      7  C   UNL     1      45.607   9.905  12.200  0.00  0.00    +0.000 A 
ATOM      8  F   UNL     1      44.863   9.080  12.956  0.00  0.00    +0.000 F 
ENDROOT
BRANCH   6   9
ATOM      9  N   UNL     1      43.604  11.051  11.291  0.00  0.00    +0.000 N 
ATOM     10  C   UNL     1      43.017  12.395  11.148  0.00  0.00    +0.000 C 
ATOM     11  C   UNL     1      41.536  12.314  11.558  0.00  0.00    +0.000 C 
ATOM     12  O   UNL     1      40.820  11.357  10.754  0.00  0.00    +0.000 OA
ATOM     13  C   UNL     1      41.409  10.048  10.884  0.00  0.00    +0.000 C 
ATOM     14  C   UNL     1      42.892  10.048  10.476  0.00  0.00    +0.000 C 
ENDBRANCH   6   9
BRANCH   1  15
ATOM     15  C   UNL     1      47.628   8.634  13.015  0.00  0.00    +0.000 C 
BRANCH  15  16
ATOM     16  O   UNL     1      47.829   7.514  12.155  0.00  0.00    +0.000 OA
BRANCH  16  20
ATOM     17  C   UNL     1      44.873   4.575  11.984  0.00  0.00    +0.000 A 
ATOM     18  C   UNL     1      45.530   4.787  13.199  0.00  0.00    +0.000 A 
ATOM     19  C   UNL     1      46.527   5.765  13.298  0.00  0.00    +0.000 A 
ATOM     20  C   UNL     1      46.877   6.533  12.184  0.00  0.00    +0.000 A 
ATOM     21  C   UNL     1      46.226   6.306  10.969  0.00  0.00    +0.000 A 
ATOM     22  C   UNL     1      45.232   5.328  10.862  0.00  0.00    +0.000 A 
BRANCH  17  24
ATOM     23  N   UNL     1      43.903   2.437  12.633  0.00  0.00    +0.000 N 
ATOM     24  C   UNL     1      43.809   3.546  11.839  0.00  0.00    +0.000 C 
ATOM     25  O   UNL     1      42.865   3.695  11.075  0.00  0.00    +0.000 OA
ATOM     26  H   UNL     1      43.116   1.801  12.605  0.00  0.00    +0.000 HD
ATOM     27  H   UNL     1      44.503   2.401  13.444  0.00  0.00    +0.000 HD
ENDBRANCH  17  24
ENDBRANCH  16  20
ENDBRANCH  15  16
ENDBRANCH   1  15
TORSDOF 5
ENDMDL
MODEL 8
REMARK VINA RESULT:    -6.255      4.436      7.992
REMARK INTER + INTRA:          -8.929
REMARK INTER:                  -8.055
REMARK INTRA:                  -0.874
REMARK UNBOUND:                -0.845
REMARK  Name = 
REMARK  5 active torsions:
REMARK  status: ('A' for Active; 'I' for Inactive)
REMARK    1  A    between atoms: C_2  and  C_4
REMARK    2  A    between atoms: C_7  and  O_8
REMARK    3  A    between atoms: O_8  and  C_9
REMARK    4  A    between atoms: C_9  and  C_10
REMARK    5  A    between atoms: C_15  and  N_16
REMARK                            x       y       z     vdW  Elec       q    Type
REMARK                         _______ _______ _______ _____ _____    ______ ____
ROOT
ATOM      1  C   UNL     1      47.347   7.336  13.136  0.00  0.00    +0.000 A 
ATOM      2  C   UNL     1      46.735   8.524  12.753  0.00  0.00    +0.000 A 
ATOM      3  F   UNL     1      47.356   9.696  12.955  0.00  0.00    +0.000 F 
ATOM      4  C   UNL     1      45.478   8.529  12.164  0.00  0.00    +0.000 A 
ATOM      5  C   UNL     1      44.822   7.320  11.931  0.00  0.00    +0.000 A 
ATOM      6  C   UNL     1      45.411   6.088  12.267  0.00  0.00    +0.000 A 
ATOM      7  C   UNL     1      46.679   6.132  12.883  0.00  0.00    +0.000 A 
ATOM      8  F   UNL     1      47.273   4.989  13.268  0.00  0.00    +0.000 F 
ENDROOT
BRANCH   6   9
ATOM      9  N   UNL     1      44.754   4.920  11.892  0.00  0.00    +0.000 N 
ATOM     10  C   UNL     1      43.716   4.353  12.771  0.00  0.00    +0.000 C 
ATOM     11  C   UNL     1      43.569   2.860  12.432  0.00  0.00    +0.000 C 
ATOM     12  O   UNL     1      43.226   2.667  11.046  0.00  0.00    +0.000 OA
ATOM     13  C   UNL     1      44.235   3.239  10.192  0.00  0.00    +0.000 C 
ATOM     14  C   UNL     1      44.429   4.740  10.465  0.00  0.00    +0.000 C 
ENDBRANCH   6   9
BRANCH   1  15
ATOM     15  C   UNL     1      48.711   7.343  13.760  0.00  0.00    +0.000 C 
BRANCH  15  16
ATOM     16  O   UNL     1      48.564   7.479  15.172  0.00  0.00    +0.000 OA
BRANCH  16  20
ATOM     17  C   UNL     1      50.626   4.705  17.509  0.00  0.00    +0.000 A 
ATOM     18  C   UNL     1      49.253   4.523  17.315  0.00  0.00    +0.000 A 
ATOM     19  C   UNL     1      48.526   5.431  16.536  0.00  0.00    +0.000 A 
ATOM     20  C   UNL     1      49.163   6.528  15.951  0.00  0.00    +0.000 A 
ATOM     21  C   UNL     1      50.532   6.712  16.159  0.00  0.00    +0.000 A 
ATOM     22  C   UNL     1      51.263   5.812  16.940  0.00  0.00    +0.000 A 
BRANCH  17  24
ATOM     23  N   UNL     1      51.412   2.445  17.965  0.00  0.00    +0.000 N 
ATOM     24  C   UNL     1      51.432   3.763  18.330  0.00  0.00    +0.000 C 
ATOM     25  O   UNL     1      52.118   4.147  19.266  0.00  0.00    +0.000 OA
ATOM     26  H   UNL     1      52.051   1.837  18.461  0.00  0.00    +0.000 HD
ATOM     27  H   UNL     1      51.081   2.139  17.062  0.00  0.00    +0.000 HD
ENDBRANCH  17  24
ENDBRANCH  16  20
ENDBRANCH  15  16
ENDBRANCH   1  15
TORSDOF 5
ENDMDL
MODEL 9
REMARK VINA RESULT:    -6.130      4.353      8.404
REMARK INTER + INTRA:          -8.767
REMARK INTER:                  -7.982
REMARK INTRA:                  -0.784
REMARK UNBOUND:                -0.845
REMARK  Name = 
REMARK  5 active torsions:
REMARK  status: ('A' for Active; 'I' for Inactive)
REMARK    1  A    between atoms: C_2  and  C_4
REMARK    2  A    between atoms: C_7  and  O_8
REMARK    3  A    between atoms: O_8  and  C_9
REMARK    4  A    between atoms: C_9  and  C_10
REMARK    5  A    between atoms: C_15  and  N_16
REMARK                            x       y       z     vdW  Elec       q    Type
REMARK                         _______ _______ _______ _____ _____    ______ ____
ROOT
ATOM      1  C   UNL     1      47.564   7.224  13.259  0.00  0.00    +0.000 A 
ATOM      2  C   UNL     1      47.001   8.450  12.923  0.00  0.00    +0.000 A 
ATOM      3  F   UNL     1      47.674   9.587  13.155  0.00  0.00    +0.000 F 
ATOM      4  C   UNL     1      45.738   8.529  12.349  0.00  0.00    +0.000 A 
ATOM      5  C   UNL     1      45.028   7.358  12.085  0.00  0.00    +0.000 A 
ATOM      6  C   UNL     1      45.566   6.092  12.373  0.00  0.00    +0.000 A 
ATOM      7  C   UNL     1      46.841   6.060  12.975  0.00  0.00    +0.000 A 
ATOM      8  F   UNL     1      47.389   4.880  13.315  0.00  0.00    +0.000 F 
ENDROOT
BRANCH   6   9
ATOM      9  N   UNL     1      44.855   4.967  11.969  0.00  0.00    +0.000 N 
ATOM     10  C   UNL     1      43.822   4.399  12.853  0.00  0.00    +0.000 C 
ATOM     11  C   UNL     1      43.609   2.928  12.454  0.00  0.00    +0.000 C 
ATOM     12  O   UNL     1      43.218   2.810  11.073  0.00  0.00    +0.000 OA
ATOM     13  C   UNL     1      44.223   3.383  10.213  0.00  0.00    +0.000 C 
ATOM     14  C   UNL     1      44.481   4.862  10.545  0.00  0.00    +0.000 C 
ENDBRANCH   6   9
BRANCH   1  15
ATOM     15  C   UNL     1      48.933   7.152  13.866  0.00  0.00    +0.000 C 
BRANCH  15  16
ATOM     16  O   UNL     1      48.906   7.812  15.130  0.00  0.00    +0.000 OA
BRANCH  16  20
ATOM     17  C   UNL     1      48.595   5.617  18.664  0.00  0.00    +0.000 A 
ATOM     18  C   UNL     1      48.497   4.936  17.447  0.00  0.00    +0.000 A 
ATOM     19  C   UNL     1      48.598   5.637  16.239  0.00  0.00    +0.000 A 
ATOM     20  C   UNL     1      48.792   7.021  16.239  0.00  0.00    +0.000 A 
ATOM     21  C   UNL     1      48.875   7.697  17.458  0.00  0.00    +0.000 A 
ATOM     22  C   UNL     1      48.770   7.004  18.668  0.00  0.00    +0.000 A 
BRANCH  17  24
ATOM     23  N   UNL     1      48.501   3.542  19.936  0.00  0.00    +0.000 N 
ATOM     24  C   UNL     1      48.492   4.909  19.967  0.00  0.00    +0.000 C 
ATOM     25  O   UNL     1      48.443   5.514  21.029  0.00  0.00    +0.000 OA
ATOM     26  H   UNL     1      48.544   3.076  20.834  0.00  0.00    +0.000 HD
ATOM     27  H   UNL     1      48.801   3.021  19.124  0.00  0.00    +0.000 HD
ENDBRANCH  17  24
ENDBRANCH  16  20
ENDBRANCH  15  16
ENDBRANCH   1  15
TORSDOF 5
ENDMDL
