MODEL 1
REMARK VINA RESULT:    -8.367      0.000      0.000
REMARK INTER + INTRA:         -11.523
REMARK INTER:                 -10.812
REMARK INTRA:                  -0.711
REMARK UNBOUND:                -0.711
REMARK  Name = 
REMARK  6 active torsions:
REMARK  status: ('A' for Active; 'I' for Inactive)
REMARK    1  A    between atoms: C_1  and  C_2
REMARK    2  A    between atoms: C_2  and  N_3
REMARK    3  A    between atoms: C_2  and  C_16
REMARK    4  A    between atoms: C_4  and  C_6
REMARK    5  A    between atoms: C_19  and  O_20
REMARK    6  A    between atoms: O_20  and  C_21
REMARK                            x       y       z     vdW  Elec       q    Type
REMARK                         _______ _______ _______ _____ _____    ______ ____
ROOT
ATOM      1  C   UNL     1      45.244   8.673  12.790  0.00  0.00    +0.000 C 
ATOM      2  C   UNL     1      46.358   7.638  12.594  0.00  0.00    +0.000 C 
ENDROOT
BRANCH   2   3
ATOM      3  C   UNL     1      45.873   6.474  11.741  0.00  0.00    +0.000 A 
ATOM      4  C   UNL     1      45.070   5.477  12.312  0.00  0.00    +0.000 A 
ATOM      5  C   UNL     1      44.629   4.388  11.552  0.00  0.00    +0.000 A 
ATOM      6  C   UNL     1      44.927   4.311  10.191  0.00  0.00    +0.000 A 
ATOM      7  C   UNL     1      45.741   5.288   9.615  0.00  0.00    +0.000 A 
ATOM      8  C   UNL     1      46.211   6.361  10.382  0.00  0.00    +0.000 A 
BRANCH   6   9
ATOM      9  O   UNL     1      44.532   3.288   9.357  0.00  0.00    +0.000 OA
BRANCH   9  10
ATOM     10  C   UNL     1      45.375   2.812   8.378  0.00  0.00    +0.000 A 
ATOM     11  C   UNL     1      45.775   3.532   7.250  0.00  0.00    +0.000 A 
ATOM     12  C   UNL     1      46.610   2.943   6.298  0.00  0.00    +0.000 A 
ATOM     13  C   UNL     1      47.104   1.657   6.503  0.00  0.00    +0.000 A 
ATOM     14  C   UNL     1      46.766   0.959   7.662  0.00  0.00    +0.000 A 
ATOM     15  C   UNL     1      45.902   1.535   8.596  0.00  0.00    +0.000 A 
ENDBRANCH   9  10
ENDBRANCH   6   9
ENDBRANCH   2   3
BRANCH   2  16
ATOM     16  N   UNL     1      46.885   7.146  13.858  0.00  0.00    +0.000 N 
ATOM     17  C   UNL     1      48.207   6.807  14.013  0.00  0.00    +0.000 C 
ATOM     18  O   UNL     1      49.037   6.950  13.121  0.00  0.00    +0.000 OA
ATOM     19  H   UNL     1      46.210   6.729  14.494  0.00  0.00    +0.000 HD
BRANCH  17  20
ATOM     20  C   UNL     1      48.608   6.314  15.332  0.00  0.00    +0.000 A 
ATOM     21  C   UNL     1      49.587   6.986  16.048  0.00  0.00    +0.000 A 
ATOM     22  S   UNL     1      49.959   6.262  17.546  0.00  0.00    +0.000 S 
ATOM     23  C   UNL     1      48.848   5.002  17.270  0.00  0.00    +0.000 A 
ATOM     24  N   UNL     1      48.704   3.983  18.160  0.00  0.00    +0.000 NA
ATOM     25  C   UNL     1      47.860   3.079  17.806  0.00  0.00    +0.000 A 
ATOM     26  N   UNL     1      47.120   3.109  16.648  0.00  0.00    +0.000 N 
ATOM     27  C   UNL     1      47.194   4.140  15.742  0.00  0.00    +0.000 A 
ATOM     28  O   UNL     1      46.466   4.184  14.755  0.00  0.00    +0.000 OA
ATOM     29  C   UNL     1      48.171   5.159  16.073  0.00  0.00    +0.000 A 
ATOM     30  H   UNL     1      46.450   2.384  16.446  0.00  0.00    +0.000 HD
ENDBRANCH  17  20
ENDBRANCH   2  16
TORSDOF 5
ENDMDL
MODEL 2
REMARK VINA RESULT:    -7.787      2.691      3.951
REMARK INTER + INTRA:         -10.774
REMARK INTER:                  -9.660
REMARK INTRA:                  -1.114
REMARK UNBOUND:                -0.711
REMARK  Name = 
REMARK  6 active torsions:
REMARK  status: ('A' for Active; 'I' for Inactive)
REMARK    1  A    between atoms: C_1  and  C_2
REMARK    2  A    between atoms: C_2  and  N_3
REMARK    3  A    between atoms: C_2  and  C_16
REMARK    4  A    between atoms: C_4  and  C_6
REMARK    5  A    between atoms: C_19  and  O_20
REMARK    6  A    between atoms: O_20  and  C_21
REMARK                            x       y       z     vdW  Elec       q    Type
REMARK                         _______ _______ _______ _____ _____    ______ ____
ROOT
ATOM      1  C   UNL     1      46.396   4.816  14.397  0.00  0.00    +0.000 C 
ATOM      2  C   UNL     1      46.128   5.842  13.289  0.00  0.00    +0.000 C 
ENDROOT
BRANCH   2   3
ATOM      3  C   UNL     1      45.747   5.147  11.989  0.00  0.00    +0.000 A 
ATOM      4  C   UNL     1      45.224   3.847  12.018  0.00  0.00    +0.000 A 
ATOM      5  C   UNL     1      44.886   3.182  10.834  0.00  0.00    +0.000 A 
ATOM      6  C   UNL     1      45.002   3.831   9.604  0.00  0.00    +0.000 A 
ATOM      7  C   UNL     1      45.540   5.118   9.559  0.00  0.00    +0.000 A 
ATOM      8  C   UNL     1      45.910   5.772  10.741  0.00  0.00    +0.000 A 
BRANCH   6   9
ATOM      9  O   UNL     1      44.688   3.267   8.387  0.00  0.00    +0.000 OA
BRANCH   9  10
ATOM     10  C   UNL     1      45.667   2.719   7.590  0.00  0.00    +0.000 A 
ATOM     11  C   UNL     1      46.187   3.316   6.440  0.00  0.00    +0.000 A 
ATOM     12  C   UNL     1      47.160   2.659   5.683  0.00  0.00    +0.000 A 
ATOM     13  C   UNL     1      47.666   1.433   6.109  0.00  0.00    +0.000 A 
ATOM     14  C   UNL     1      47.202   0.864   7.295  0.00  0.00    +0.000 A 
ATOM     15  C   UNL     1      46.204   1.505   8.032  0.00  0.00    +0.000 A 
ENDBRANCH   9  10
ENDBRANCH   6   9
ENDBRANCH   2   3
BRANCH   2  16
ATOM     16  N   UNL     1      47.261   6.727  13.069  0.00  0.00    +0.000 N 
ATOM     17  C   UNL     1      47.128   8.095  13.077  0.00  0.00    +0.000 C 
ATOM     18  O   UNL     1      46.066   8.656  13.327  0.00  0.00    +0.000 OA
ATOM     19  H   UNL     1      48.052   6.330  12.567  0.00  0.00    +0.000 HD
BRANCH  17  20
ATOM     20  C   UNL     1      48.343   8.874  12.832  0.00  0.00    +0.000 A 
ATOM     21  C   UNL     1      48.296   9.972  11.986  0.00  0.00    +0.000 A 
ATOM     22  S   UNL     1      49.801  10.746  11.783  0.00  0.00    +0.000 S 
ATOM     23  C   UNL     1      50.576   9.612  12.790  0.00  0.00    +0.000 A 
ATOM     24  N   UNL     1      51.919   9.663  13.004  0.00  0.00    +0.000 NA
ATOM     25  C   UNL     1      52.377   8.722  13.753  0.00  0.00    +0.000 A 
ATOM     26  N   UNL     1      51.610   7.741  14.335  0.00  0.00    +0.000 N 
ATOM     27  C   UNL     1      50.246   7.676  14.188  0.00  0.00    +0.000 A 
ATOM     28  O   UNL     1      49.574   6.838  14.781  0.00  0.00    +0.000 OA
ATOM     29  C   UNL     1      49.688   8.687  13.310  0.00  0.00    +0.000 A 
ATOM     30  H   UNL     1      52.028   7.052  14.938  0.00  0.00    +0.000 HD
ENDBRANCH  17  20
ENDBRANCH   2  16
TORSDOF 5
ENDMDL
MODEL 3
REMARK VINA RESULT:    -7.680      4.179      9.488
REMARK INTER + INTRA:         -10.636
REMARK INTER:                  -9.309
REMARK INTRA:                  -1.327
REMARK UNBOUND:                -0.711
REMARK  Name = 
REMARK  6 active torsions:
REMARK  status: ('A' for Active; 'I' for Inactive)
REMARK    1  A    between atoms: C_1  and  C_2
REMARK    2  A    between atoms: C_2  and  N_3
REMARK    3  A    between atoms: C_2  and  C_16
REMARK    4  A    between atoms: C_4  and  C_6
REMARK    5  A    between atoms: C_19  and  O_20
REMARK    6  A    between atoms: O_20  and  C_21
REMARK                            x       y       z     vdW  Elec       q    Type
REMARK                         _______ _______ _______ _____ _____    ______ ____
ROOT
ATOM      1  C   UNL     1      47.730   3.091  16.663  0.00  0.00    +0.000 C 
ATOM      2  C   UNL     1      48.046   4.503  16.154  0.00  0.00    +0.000 C 
ENDROOT
BRANCH   2   3
ATOM      3  C   UNL     1      48.119   5.491  17.310  0.00  0.00    +0.000 A 
ATOM      4  C   UNL     1      47.230   5.373  18.388  0.00  0.00    +0.000 A 
ATOM      5  C   UNL     1      47.267   6.282  19.451  0.00  0.00    +0.000 A 
ATOM      6  C   UNL     1      48.236   7.285  19.488  0.00  0.00    +0.000 A 
ATOM      7  C   UNL     1      49.114   7.425  18.412  0.00  0.00    +0.000 A 
ATOM      8  C   UNL     1      49.058   6.537  17.331  0.00  0.00    +0.000 A 
BRANCH   6   9
ATOM      9  O   UNL     1      48.360   8.220  20.492  0.00  0.00    +0.000 OA
BRANCH   9  10
ATOM     10  C   UNL     1      47.382   9.166  20.699  0.00  0.00    +0.000 A 
ATOM     11  C   UNL     1      46.902  10.044  19.724  0.00  0.00    +0.000 A 
ATOM     12  C   UNL     1      45.927  10.990  20.047  0.00  0.00    +0.000 A 
ATOM     13  C   UNL     1      45.378  11.019  21.326  0.00  0.00    +0.000 A 
ATOM     14  C   UNL     1      45.802  10.098  22.285  0.00  0.00    +0.000 A 
ATOM     15  C   UNL     1      46.803   9.176  21.971  0.00  0.00    +0.000 A 
ENDBRANCH   9  10
ENDBRANCH   6   9
ENDBRANCH   2   3
BRANCH   2  16
ATOM     16  N   UNL     1      47.084   4.963  15.164  0.00  0.00    +0.000 N 
ATOM     17  C   UNL     1      47.467   5.684  14.059  0.00  0.00    +0.000 C 
ATOM     18  O   UNL     1      48.640   5.935  13.805  0.00  0.00    +0.000 OA
ATOM     19  H   UNL     1      46.122   5.052  15.479  0.00  0.00    +0.000 HD
BRANCH  17  20
ATOM     20  C   UNL     1      46.401   6.096  13.144  0.00  0.00    +0.000 A 
ATOM     21  C   UNL     1      46.228   7.442  12.854  0.00  0.00    +0.000 A 
ATOM     22  S   UNL     1      44.924   7.753  11.800  0.00  0.00    +0.000 S 
ATOM     23  C   UNL     1      44.523   6.099  11.728  0.00  0.00    +0.000 A 
ATOM     24  N   UNL     1      43.442   5.668  11.023  0.00  0.00    +0.000 NA
ATOM     25  C   UNL     1      43.233   4.400  11.088  0.00  0.00    +0.000 A 
ATOM     26  N   UNL     1      44.023   3.510  11.775  0.00  0.00    +0.000 N 
ATOM     27  C   UNL     1      45.152   3.891  12.461  0.00  0.00    +0.000 A 
ATOM     28  O   UNL     1      45.886   3.068  13.000  0.00  0.00    +0.000 OA
ATOM     29  C   UNL     1      45.401   5.319  12.459  0.00  0.00    +0.000 A 
ATOM     30  H   UNL     1      43.823   2.523  11.758  0.00  0.00    +0.000 HD
ENDBRANCH  17  20
ENDBRANCH   2  16
TORSDOF 5
ENDMDL
MODEL 4
REMARK VINA RESULT:    -7.537      2.384      3.294
REMARK INTER + INTRA:         -10.451
REMARK INTER:                  -9.133
REMARK INTRA:                  -1.318
REMARK UNBOUND:                -0.711
REMARK  Name = 
REMARK  6 active torsions:
REMARK  status: ('A' for Active; 'I' for Inactive)
REMARK    1  A    between atoms: C_1  and  C_2
REMARK    2  A    between atoms: C_2  and  N_3
REMARK    3  A    between atoms: C_2  and  C_16
REMARK    4  A    between atoms: C_4  and  C_6
REMARK    5  A    between atoms: C_19  and  O_20
REMARK    6  A    between atoms: O_20  and  C_21
REMARK                            x       y       z     vdW  Elec       q    Type
REMARK                         _______ _______ _______ _____ _____    ______ ____
ROOT
ATOM      1  C   UNL     1      47.985   9.199  14.057  0.00  0.00    +0.000 C 
ATOM      2  C   UNL     1      48.176   7.678  14.105  0.00  0.00    +0.000 C 
ENDROOT
BRANCH   2   3
ATOM      3  C   UNL     1      47.170   6.977  13.203  0.00  0.00    +0.000 A 
ATOM      4  C   UNL     1      46.438   7.718  12.264  0.00  0.00    +0.000 A 
ATOM      5  C   UNL     1      45.494   7.097  11.439  0.00  0.00    +0.000 A 
ATOM      6  C   UNL     1      45.313   5.714  11.490  0.00  0.00    +0.000 A 
ATOM      7  C   UNL     1      46.022   4.969  12.433  0.00  0.00    +0.000 A 
ATOM      8  C   UNL     1      46.943   5.593  13.283  0.00  0.00    +0.000 A 
BRANCH   6   9
ATOM      9  O   UNL     1      44.418   5.011  10.715  0.00  0.00    +0.000 OA
BRANCH   9  10
ATOM     10  C   UNL     1      44.857   4.076   9.805  0.00  0.00    +0.000 A 
ATOM     11  C   UNL     1      44.586   2.707   9.873  0.00  0.00    +0.000 A 
ATOM     12  C   UNL     1      45.108   1.838   8.912  0.00  0.00    +0.000 A 
ATOM     13  C   UNL     1      45.844   2.340   7.842  0.00  0.00    +0.000 A 
ATOM     14  C   UNL     1      46.058   3.713   7.729  0.00  0.00    +0.000 A 
ATOM     15  C   UNL     1      45.566   4.578   8.710  0.00  0.00    +0.000 A 
ENDBRANCH   9  10
ENDBRANCH   6   9
ENDBRANCH   2   3
BRANCH   2  16
ATOM     16  N   UNL     1      48.085   7.152  15.459  0.00  0.00    +0.000 N 
ATOM     17  C   UNL     1      49.157   6.563  16.084  0.00  0.00    +0.000 C 
ATOM     18  O   UNL     1      50.269   6.495  15.570  0.00  0.00    +0.000 OA
ATOM     19  H   UNL     1      47.153   6.909  15.785  0.00  0.00    +0.000 HD
BRANCH  17  20
ATOM     20  C   UNL     1      48.932   6.064  17.442  0.00  0.00    +0.000 A 
ATOM     21  C   UNL     1      49.169   4.728  17.730  0.00  0.00    +0.000 A 
ATOM     22  S   UNL     1      48.825   4.305  19.346  0.00  0.00    +0.000 S 
ATOM     23  C   UNL     1      48.310   5.888  19.703  0.00  0.00    +0.000 A 
ATOM     24  N   UNL     1      47.821   6.209  20.932  0.00  0.00    +0.000 NA
ATOM     25  C   UNL     1      47.431   7.429  21.051  0.00  0.00    +0.000 A 
ATOM     26  N   UNL     1      47.507   8.375  20.057  0.00  0.00    +0.000 N 
ATOM     27  C   UNL     1      48.036   8.113  18.816  0.00  0.00    +0.000 A 
ATOM     28  O   UNL     1      48.166   8.995  17.973  0.00  0.00    +0.000 OA
ATOM     29  C   UNL     1      48.444   6.736  18.618  0.00  0.00    +0.000 A 
ATOM     30  H   UNL     1      47.214   9.324  20.226  0.00  0.00    +0.000 HD
ENDBRANCH  17  20
ENDBRANCH   2  16
TORSDOF 5
ENDMDL
MODEL 5
REMARK VINA RESULT:    -7.503      3.432      7.894
REMARK INTER + INTRA:         -10.406
REMARK INTER:                  -9.226
REMARK INTRA:                  -1.181
REMARK UNBOUND:                -0.711
REMARK  Name = 
REMARK  6 active torsions:
REMARK  status: ('A' for Active; 'I' for Inactive)
REMARK    1  A    between atoms: C_1  and  C_2
REMARK    2  A    between atoms: C_2  and  N_3
REMARK    3  A    between atoms: C_2  and  C_16
REMARK    4  A    between atoms: C_4  and  C_6
REMARK    5  A    between atoms: C_19  and  O_20
REMARK    6  A    between atoms: O_20  and  C_21
REMARK                            x       y       z     vdW  Elec       q    Type
REMARK                         _______ _______ _______ _____ _____    ______ ____
ROOT
ATOM      1  C   UNL     1      49.375   8.149  12.321  0.00  0.00    +0.000 C 
ATOM      2  C   UNL     1      48.244   7.489  13.121  0.00  0.00    +0.000 C 
ENDROOT
BRANCH   2   3
ATOM      3  C   UNL     1      48.778   6.877  14.408  0.00  0.00    +0.000 A 
ATOM      4  C   UNL     1      48.005   5.940  15.109  0.00  0.00    +0.000 A 
ATOM      5  C   UNL     1      48.468   5.380  16.305  0.00  0.00    +0.000 A 
ATOM      6  C   UNL     1      49.739   5.695  16.787  0.00  0.00    +0.000 A 
ATOM      7  C   UNL     1      50.510   6.641  16.108  0.00  0.00    +0.000 A 
ATOM      8  C   UNL     1      50.035   7.228  14.930  0.00  0.00    +0.000 A 
BRANCH   6   9
ATOM      9  O   UNL     1      50.287   5.190  17.946  0.00  0.00    +0.000 OA
BRANCH   9  10
ATOM     10  C   UNL     1      51.021   4.026  17.929  0.00  0.00    +0.000 A 
ATOM     11  C   UNL     1      50.578   2.810  17.405  0.00  0.00    +0.000 A 
ATOM     12  C   UNL     1      51.393   1.678  17.466  0.00  0.00    +0.000 A 
ATOM     13  C   UNL     1      52.680   1.771  17.991  0.00  0.00    +0.000 A 
ATOM     14  C   UNL     1      53.155   2.999  18.451  0.00  0.00    +0.000 A 
ATOM     15  C   UNL     1      52.326   4.123  18.422  0.00  0.00    +0.000 A 
ENDBRANCH   9  10
ENDBRANCH   6   9
ENDBRANCH   2   3
BRANCH   2  16
ATOM     16  N   UNL     1      47.532   6.484  12.347  0.00  0.00    +0.000 N 
ATOM     17  C   UNL     1      46.349   6.762  11.707  0.00  0.00    +0.000 C 
ATOM     18  O   UNL     1      45.848   7.882  11.696  0.00  0.00    +0.000 OA
ATOM     19  H   UNL     1      47.730   5.514  12.580  0.00  0.00    +0.000 HD
BRANCH  17  20
ATOM     20  C   UNL     1      45.727   5.660  10.970  0.00  0.00    +0.000 A 
ATOM     21  C   UNL     1      45.803   5.631   9.585  0.00  0.00    +0.000 A 
ATOM     22  S   UNL     1      44.998   4.301   8.884  0.00  0.00    +0.000 S 
ATOM     23  C   UNL     1      44.489   3.741  10.409  0.00  0.00    +0.000 A 
ATOM     24  N   UNL     1      43.694   2.643  10.525  0.00  0.00    +0.000 NA
ATOM     25  C   UNL     1      43.351   2.356  11.732  0.00  0.00    +0.000 A 
ATOM     26  N   UNL     1      43.752   3.053  12.846  0.00  0.00    +0.000 N 
ATOM     27  C   UNL     1      44.593   4.139  12.784  0.00  0.00    +0.000 A 
ATOM     28  O   UNL     1      45.000   4.696  13.799  0.00  0.00    +0.000 OA
ATOM     29  C   UNL     1      44.965   4.532  11.439  0.00  0.00    +0.000 A 
ATOM     30  H   UNL     1      43.474   2.755  13.767  0.00  0.00    +0.000 HD
ENDBRANCH  17  20
ENDBRANCH   2  16
TORSDOF 5
ENDMDL
MODEL 6
REMARK VINA RESULT:    -7.413      2.437      4.601
REMARK INTER + INTRA:         -10.291
REMARK INTER:                 -10.206
REMARK INTRA:                  -0.085
REMARK UNBOUND:                -0.711
REMARK  Name = 
REMARK  6 active torsions:
REMARK  status: ('A' for Active; 'I' for Inactive)
REMARK    1  A    between atoms: C_1  and  C_2
REMARK    2  A    between atoms: C_2  and  N_3
REMARK    3  A    between atoms: C_2  and  C_16
REMARK    4  A    between atoms: C_4  and  C_6
REMARK    5  A    between atoms: C_19  and  O_20
REMARK    6  A    between atoms: O_20  and  C_21
REMARK                            x       y       z     vdW  Elec       q    Type
REMARK                         _______ _______ _______ _____ _____    ______ ____
ROOT
ATOM      1  C   UNL     1      46.744   4.537  14.480  0.00  0.00    +0.000 C 
ATOM      2  C   UNL     1      45.878   5.510  13.670  0.00  0.00    +0.000 C 
ENDROOT
BRANCH   2   3
ATOM      3  C   UNL     1      45.574   4.945  12.290  0.00  0.00    +0.000 A 
ATOM      4  C   UNL     1      45.731   5.752  11.154  0.00  0.00    +0.000 A 
ATOM      5  C   UNL     1      45.438   5.259   9.878  0.00  0.00    +0.000 A 
ATOM      6  C   UNL     1      45.048   3.929   9.707  0.00  0.00    +0.000 A 
ATOM      7  C   UNL     1      44.870   3.122  10.832  0.00  0.00    +0.000 A 
ATOM      8  C   UNL     1      45.130   3.623  12.113  0.00  0.00    +0.000 A 
BRANCH   6   9
ATOM      9  O   UNL     1      44.748   3.349   8.495  0.00  0.00    +0.000 OA
BRANCH   9  10
ATOM     10  C   UNL     1      45.716   2.692   7.769  0.00  0.00    +0.000 A 
ATOM     11  C   UNL     1      46.217   1.424   8.071  0.00  0.00    +0.000 A 
ATOM     12  C   UNL     1      47.224   0.860   7.285  0.00  0.00    +0.000 A 
ATOM     13  C   UNL     1      47.687   1.530   6.155  0.00  0.00    +0.000 A 
ATOM     14  C   UNL     1      47.141   2.765   5.808  0.00  0.00    +0.000 A 
ATOM     15  C   UNL     1      46.159   3.345   6.614  0.00  0.00    +0.000 A 
ENDBRANCH   9  10
ENDBRANCH   6   9
ENDBRANCH   2   3
BRANCH   2  16
ATOM     16  N   UNL     1      46.489   6.825  13.549  0.00  0.00    +0.000 N 
ATOM     17  C   UNL     1      47.814   6.984  13.221  0.00  0.00    +0.000 C 
ATOM     18  O   UNL     1      48.549   6.038  12.954  0.00  0.00    +0.000 OA
ATOM     19  H   UNL     1      46.029   7.583  14.047  0.00  0.00    +0.000 HD
BRANCH  17  20
ATOM     20  C   UNL     1      48.310   8.359  13.141  0.00  0.00    +0.000 A 
ATOM     21  C   UNL     1      49.594   8.652  13.577  0.00  0.00    +0.000 A 
ATOM     22  S   UNL     1      50.000  10.303  13.446  0.00  0.00    +0.000 S 
ATOM     23  C   UNL     1      48.457  10.687  12.839  0.00  0.00    +0.000 A 
ATOM     24  N   UNL     1      48.110  11.973  12.562  0.00  0.00    +0.000 NA
ATOM     25  C   UNL     1      46.901  12.123  12.148  0.00  0.00    +0.000 A 
ATOM     26  N   UNL     1      46.006  11.098  11.957  0.00  0.00    +0.000 N 
ATOM     27  C   UNL     1      46.324   9.779  12.177  0.00  0.00    +0.000 A 
ATOM     28  O   UNL     1      45.533   8.876  11.925  0.00  0.00    +0.000 OA
ATOM     29  C   UNL     1      47.661   9.564  12.694  0.00  0.00    +0.000 A 
ATOM     30  H   UNL     1      45.083  11.281  11.599  0.00  0.00    +0.000 HD
ENDBRANCH  17  20
ENDBRANCH   2  16
TORSDOF 5
ENDMDL
MODEL 7
REMARK VINA RESULT:    -7.361      2.293      3.279
REMARK INTER + INTRA:         -10.224
REMARK INTER:                  -9.400
REMARK INTRA:                  -0.824
REMARK UNBOUND:                -0.711
REMARK  Name = 
REMARK  6 active torsions:
REMARK  status: ('A' for Active; 'I' for Inactive)
REMARK    1  A    between atoms: C_1  and  C_2
REMARK    2  A    between atoms: C_2  and  N_3
REMARK    3  A    between atoms: C_2  and  C_16
REMARK    4  A    between atoms: C_4  and  C_6
REMARK    5  A    between atoms: C_19  and  O_20
REMARK    6  A    between atoms: O_20  and  C_21
REMARK                            x       y       z     vdW  Elec       q    Type
REMARK                         _______ _______ _______ _____ _____    ______ ____
ROOT
ATOM      1  C   UNL     1      49.401   8.559  13.640  0.00  0.00    +0.000 C 
ATOM      2  C   UNL     1      48.899   7.230  14.215  0.00  0.00    +0.000 C 
ENDROOT
BRANCH   2   3
ATOM      3  C   UNL     1      47.742   6.685  13.388  0.00  0.00    +0.000 A 
ATOM      4  C   UNL     1      47.149   7.486  12.403  0.00  0.00    +0.000 A 
ATOM      5  C   UNL     1      46.072   7.013  11.645  0.00  0.00    +0.000 A 
ATOM      6  C   UNL     1      45.612   5.706  11.813  0.00  0.00    +0.000 A 
ATOM      7  C   UNL     1      46.181   4.905  12.804  0.00  0.00    +0.000 A 
ATOM      8  C   UNL     1      47.237   5.388  13.586  0.00  0.00    +0.000 A 
BRANCH   6   9
ATOM      9  O   UNL     1      44.567   5.146  11.111  0.00  0.00    +0.000 OA
BRANCH   9  10
ATOM     10  C   UNL     1      44.800   4.205  10.134  0.00  0.00    +0.000 A 
ATOM     11  C   UNL     1      44.349   2.884  10.174  0.00  0.00    +0.000 A 
ATOM     12  C   UNL     1      44.667   1.999   9.141  0.00  0.00    +0.000 A 
ATOM     13  C   UNL     1      45.380   2.448   8.032  0.00  0.00    +0.000 A 
ATOM     14  C   UNL     1      45.772   3.784   7.952  0.00  0.00    +0.000 A 
ATOM     15  C   UNL     1      45.484   4.659   9.002  0.00  0.00    +0.000 A 
ENDBRANCH   9  10
ENDBRANCH   6   9
ENDBRANCH   2   3
BRANCH   2  16
ATOM     16  N   UNL     1      48.504   7.344  15.611  0.00  0.00    +0.000 N 
ATOM     17  C   UNL     1      49.167   6.675  16.611  0.00  0.00    +0.000 C 
ATOM     18  O   UNL     1      50.162   5.988  16.404  0.00  0.00    +0.000 OA
ATOM     19  H   UNL     1      47.544   7.629  15.785  0.00  0.00    +0.000 HD
BRANCH  17  20
ATOM     20  C   UNL     1      48.664   6.866  17.973  0.00  0.00    +0.000 A 
ATOM     21  C   UNL     1      48.236   8.122  18.377  0.00  0.00    +0.000 A 
ATOM     22  S   UNL     1      47.715   8.179  19.999  0.00  0.00    +0.000 S 
ATOM     23  C   UNL     1      48.081   6.531  20.227  0.00  0.00    +0.000 A 
ATOM     24  N   UNL     1      47.920   5.936  21.440  0.00  0.00    +0.000 NA
ATOM     25  C   UNL     1      48.273   4.699  21.479  0.00  0.00    +0.000 A 
ATOM     26  N   UNL     1      48.752   3.987  20.406  0.00  0.00    +0.000 N 
ATOM     27  C   UNL     1      48.888   4.531  19.151  0.00  0.00    +0.000 A 
ATOM     28  O   UNL     1      49.242   3.853  18.191  0.00  0.00    +0.000 OA
ATOM     29  C   UNL     1      48.549   5.938  19.068  0.00  0.00    +0.000 A 
ATOM     30  H   UNL     1      48.980   3.010  20.497  0.00  0.00    +0.000 HD
ENDBRANCH  17  20
ENDBRANCH   2  16
TORSDOF 5
ENDMDL
MODEL 8
REMARK VINA RESULT:    -7.223      3.425      8.536
REMARK INTER + INTRA:         -10.045
REMARK INTER:                  -8.909
REMARK INTRA:                  -1.137
REMARK UNBOUND:                -0.711
REMARK  Name = 
REMARK  6 active torsions:
REMARK  status: ('A' for Active; 'I' for Inactive)
REMARK    1  A    between atoms: C_1  and  C_2
REMARK    2  A    between atoms: C_2  and  N_3
REMARK    3  A    between atoms: C_2  and  C_16
REMARK    4  A    between atoms: C_4  and  C_6
REMARK    5  A    between atoms: C_19  and  O_20
REMARK    6  A    between atoms: O_20  and  C_21
REMARK                            x       y       z     vdW  Elec       q    Type
REMARK                         _______ _______ _______ _____ _____    ______ ____
ROOT
ATOM      1  C   UNL     1      49.690   7.888  12.328  0.00  0.00    +0.000 C 
ATOM      2  C   UNL     1      48.429   7.412  13.058  0.00  0.00    +0.000 C 
ENDROOT
BRANCH   2   3
ATOM      3  C   UNL     1      48.777   6.847  14.429  0.00  0.00    +0.000 A 
ATOM      4  C   UNL     1      49.903   7.323  15.115  0.00  0.00    +0.000 A 
ATOM      5  C   UNL     1      50.253   6.804  16.366  0.00  0.00    +0.000 A 
ATOM      6  C   UNL     1      49.445   5.848  16.984  0.00  0.00    +0.000 A 
ATOM      7  C   UNL     1      48.332   5.353  16.303  0.00  0.00    +0.000 A 
ATOM      8  C   UNL     1      47.999   5.847  15.036  0.00  0.00    +0.000 A 
BRANCH   6   9
ATOM      9  O   UNL     1      49.699   5.285  18.216  0.00  0.00    +0.000 OA
BRANCH   9  10
ATOM     10  C   UNL     1      48.989   5.675  19.329  0.00  0.00    +0.000 A 
ATOM     11  C   UNL     1      48.326   6.897  19.464  0.00  0.00    +0.000 A 
ATOM     12  C   UNL     1      47.659   7.207  20.652  0.00  0.00    +0.000 A 
ATOM     13  C   UNL     1      47.593   6.272  21.682  0.00  0.00    +0.000 A 
ATOM     14  C   UNL     1      48.193   5.023  21.525  0.00  0.00    +0.000 A 
ATOM     15  C   UNL     1      48.890   4.727  20.351  0.00  0.00    +0.000 A 
ENDBRANCH   9  10
ENDBRANCH   6   9
ENDBRANCH   2   3
BRANCH   2  16
ATOM     16  N   UNL     1      47.681   6.429  12.288  0.00  0.00    +0.000 N 
ATOM     17  C   UNL     1      46.448   6.710  11.753  0.00  0.00    +0.000 C 
ATOM     18  O   UNL     1      45.924   7.816  11.837  0.00  0.00    +0.000 OA
ATOM     19  H   UNL     1      47.915   5.454  12.456  0.00  0.00    +0.000 HD
BRANCH  17  20
ATOM     20  C   UNL     1      45.794   5.631  11.009  0.00  0.00    +0.000 A 
ATOM     21  C   UNL     1      45.866   5.612   9.623  0.00  0.00    +0.000 A 
ATOM     22  S   UNL     1      45.024   4.310   8.913  0.00  0.00    +0.000 S 
ATOM     23  C   UNL     1      44.504   3.750  10.435  0.00  0.00    +0.000 A 
ATOM     24  N   UNL     1      43.681   2.673  10.544  0.00  0.00    +0.000 NA
ATOM     25  C   UNL     1      43.334   2.385  11.749  0.00  0.00    +0.000 A 
ATOM     26  N   UNL     1      43.757   3.061  12.868  0.00  0.00    +0.000 N 
ATOM     27  C   UNL     1      44.625   4.125  12.813  0.00  0.00    +0.000 A 
ATOM     28  O   UNL     1      45.050   4.663  13.831  0.00  0.00    +0.000 OA
ATOM     29  C   UNL     1      45.005   4.519  11.471  0.00  0.00    +0.000 A 
ATOM     30  H   UNL     1      43.473   2.763  13.788  0.00  0.00    +0.000 HD
ENDBRANCH  17  20
ENDBRANCH   2  16
TORSDOF 5
ENDMDL
