MODEL 1
REMARK VINA RESULT:    -7.857      0.000      0.000
REMARK INTER + INTRA:         -11.928
REMARK INTER:                 -11.073
REMARK INTRA:                  -0.856
REMARK UNBOUND:                -0.856
REMARK  Name = 
REMARK  9 active torsions:
REMARK  status: ('A' for Active; 'I' for Inactive)
REMARK    1  A    between atoms: C_1  and  C_2
REMARK    2  A    between atoms: C_6  and  C_7
REMARK    3  A    between atoms: C_7  and  N_8
REMARK    4  A    between atoms: N_8  and  C_9
REMARK    5  A    between atoms: N_8  and  C_10
REMARK    6  A    between atoms: C_10  and  C_11
REMARK    7  A    between atoms: C_14  and  C_15
REMARK    8  A    between atoms: C_15  and  N_16
REMARK    9  A    between atoms: C_17  and  C_19
REMARK                            x       y       z     vdW  Elec       q    Type
REMARK                         _______ _______ _______ _____ _____    ______ ____
ROOT
ATOM      1  C   UNL     1      46.318   4.915  13.184  0.00  0.00    +0.000 A 
ATOM      2  C   UNL     1      46.626   4.368  14.437  0.00  0.00    +0.000 A 
ATOM      3  C   UNL     1      47.532   5.006  15.289  0.00  0.00    +0.000 A 
ATOM      4  C   UNL     1      48.140   6.209  14.905  0.00  0.00    +0.000 A 
ATOM      5  C   UNL     1      47.880   6.720  13.628  0.00  0.00    +0.000 A 
ATOM      6  C   UNL     1      46.978   6.082  12.778  0.00  0.00    +0.000 A 
ENDROOT
BRANCH   1   7
ATOM      7  C   UNL     1      45.249   4.297  12.302  0.00  0.00    +0.000 C 
BRANCH   7   8
ATOM      8  N   UNL     1      44.196   5.251  11.911  0.00  0.00    +0.000 NA
ATOM      9  C   UNL     1      43.189   5.379  12.960  0.00  0.00    +0.000 C 
BRANCH   8  10
ATOM     10  C   UNL     1      43.595   4.936  10.593  0.00  0.00    +0.000 C 
BRANCH  10  16
ATOM     11  C   UNL     1      46.875   3.875   6.925  0.00  0.00    +0.000 C 
ATOM     12  C   UNL     1      45.894   3.420   7.961  0.00  0.00    +0.000 A 
ATOM     13  C   UNL     1      45.602   2.069   8.142  0.00  0.00    +0.000 A 
ATOM     14  C   UNL     1      44.676   1.719   9.109  0.00  0.00    +0.000 A 
ATOM     15  N   UNL     1      44.032   2.609   9.892  0.00  0.00    +0.000 NA
ATOM     16  C   UNL     1      44.323   3.923   9.720  0.00  0.00    +0.000 A 
ATOM     17  C   UNL     1      45.245   4.358   8.767  0.00  0.00    +0.000 A 
ENDBRANCH  10  16
ENDBRANCH   8  10
ENDBRANCH   7   8
ENDBRANCH   1   7
BRANCH   4  18
ATOM     18  C   UNL     1      49.070   6.943  15.832  0.00  0.00    +0.000 C 
BRANCH  18  19
ATOM     19  N   UNL     1      50.113   6.076  16.315  0.00  0.00    +0.000 N 
ATOM     20  C   UNL     1      50.215   5.760  17.643  0.00  0.00    +0.000 C 
ATOM     21  O   UNL     1      49.407   6.163  18.475  0.00  0.00    +0.000 OA
ATOM     22  H   UNL     1      50.912   5.940  15.703  0.00  0.00    +0.000 HD
BRANCH  20  23
ATOM     23  C   UNL     1      51.309   4.854  18.015  0.00  0.00    +0.000 A 
ATOM     24  C   UNL     1      52.433   5.362  18.653  0.00  0.00    +0.000 A 
ATOM     25  S   UNL     1      53.577   4.168  19.075  0.00  0.00    +0.000 S 
ATOM     26  C   UNL     1      52.634   2.939  18.371  0.00  0.00    +0.000 A 
ATOM     27  N   UNL     1      53.058   1.646  18.369  0.00  0.00    +0.000 NA
ATOM     28  C   UNL     1      52.256   0.822  17.782  0.00  0.00    +0.000 A 
ATOM     29  N   UNL     1      51.066   1.176  17.195  0.00  0.00    +0.000 N 
ATOM     30  C   UNL     1      50.588   2.462  17.189  0.00  0.00    +0.000 A 
ATOM     31  O   UNL     1      49.506   2.737  16.680  0.00  0.00    +0.000 OA
ATOM     32  C   UNL     1      51.457   3.430  17.838  0.00  0.00    +0.000 A 
ATOM     33  H   UNL     1      50.479   0.481  16.758  0.00  0.00    +0.000 HD
ENDBRANCH  20  23
ENDBRANCH  18  19
ENDBRANCH   4  18
TORSDOF 7
ENDMDL
MODEL 2
REMARK VINA RESULT:    -7.809      2.482      3.049
REMARK INTER + INTRA:         -11.860
REMARK INTER:                 -10.928
REMARK INTRA:                  -0.932
REMARK UNBOUND:                -0.856
REMARK  Name = 
REMARK  9 active torsions:
REMARK  status: ('A' for Active; 'I' for Inactive)
REMARK    1  A    between atoms: C_1  and  C_2
REMARK    2  A    between atoms: C_6  and  C_7
REMARK    3  A    between atoms: C_7  and  N_8
REMARK    4  A    between atoms: N_8  and  C_9
REMARK    5  A    between atoms: N_8  and  C_10
REMARK    6  A    between atoms: C_10  and  C_11
REMARK    7  A    between atoms: C_14  and  C_15
REMARK    8  A    between atoms: C_15  and  N_16
REMARK    9  A    between atoms: C_17  and  C_19
REMARK                            x       y       z     vdW  Elec       q    Type
REMARK                         _______ _______ _______ _____ _____    ______ ____
ROOT
ATOM      1  C   UNL     1      45.968   4.933  12.671  0.00  0.00    +0.000 A 
ATOM      2  C   UNL     1      46.554   4.590  13.898  0.00  0.00    +0.000 A 
ATOM      3  C   UNL     1      47.593   5.359  14.430  0.00  0.00    +0.000 A 
ATOM      4  C   UNL     1      48.060   6.490  13.748  0.00  0.00    +0.000 A 
ATOM      5  C   UNL     1      47.518   6.794  12.493  0.00  0.00    +0.000 A 
ATOM      6  C   UNL     1      46.483   6.026  11.962  0.00  0.00    +0.000 A 
ENDROOT
BRANCH   1   7
ATOM      7  C   UNL     1      44.764   4.179  12.142  0.00  0.00    +0.000 C 
BRANCH   7   8
ATOM      8  N   UNL     1      44.271   4.701  10.855  0.00  0.00    +0.000 NA
ATOM      9  C   UNL     1      43.131   5.591  11.053  0.00  0.00    +0.000 C 
BRANCH   8  10
ATOM     10  C   UNL     1      43.981   3.630   9.873  0.00  0.00    +0.000 C 
BRANCH  10  16
ATOM     11  C   UNL     1      46.912   0.218   7.613  0.00  0.00    +0.000 C 
ATOM     12  C   UNL     1      46.484   1.640   7.802  0.00  0.00    +0.000 A 
ATOM     13  C   UNL     1      47.087   2.680   7.098  0.00  0.00    +0.000 A 
ATOM     14  C   UNL     1      46.652   3.973   7.329  0.00  0.00    +0.000 A 
ATOM     15  N   UNL     1      45.673   4.293   8.201  0.00  0.00    +0.000 NA
ATOM     16  C   UNL     1      45.081   3.279   8.880  0.00  0.00    +0.000 A 
ATOM     17  C   UNL     1      45.462   1.948   8.703  0.00  0.00    +0.000 A 
ENDBRANCH  10  16
ENDBRANCH   8  10
ENDBRANCH   7   8
ENDBRANCH   1   7
BRANCH   4  18
ATOM     18  C   UNL     1      49.135   7.365  14.333  0.00  0.00    +0.000 C 
BRANCH  18  19
ATOM     19  N   UNL     1      49.042   7.411  15.769  0.00  0.00    +0.000 N 
ATOM     20  C   UNL     1      49.969   6.786  16.559  0.00  0.00    +0.000 C 
ATOM     21  O   UNL     1      50.938   6.196  16.090  0.00  0.00    +0.000 OA
ATOM     22  H   UNL     1      48.142   7.671  16.160  0.00  0.00    +0.000 HD
BRANCH  20  23
ATOM     23  C   UNL     1      49.781   6.915  18.010  0.00  0.00    +0.000 A 
ATOM     24  C   UNL     1      50.041   8.130  18.630  0.00  0.00    +0.000 A 
ATOM     25  S   UNL     1      49.709   8.127  20.303  0.00  0.00    +0.000 S 
ATOM     26  C   UNL     1      49.258   6.487  20.267  0.00  0.00    +0.000 A 
ATOM     27  N   UNL     1      48.872   5.842  21.401  0.00  0.00    +0.000 NA
ATOM     28  C   UNL     1      48.580   4.596  21.233  0.00  0.00    +0.000 A 
ATOM     29  N   UNL     1      48.639   3.936  20.029  0.00  0.00    +0.000 N 
ATOM     30  C   UNL     1      49.002   4.549  18.857  0.00  0.00    +0.000 A 
ATOM     31  O   UNL     1      49.015   3.935  17.796  0.00  0.00    +0.000 OA
ATOM     32  C   UNL     1      49.344   5.955  18.993  0.00  0.00    +0.000 A 
ATOM     33  H   UNL     1      48.389   2.961  19.963  0.00  0.00    +0.000 HD
ENDBRANCH  20  23
ENDBRANCH  18  19
ENDBRANCH   4  18
TORSDOF 7
ENDMDL
MODEL 3
REMARK VINA RESULT:    -7.760      3.741      8.712
REMARK INTER + INTRA:         -11.792
REMARK INTER:                 -10.083
REMARK INTRA:                  -1.708
REMARK UNBOUND:                -0.856
REMARK  Name = 
REMARK  9 active torsions:
REMARK  status: ('A' for Active; 'I' for Inactive)
REMARK    1  A    between atoms: C_1  and  C_2
REMARK    2  A    between atoms: C_6  and  C_7
REMARK    3  A    between atoms: C_7  and  N_8
REMARK    4  A    between atoms: N_8  and  C_9
REMARK    5  A    between atoms: N_8  and  C_10
REMARK    6  A    between atoms: C_10  and  C_11
REMARK    7  A    between atoms: C_14  and  C_15
REMARK    8  A    between atoms: C_15  and  N_16
REMARK    9  A    between atoms: C_17  and  C_19
REMARK                            x       y       z     vdW  Elec       q    Type
REMARK                         _______ _______ _______ _____ _____    ______ ____
ROOT
ATOM      1  C   UNL     1      48.922   7.970  16.382  0.00  0.00    +0.000 A 
ATOM      2  C   UNL     1      48.325   9.088  15.783  0.00  0.00    +0.000 A 
ATOM      3  C   UNL     1      47.947   9.058  14.438  0.00  0.00    +0.000 A 
ATOM      4  C   UNL     1      48.151   7.904  13.670  0.00  0.00    +0.000 A 
ATOM      5  C   UNL     1      48.805   6.812  14.251  0.00  0.00    +0.000 A 
ATOM      6  C   UNL     1      49.185   6.843  15.593  0.00  0.00    +0.000 A 
ENDROOT
BRANCH   1   7
ATOM      7  C   UNL     1      49.228   7.948  17.868  0.00  0.00    +0.000 C 
BRANCH   7   8
ATOM      8  N   UNL     1      48.082   7.522  18.690  0.00  0.00    +0.000 NA
ATOM      9  C   UNL     1      47.708   8.561  19.645  0.00  0.00    +0.000 C 
BRANCH   8  10
ATOM     10  C   UNL     1      48.300   6.211  19.346  0.00  0.00    +0.000 C 
BRANCH  10  16
ATOM     11  C   UNL     1      50.671   2.271  17.299  0.00  0.00    +0.000 C 
ATOM     12  C   UNL     1      49.430   3.091  17.476  0.00  0.00    +0.000 A 
ATOM     13  C   UNL     1      48.244   2.766  16.820  0.00  0.00    +0.000 A 
ATOM     14  C   UNL     1      47.138   3.574  17.019  0.00  0.00    +0.000 A 
ATOM     15  N   UNL     1      47.137   4.665  17.812  0.00  0.00    +0.000 NA
ATOM     16  C   UNL     1      48.289   4.976  18.456  0.00  0.00    +0.000 A 
ATOM     17  C   UNL     1      49.448   4.212  18.309  0.00  0.00    +0.000 A 
ENDBRANCH  10  16
ENDBRANCH   8  10
ENDBRANCH   7   8
ENDBRANCH   1   7
BRANCH   4  18
ATOM     18  C   UNL     1      47.695   7.830  12.238  0.00  0.00    +0.000 C 
BRANCH  18  19
ATOM     19  N   UNL     1      46.985   6.605  11.981  0.00  0.00    +0.000 N 
ATOM     20  C   UNL     1      45.623   6.534  12.109  0.00  0.00    +0.000 C 
ATOM     21  O   UNL     1      44.942   7.512  12.405  0.00  0.00    +0.000 OA
ATOM     22  H   UNL     1      47.535   5.751  11.981  0.00  0.00    +0.000 HD
BRANCH  20  23
ATOM     23  C   UNL     1      45.007   5.236  11.806  0.00  0.00    +0.000 A 
ATOM     24  C   UNL     1      44.324   4.552  12.803  0.00  0.00    +0.000 A 
ATOM     25  S   UNL     1      43.614   3.096  12.267  0.00  0.00    +0.000 S 
ATOM     26  C   UNL     1      44.238   3.304  10.699  0.00  0.00    +0.000 A 
ATOM     27  N   UNL     1      44.011   2.380   9.727  0.00  0.00    +0.000 NA
ATOM     28  C   UNL     1      44.563   2.652   8.592  0.00  0.00    +0.000 A 
ATOM     29  N   UNL     1      45.324   3.768   8.342  0.00  0.00    +0.000 N 
ATOM     30  C   UNL     1      45.564   4.736   9.284  0.00  0.00    +0.000 A 
ATOM     31  O   UNL     1      46.225   5.734   9.016  0.00  0.00    +0.000 OA
ATOM     32  C   UNL     1      44.965   4.475  10.582  0.00  0.00    +0.000 A 
ATOM     33  H   UNL     1      45.722   3.927   7.428  0.00  0.00    +0.000 HD
ENDBRANCH  20  23
ENDBRANCH  18  19
ENDBRANCH   4  18
TORSDOF 7
ENDMDL
MODEL 4
REMARK VINA RESULT:    -7.666      2.714      4.025
REMARK INTER + INTRA:         -11.658
REMARK INTER:                 -10.793
REMARK INTRA:                  -0.865
REMARK UNBOUND:                -0.856
REMARK  Name = 
REMARK  9 active torsions:
REMARK  status: ('A' for Active; 'I' for Inactive)
REMARK    1  A    between atoms: C_1  and  C_2
REMARK    2  A    between atoms: C_6  and  C_7
REMARK    3  A    between atoms: C_7  and  N_8
REMARK    4  A    between atoms: N_8  and  C_9
REMARK    5  A    between atoms: N_8  and  C_10
REMARK    6  A    between atoms: C_10  and  C_11
REMARK    7  A    between atoms: C_14  and  C_15
REMARK    8  A    between atoms: C_15  and  N_16
REMARK    9  A    between atoms: C_17  and  C_19
REMARK                            x       y       z     vdW  Elec       q    Type
REMARK                         _______ _______ _______ _____ _____    ______ ____
ROOT
ATOM      1  C   UNL     1      45.864   4.593  12.556  0.00  0.00    +0.000 A 
ATOM      2  C   UNL     1      46.313   4.080  13.782  0.00  0.00    +0.000 A 
ATOM      3  C   UNL     1      47.231   4.792  14.558  0.00  0.00    +0.000 A 
ATOM      4  C   UNL     1      47.712   6.035  14.125  0.00  0.00    +0.000 A 
ATOM      5  C   UNL     1      47.313   6.516  12.872  0.00  0.00    +0.000 A 
ATOM      6  C   UNL     1      46.398   5.803  12.097  0.00  0.00    +0.000 A 
ENDROOT
BRANCH   1   7
ATOM      7  C   UNL     1      44.780   3.888  11.764  0.00  0.00    +0.000 C 
BRANCH   7   8
ATOM      8  N   UNL     1      44.264   4.693  10.643  0.00  0.00    +0.000 NA
ATOM      9  C   UNL     1      43.125   5.505  11.062  0.00  0.00    +0.000 C 
BRANCH   8  10
ATOM     10  C   UNL     1      43.959   3.879   9.442  0.00  0.00    +0.000 C 
BRANCH  10  16
ATOM     11  C   UNL     1      46.904   0.226   7.620  0.00  0.00    +0.000 C 
ATOM     12  C   UNL     1      46.546   1.676   7.719  0.00  0.00    +0.000 A 
ATOM     13  C   UNL     1      47.285   2.654   7.056  0.00  0.00    +0.000 A 
ATOM     14  C   UNL     1      46.906   3.978   7.200  0.00  0.00    +0.000 A 
ATOM     15  N   UNL     1      45.860   4.384   7.949  0.00  0.00    +0.000 NA
ATOM     16  C   UNL     1      45.137   3.430   8.588  0.00  0.00    +0.000 A 
ATOM     17  C   UNL     1      45.453   2.074   8.493  0.00  0.00    +0.000 A 
ENDBRANCH  10  16
ENDBRANCH   8  10
ENDBRANCH   7   8
ENDBRANCH   1   7
BRANCH   4  18
ATOM     18  C   UNL     1      48.653   6.845  14.974  0.00  0.00    +0.000 C 
BRANCH  18  19
ATOM     19  N   UNL     1      48.408   6.626  16.376  0.00  0.00    +0.000 N 
ATOM     20  C   UNL     1      49.294   5.926  17.149  0.00  0.00    +0.000 C 
ATOM     21  O   UNL     1      50.351   5.490  16.702  0.00  0.00    +0.000 OA
ATOM     22  H   UNL     1      47.454   6.756  16.697  0.00  0.00    +0.000 HD
BRANCH  20  23
ATOM     23  C   UNL     1      48.946   5.779  18.569  0.00  0.00    +0.000 A 
ATOM     24  C   UNL     1      49.181   4.571  19.211  0.00  0.00    +0.000 A 
ATOM     25  S   UNL     1      48.783   4.591  20.870  0.00  0.00    +0.000 S 
ATOM     26  C   UNL     1      48.233   6.198  20.774  0.00  0.00    +0.000 A 
ATOM     27  N   UNL     1      47.729   6.831  21.868  0.00  0.00    +0.000 NA
ATOM     28  C   UNL     1      47.328   8.038  21.648  0.00  0.00    +0.000 A 
ATOM     29  N   UNL     1      47.385   8.669  20.429  0.00  0.00    +0.000 N 
ATOM     30  C   UNL     1      47.902   8.079  19.304  0.00  0.00    +0.000 A 
ATOM     31  O   UNL     1      47.963   8.684  18.239  0.00  0.00    +0.000 OA
ATOM     32  C   UNL     1      48.367   6.716  19.499  0.00  0.00    +0.000 A 
ATOM     33  H   UNL     1      47.061   9.619  20.325  0.00  0.00    +0.000 HD
ENDBRANCH  20  23
ENDBRANCH  18  19
ENDBRANCH   4  18
TORSDOF 7
ENDMDL
MODEL 5
REMARK VINA RESULT:    -7.304      3.959      8.384
REMARK INTER + INTRA:         -11.149
REMARK INTER:                  -9.395
REMARK INTRA:                  -1.754
REMARK UNBOUND:                -0.856
REMARK  Name = 
REMARK  9 active torsions:
REMARK  status: ('A' for Active; 'I' for Inactive)
REMARK    1  A    between atoms: C_1  and  C_2
REMARK    2  A    between atoms: C_6  and  C_7
REMARK    3  A    between atoms: C_7  and  N_8
REMARK    4  A    between atoms: N_8  and  C_9
REMARK    5  A    between atoms: N_8  and  C_10
REMARK    6  A    between atoms: C_10  and  C_11
REMARK    7  A    between atoms: C_14  and  C_15
REMARK    8  A    between atoms: C_15  and  N_16
REMARK    9  A    between atoms: C_17  and  C_19
REMARK                            x       y       z     vdW  Elec       q    Type
REMARK                         _______ _______ _______ _____ _____    ______ ____
ROOT
ATOM      1  C   UNL     1      49.076   7.839  17.988  0.00  0.00    +0.000 A 
ATOM      2  C   UNL     1      48.387   9.032  17.725  0.00  0.00    +0.000 A 
ATOM      3  C   UNL     1      48.085   9.403  16.411  0.00  0.00    +0.000 A 
ATOM      4  C   UNL     1      48.459   8.583  15.338  0.00  0.00    +0.000 A 
ATOM      5  C   UNL     1      49.203   7.426  15.599  0.00  0.00    +0.000 A 
ATOM      6  C   UNL     1      49.506   7.057  16.909  0.00  0.00    +0.000 A 
ENDROOT
BRANCH   1   7
ATOM      7  C   UNL     1      49.304   7.367  19.411  0.00  0.00    +0.000 C 
BRANCH   7   8
ATOM      8  N   UNL     1      48.102   6.779  20.028  0.00  0.00    +0.000 NA
ATOM      9  C   UNL     1      47.786   7.438  21.291  0.00  0.00    +0.000 C 
BRANCH   8  10
ATOM     10  C   UNL     1      48.191   5.306  20.173  0.00  0.00    +0.000 C 
BRANCH  10  16
ATOM     11  C   UNL     1      50.397   2.024  17.058  0.00  0.00    +0.000 C 
ATOM     12  C   UNL     1      49.238   2.907  17.405  0.00  0.00    +0.000 A 
ATOM     13  C   UNL     1      48.131   3.016  16.567  0.00  0.00    +0.000 A 
ATOM     14  C   UNL     1      47.100   3.860  16.942  0.00  0.00    +0.000 A 
ATOM     15  N   UNL     1      47.101   4.591  18.075  0.00  0.00    +0.000 NA
ATOM     16  C   UNL     1      48.176   4.479  18.895  0.00  0.00    +0.000 A 
ATOM     17  C   UNL     1      49.256   3.649  18.588  0.00  0.00    +0.000 A 
ENDBRANCH  10  16
ENDBRANCH   8  10
ENDBRANCH   7   8
ENDBRANCH   1   7
BRANCH   4  18
ATOM     18  C   UNL     1      48.089   8.935  13.923  0.00  0.00    +0.000 C 
BRANCH  18  19
ATOM     19  N   UNL     1      46.904   8.233  13.506  0.00  0.00    +0.000 N 
ATOM     20  C   UNL     1      46.962   7.239  12.567  0.00  0.00    +0.000 C 
ATOM     21  O   UNL     1      48.022   6.872  12.067  0.00  0.00    +0.000 OA
ATOM     22  H   UNL     1      46.014   8.677  13.715  0.00  0.00    +0.000 HD
BRANCH  20  23
ATOM     23  C   UNL     1      45.691   6.583  12.233  0.00  0.00    +0.000 A 
ATOM     24  C   UNL     1      44.653   7.333  11.696  0.00  0.00    +0.000 A 
ATOM     25  S   UNL     1      43.274   6.407  11.305  0.00  0.00    +0.000 S 
ATOM     26  C   UNL     1      43.998   4.982  11.887  0.00  0.00    +0.000 A 
ATOM     27  N   UNL     1      43.330   3.797  11.863  0.00  0.00    +0.000 NA
ATOM     28  C   UNL     1      43.988   2.803  12.357  0.00  0.00    +0.000 A 
ATOM     29  N   UNL     1      45.258   2.888  12.875  0.00  0.00    +0.000 N 
ATOM     30  C   UNL     1      45.978   4.055  12.903  0.00  0.00    +0.000 A 
ATOM     31  O   UNL     1      47.121   4.087  13.347  0.00  0.00    +0.000 OA
ATOM     32  C   UNL     1      45.279   5.207  12.358  0.00  0.00    +0.000 A 
ATOM     33  H   UNL     1      45.722   2.070  13.241  0.00  0.00    +0.000 HD
ENDBRANCH  20  23
ENDBRANCH  18  19
ENDBRANCH   4  18
TORSDOF 7
ENDMDL
MODEL 6
REMARK VINA RESULT:    -7.292      2.275      2.986
REMARK INTER + INTRA:         -11.132
REMARK INTER:                  -9.987
REMARK INTRA:                  -1.144
REMARK UNBOUND:                -0.856
REMARK  Name = 
REMARK  9 active torsions:
REMARK  status: ('A' for Active; 'I' for Inactive)
REMARK    1  A    between atoms: C_1  and  C_2
REMARK    2  A    between atoms: C_6  and  C_7
REMARK    3  A    between atoms: C_7  and  N_8
REMARK    4  A    between atoms: N_8  and  C_9
REMARK    5  A    between atoms: N_8  and  C_10
REMARK    6  A    between atoms: C_10  and  C_11
REMARK    7  A    between atoms: C_14  and  C_15
REMARK    8  A    between atoms: C_15  and  N_16
REMARK    9  A    between atoms: C_17  and  C_19
REMARK                            x       y       z     vdW  Elec       q    Type
REMARK                         _______ _______ _______ _____ _____    ______ ____
ROOT
ATOM      1  C   UNL     1      46.079   5.323  12.368  0.00  0.00    +0.000 A 
ATOM      2  C   UNL     1      46.500   6.307  11.461  0.00  0.00    +0.000 A 
ATOM      3  C   UNL     1      47.608   7.110  11.747  0.00  0.00    +0.000 A 
ATOM      4  C   UNL     1      48.320   6.938  12.941  0.00  0.00    +0.000 A 
ATOM      5  C   UNL     1      47.861   6.000  13.873  0.00  0.00    +0.000 A 
ATOM      6  C   UNL     1      46.754   5.200  13.589  0.00  0.00    +0.000 A 
ENDROOT
BRANCH   1   7
ATOM      7  C   UNL     1      44.954   4.368  12.018  0.00  0.00    +0.000 C 
BRANCH   7   8
ATOM      8  N   UNL     1      44.139   4.823  10.878  0.00  0.00    +0.000 NA
ATOM      9  C   UNL     1      42.911   5.466  11.336  0.00  0.00    +0.000 C 
BRANCH   8  10
ATOM     10  C   UNL     1      43.874   3.747   9.894  0.00  0.00    +0.000 C 
BRANCH  10  16
ATOM     11  C   UNL     1      46.859   0.364   7.662  0.00  0.00    +0.000 C 
ATOM     12  C   UNL     1      46.420   1.782   7.851  0.00  0.00    +0.000 A 
ATOM     13  C   UNL     1      47.027   2.830   7.161  0.00  0.00    +0.000 A 
ATOM     14  C   UNL     1      46.580   4.119   7.391  0.00  0.00    +0.000 A 
ATOM     15  N   UNL     1      45.587   4.428   8.250  0.00  0.00    +0.000 NA
ATOM     16  C   UNL     1      44.991   3.407   8.916  0.00  0.00    +0.000 A 
ATOM     17  C   UNL     1      45.383   2.080   8.738  0.00  0.00    +0.000 A 
ENDBRANCH  10  16
ENDBRANCH   8  10
ENDBRANCH   7   8
ENDBRANCH   1   7
BRANCH   4  18
ATOM     18  C   UNL     1      49.551   7.750  13.238  0.00  0.00    +0.000 C 
BRANCH  18  19
ATOM     19  N   UNL     1      50.211   7.276  14.427  0.00  0.00    +0.000 N 
ATOM     20  C   UNL     1      50.492   8.121  15.466  0.00  0.00    +0.000 C 
ATOM     21  O   UNL     1      50.163   9.304  15.456  0.00  0.00    +0.000 OA
ATOM     22  H   UNL     1      50.701   6.389  14.354  0.00  0.00    +0.000 HD
BRANCH  20  23
ATOM     23  C   UNL     1      51.154   7.522  16.633  0.00  0.00    +0.000 A 
ATOM     24  C   UNL     1      52.482   7.825  16.899  0.00  0.00    +0.000 A 
ATOM     25  S   UNL     1      53.076   7.100  18.324  0.00  0.00    +0.000 S 
ATOM     26  C   UNL     1      51.594   6.314  18.607  0.00  0.00    +0.000 A 
ATOM     27  N   UNL     1      51.429   5.497  19.682  0.00  0.00    +0.000 NA
ATOM     28  C   UNL     1      50.263   4.948  19.761  0.00  0.00    +0.000 A 
ATOM     29  N   UNL     1      49.246   5.143  18.859  0.00  0.00    +0.000 N 
ATOM     30  C   UNL     1      49.359   5.971  17.771  0.00  0.00    +0.000 A 
ATOM     31  O   UNL     1      48.419   6.144  17.002  0.00  0.00    +0.000 OA
ATOM     32  C   UNL     1      50.655   6.614  17.636  0.00  0.00    +0.000 A 
ATOM     33  H   UNL     1      48.352   4.689  18.982  0.00  0.00    +0.000 HD
ENDBRANCH  20  23
ENDBRANCH  18  19
ENDBRANCH   4  18
TORSDOF 7
ENDMDL
MODEL 7
REMARK VINA RESULT:    -7.212      3.513      9.068
REMARK INTER + INTRA:         -11.018
REMARK INTER:                  -9.541
REMARK INTRA:                  -1.477
REMARK UNBOUND:                -0.856
REMARK  Name = 
REMARK  9 active torsions:
REMARK  status: ('A' for Active; 'I' for Inactive)
REMARK    1  A    between atoms: C_1  and  C_2
REMARK    2  A    between atoms: C_6  and  C_7
REMARK    3  A    between atoms: C_7  and  N_8
REMARK    4  A    between atoms: N_8  and  C_9
REMARK    5  A    between atoms: N_8  and  C_10
REMARK    6  A    between atoms: C_10  and  C_11
REMARK    7  A    between atoms: C_14  and  C_15
REMARK    8  A    between atoms: C_15  and  N_16
REMARK    9  A    between atoms: C_17  and  C_19
REMARK                            x       y       z     vdW  Elec       q    Type
REMARK                         _______ _______ _______ _____ _____    ______ ____
ROOT
ATOM      1  C   UNL     1      50.474   7.536  15.227  0.00  0.00    +0.000 A 
ATOM      2  C   UNL     1      50.880   8.036  13.982  0.00  0.00    +0.000 A 
ATOM      3  C   UNL     1      49.978   8.107  12.916  0.00  0.00    +0.000 A 
ATOM      4  C   UNL     1      48.652   7.686  13.079  0.00  0.00    +0.000 A 
ATOM      5  C   UNL     1      48.266   7.127  14.303  0.00  0.00    +0.000 A 
ATOM      6  C   UNL     1      49.166   7.055  15.366  0.00  0.00    +0.000 A 
ENDROOT
BRANCH   1   7
ATOM      7  C   UNL     1      51.407   7.564  16.423  0.00  0.00    +0.000 C 
BRANCH   7   8
ATOM      8  N   UNL     1      50.709   7.391  17.709  0.00  0.00    +0.000 NA
ATOM      9  C   UNL     1      50.750   8.620  18.496  0.00  0.00    +0.000 C 
BRANCH   8  10
ATOM     10  C   UNL     1      51.195   6.219  18.474  0.00  0.00    +0.000 C 
BRANCH  10  16
ATOM     11  C   UNL     1      47.416   3.082  17.371  0.00  0.00    +0.000 C 
ATOM     12  C   UNL     1      48.882   3.348  17.513  0.00  0.00    +0.000 A 
ATOM     13  C   UNL     1      49.828   2.353  17.275  0.00  0.00    +0.000 A 
ATOM     14  C   UNL     1      51.167   2.663  17.437  0.00  0.00    +0.000 A 
ATOM     15  N   UNL     1      51.617   3.877  17.815  0.00  0.00    +0.000 NA
ATOM     16  C   UNL     1      50.696   4.848  18.039  0.00  0.00    +0.000 A 
ATOM     17  C   UNL     1      49.328   4.615  17.897  0.00  0.00    +0.000 A 
ENDBRANCH  10  16
ENDBRANCH   8  10
ENDBRANCH   7   8
ENDBRANCH   1   7
BRANCH   4  18
ATOM     18  C   UNL     1      47.651   7.811  11.963  0.00  0.00    +0.000 C 
BRANCH  18  19
ATOM     19  N   UNL     1      46.954   6.570  11.749  0.00  0.00    +0.000 N 
ATOM     20  C   UNL     1      45.595   6.486  11.895  0.00  0.00    +0.000 C 
ATOM     21  O   UNL     1      44.905   7.463  12.173  0.00  0.00    +0.000 OA
ATOM     22  H   UNL     1      47.515   5.724  11.764  0.00  0.00    +0.000 HD
BRANCH  20  23
ATOM     23  C   UNL     1      44.992   5.173  11.635  0.00  0.00    +0.000 A 
ATOM     24  C   UNL     1      44.316   4.515  12.654  0.00  0.00    +0.000 A 
ATOM     25  S   UNL     1      43.620   3.035  12.167  0.00  0.00    +0.000 S 
ATOM     26  C   UNL     1      44.243   3.198  10.592  0.00  0.00    +0.000 A 
ATOM     27  N   UNL     1      44.026   2.239   9.651  0.00  0.00    +0.000 NA
ATOM     28  C   UNL     1      44.575   2.480   8.508  0.00  0.00    +0.000 A 
ATOM     29  N   UNL     1      45.325   3.594   8.221  0.00  0.00    +0.000 N 
ATOM     30  C   UNL     1      45.555   4.595   9.131  0.00  0.00    +0.000 A 
ATOM     31  O   UNL     1      46.206   5.591   8.830  0.00  0.00    +0.000 OA
ATOM     32  C   UNL     1      44.958   4.371  10.437  0.00  0.00    +0.000 A 
ATOM     33  H   UNL     1      45.722   3.727   7.303  0.00  0.00    +0.000 HD
ENDBRANCH  20  23
ENDBRANCH  18  19
ENDBRANCH   4  18
TORSDOF 7
ENDMDL
MODEL 8
REMARK VINA RESULT:    -7.173      3.478      4.064
REMARK INTER + INTRA:         -10.964
REMARK INTER:                 -10.104
REMARK INTRA:                  -0.861
REMARK UNBOUND:                -0.856
REMARK  Name = 
REMARK  9 active torsions:
REMARK  status: ('A' for Active; 'I' for Inactive)
REMARK    1  A    between atoms: C_1  and  C_2
REMARK    2  A    between atoms: C_6  and  C_7
REMARK    3  A    between atoms: C_7  and  N_8
REMARK    4  A    between atoms: N_8  and  C_9
REMARK    5  A    between atoms: N_8  and  C_10
REMARK    6  A    between atoms: C_10  and  C_11
REMARK    7  A    between atoms: C_14  and  C_15
REMARK    8  A    between atoms: C_15  and  N_16
REMARK    9  A    between atoms: C_17  and  C_19
REMARK                            x       y       z     vdW  Elec       q    Type
REMARK                         _______ _______ _______ _____ _____    ______ ____
ROOT
ATOM      1  C   UNL     1      46.270   6.266  12.521  0.00  0.00    +0.000 A 
ATOM      2  C   UNL     1      47.537   6.089  13.094  0.00  0.00    +0.000 A 
ATOM      3  C   UNL     1      48.163   7.139  13.774  0.00  0.00    +0.000 A 
ATOM      4  C   UNL     1      47.527   8.381  13.900  0.00  0.00    +0.000 A 
ATOM      5  C   UNL     1      46.292   8.575  13.271  0.00  0.00    +0.000 A 
ATOM      6  C   UNL     1      45.669   7.529  12.591  0.00  0.00    +0.000 A 
ENDROOT
BRANCH   1   7
ATOM      7  C   UNL     1      45.531   5.104  11.885  0.00  0.00    +0.000 C 
BRANCH   7   8
ATOM      8  N   UNL     1      44.075   5.317  11.803  0.00  0.00    +0.000 NA
ATOM      9  C   UNL     1      43.386   4.649  12.902  0.00  0.00    +0.000 C 
BRANCH   8  10
ATOM     10  C   UNL     1      43.513   4.947  10.483  0.00  0.00    +0.000 C 
BRANCH  10  16
ATOM     11  C   UNL     1      46.726   3.746   6.798  0.00  0.00    +0.000 C 
ATOM     12  C   UNL     1      45.807   3.332   7.905  0.00  0.00    +0.000 A 
ATOM     13  C   UNL     1      45.597   1.989   8.211  0.00  0.00    +0.000 A 
ATOM     14  C   UNL     1      44.725   1.675   9.238  0.00  0.00    +0.000 A 
ATOM     15  N   UNL     1      44.057   2.594   9.966  0.00  0.00    +0.000 NA
ATOM     16  C   UNL     1      44.268   3.901   9.672  0.00  0.00    +0.000 A 
ATOM     17  C   UNL     1      45.132   4.300   8.652  0.00  0.00    +0.000 A 
ENDBRANCH  10  16
ENDBRANCH   8  10
ENDBRANCH   7   8
ENDBRANCH   1   7
BRANCH   4  18
ATOM     18  C   UNL     1      48.157   9.503  14.680  0.00  0.00    +0.000 C 
BRANCH  18  19
ATOM     19  N   UNL     1      47.856   9.392  16.083  0.00  0.00    +0.000 N 
ATOM     20  C   UNL     1      48.754   8.844  16.960  0.00  0.00    +0.000 C 
ATOM     21  O   UNL     1      49.865   8.461  16.604  0.00  0.00    +0.000 OA
ATOM     22  H   UNL     1      46.879   9.469  16.347  0.00  0.00    +0.000 HD
BRANCH  20  23
ATOM     23  C   UNL     1      48.344   8.798  18.369  0.00  0.00    +0.000 A 
ATOM     24  C   UNL     1      48.239   9.980  19.091  0.00  0.00    +0.000 A 
ATOM     25  S   UNL     1      47.688   9.755  20.690  0.00  0.00    +0.000 S 
ATOM     26  C   UNL     1      47.623   8.067  20.489  0.00  0.00    +0.000 A 
ATOM     27  N   UNL     1      47.239   7.255  21.511  0.00  0.00    +0.000 NA
ATOM     28  C   UNL     1      47.257   5.996  21.227  0.00  0.00    +0.000 A 
ATOM     29  N   UNL     1      47.627   5.475  20.011  0.00  0.00    +0.000 N 
ATOM     30  C   UNL     1      48.003   6.254  18.947  0.00  0.00    +0.000 A 
ATOM     31  O   UNL     1      48.299   5.755  17.866  0.00  0.00    +0.000 OA
ATOM     32  C   UNL     1      48.000   7.683  19.215  0.00  0.00    +0.000 A 
ATOM     33  H   UNL     1      47.613   4.479  19.850  0.00  0.00    +0.000 HD
ENDBRANCH  20  23
ENDBRANCH  18  19
ENDBRANCH   4  18
TORSDOF 7
ENDMDL
MODEL 9
REMARK VINA RESULT:    -7.126      2.538      3.325
REMARK INTER + INTRA:         -10.898
REMARK INTER:                 -11.145
REMARK INTRA:                   0.247
REMARK UNBOUND:                -0.856
REMARK  Name = 
REMARK  9 active torsions:
REMARK  status: ('A' for Active; 'I' for Inactive)
REMARK    1  A    between atoms: C_1  and  C_2
REMARK    2  A    between atoms: C_6  and  C_7
REMARK    3  A    between atoms: C_7  and  N_8
REMARK    4  A    between atoms: N_8  and  C_9
REMARK    5  A    between atoms: N_8  and  C_10
REMARK    6  A    between atoms: C_10  and  C_11
REMARK    7  A    between atoms: C_14  and  C_15
REMARK    8  A    between atoms: C_15  and  N_16
REMARK    9  A    between atoms: C_17  and  C_19
REMARK                            x       y       z     vdW  Elec       q    Type
REMARK                         _______ _______ _______ _____ _____    ______ ____
ROOT
ATOM      1  C   UNL     1      44.555   5.995  11.535  0.00  0.00    +0.000 A 
ATOM      2  C   UNL     1      45.496   5.415  12.398  0.00  0.00    +0.000 A 
ATOM      3  C   UNL     1      46.427   6.210  13.073  0.00  0.00    +0.000 A 
ATOM      4  C   UNL     1      46.427   7.601  12.904  0.00  0.00    +0.000 A 
ATOM      5  C   UNL     1      45.529   8.171  11.994  0.00  0.00    +0.000 A 
ATOM      6  C   UNL     1      44.602   7.377  11.319  0.00  0.00    +0.000 A 
ENDROOT
BRANCH   1   7
ATOM      7  C   UNL     1      43.466   5.158  10.890  0.00  0.00    +0.000 C 
BRANCH   7   8
ATOM      8  N   UNL     1      43.987   4.161   9.938  0.00  0.00    +0.000 NA
ATOM      9  C   UNL     1      43.959   2.821  10.516  0.00  0.00    +0.000 C 
BRANCH   8  10
ATOM     10  C   UNL     1      45.326   4.515   9.409  0.00  0.00    +0.000 C 
BRANCH  10  16
ATOM     11  C   UNL     1      46.767   0.009   7.688  0.00  0.00    +0.000 C 
ATOM     12  C   UNL     1      46.579   1.479   7.478  0.00  0.00    +0.000 A 
ATOM     13  C   UNL     1      46.931   2.093   6.277  0.00  0.00    +0.000 A 
ATOM     14  C   UNL     1      46.743   3.458   6.154  0.00  0.00    +0.000 A 
ATOM     15  N   UNL     1      46.238   4.239   7.131  0.00  0.00    +0.000 NA
ATOM     16  C   UNL     1      45.889   3.640   8.297  0.00  0.00    +0.000 A 
ATOM     17  C   UNL     1      46.047   2.269   8.500  0.00  0.00    +0.000 A 
ENDBRANCH  10  16
ENDBRANCH   8  10
ENDBRANCH   7   8
ENDBRANCH   1   7
BRANCH   4  18
ATOM     18  C   UNL     1      47.379   8.479  13.669  0.00  0.00    +0.000 C 
BRANCH  18  19
ATOM     19  N   UNL     1      47.713   7.896  14.943  0.00  0.00    +0.000 N 
ATOM     20  C   UNL     1      48.833   7.124  15.097  0.00  0.00    +0.000 C 
ATOM     21  O   UNL     1      49.622   6.924  14.178  0.00  0.00    +0.000 OA
ATOM     22  H   UNL     1      46.967   7.843  15.629  0.00  0.00    +0.000 HD
BRANCH  20  23
ATOM     23  C   UNL     1      49.080   6.596  16.446  0.00  0.00    +0.000 A 
ATOM     24  C   UNL     1      49.743   7.383  17.378  0.00  0.00    +0.000 A 
ATOM     25  S   UNL     1      49.889   6.648  18.911  0.00  0.00    +0.000 S 
ATOM     26  C   UNL     1      49.117   5.233  18.366  0.00  0.00    +0.000 A 
ATOM     27  N   UNL     1      48.933   4.172  19.198  0.00  0.00    +0.000 NA
ATOM     28  C   UNL     1      48.356   3.157  18.647  0.00  0.00    +0.000 A 
ATOM     29  N   UNL     1      47.946   3.107  17.337  0.00  0.00    +0.000 N 
ATOM     30  C   UNL     1      48.093   4.158  16.467  0.00  0.00    +0.000 A 
ATOM     31  O   UNL     1      47.689   4.088  15.311  0.00  0.00    +0.000 OA
ATOM     32  C   UNL     1      48.740   5.327  17.039  0.00  0.00    +0.000 A 
ATOM     33  H   UNL     1      47.493   2.285  16.969  0.00  0.00    +0.000 HD
ENDBRANCH  20  23
ENDBRANCH  18  19
ENDBRANCH   4  18
TORSDOF 7
ENDMDL
