MODEL 1
REMARK VINA RESULT:    -8.382      0.000      0.000
REMARK INTER + INTRA:         -12.450
REMARK INTER:                 -11.323
REMARK INTRA:                  -1.127
REMARK UNBOUND:                -1.127
REMARK  Name = 
REMARK  7 active torsions:
REMARK  status: ('A' for Active; 'I' for Inactive)
REMARK    1  A    between atoms: C_1  and  C_2
REMARK    2  A    between atoms: C_2  and  N_3
REMARK    3  A    between atoms: C_2  and  C_16
REMARK    4  A    between atoms: C_4  and  C_6
REMARK    5  A    between atoms: C_19  and  C_20
REMARK    6  A    between atoms: C_20  and  N_21
REMARK    7  A    between atoms: C_22  and  C_24
REMARK                            x       y       z     vdW  Elec       q    Type
REMARK                         _______ _______ _______ _____ _____    ______ ____
ROOT
ATOM      1  C   UNL     1      45.970   6.829  12.018  0.00  0.00    +0.000 A 
ATOM      2  C   UNL     1      44.838   6.161  12.498  0.00  0.00    +0.000 A 
ATOM      3  C   UNL     1      44.198   5.188  11.720  0.00  0.00    +0.000 A 
ATOM      4  C   UNL     1      44.681   4.858  10.446  0.00  0.00    +0.000 A 
ATOM      5  C   UNL     1      45.811   5.527   9.960  0.00  0.00    +0.000 A 
ATOM      6  C   UNL     1      46.450   6.496  10.738  0.00  0.00    +0.000 A 
ENDROOT
BRANCH   1   8
ATOM      7  C   UNL     1      45.655   9.075  13.095  0.00  0.00    +0.000 C 
ATOM      8  C   UNL     1      46.639   7.928  12.838  0.00  0.00    +0.000 C 
BRANCH   8   9
ATOM      9  N   UNL     1      47.153   7.341  14.066  0.00  0.00    +0.000 N 
ATOM     10  C   UNL     1      48.383   6.744  14.176  0.00  0.00    +0.000 C 
ATOM     11  O   UNL     1      49.188   6.693  13.251  0.00  0.00    +0.000 OA
ATOM     12  H   UNL     1      46.445   7.066  14.739  0.00  0.00    +0.000 HD
BRANCH  10  13
ATOM     13  C   UNL     1      48.722   6.231  15.509  0.00  0.00    +0.000 A 
ATOM     14  C   UNL     1      49.698   6.863  16.267  0.00  0.00    +0.000 A 
ATOM     15  S   UNL     1      49.924   6.164  17.806  0.00  0.00    +0.000 S 
ATOM     16  C   UNL     1      48.758   4.965  17.495  0.00  0.00    +0.000 A 
ATOM     17  N   UNL     1      48.473   4.007  18.417  0.00  0.00    +0.000 NA
ATOM     18  C   UNL     1      47.587   3.146  18.036  0.00  0.00    +0.000 A 
ATOM     19  N   UNL     1      46.959   3.160  16.819  0.00  0.00    +0.000 N 
ATOM     20  C   UNL     1      47.195   4.123  15.868  0.00  0.00    +0.000 A 
ATOM     21  O   UNL     1      46.582   4.137  14.805  0.00  0.00    +0.000 OA
ATOM     22  C   UNL     1      48.191   5.108  16.243  0.00  0.00    +0.000 A 
ATOM     23  H   UNL     1      46.267   2.462  16.586  0.00  0.00    +0.000 HD
ENDBRANCH  10  13
ENDBRANCH   8   9
ENDBRANCH   1   8
BRANCH   4  24
ATOM     24  C   UNL     1      43.969   3.850   9.582  0.00  0.00    +0.000 C 
BRANCH  24  25
ATOM     25  N   UNL     1      44.762   3.521   8.417  0.00  0.00    +0.000 N 
ATOM     26  C   UNL     1      45.636   2.463   8.413  0.00  0.00    +0.000 C 
ATOM     27  O   UNL     1      45.777   1.719   9.381  0.00  0.00    +0.000 OA
ATOM     28  H   UNL     1      44.707   4.152   7.627  0.00  0.00    +0.000 HD
BRANCH  26  29
ATOM     29  C   UNL     1      46.386   2.182   7.161  0.00  0.00    +0.000 A 
ATOM     30  C   UNL     1      46.542   3.240   6.251  0.00  0.00    +0.000 A 
ATOM     31  C   UNL     1      47.268   3.054   5.075  0.00  0.00    +0.000 A 
ATOM     32  C   UNL     1      47.814   1.807   4.834  0.00  0.00    +0.000 A 
ATOM     33  N   UNL     1      47.670   0.758   5.670  0.00  0.00    +0.000 NA
ATOM     34  C   UNL     1      46.955   0.966   6.806  0.00  0.00    +0.000 A 
ATOM     35 CL   UNL     1      46.822  -0.488   7.725  0.00  0.00    +0.000 Cl
ENDBRANCH  26  29
ENDBRANCH  24  25
ENDBRANCH   4  24
TORSDOF 6
ENDMDL
MODEL 2
REMARK VINA RESULT:    -7.710      1.828      2.439
REMARK INTER + INTRA:         -11.542
REMARK INTER:                 -10.773
REMARK INTRA:                  -0.769
REMARK UNBOUND:                -1.127
REMARK  Name = 
REMARK  7 active torsions:
REMARK  status: ('A' for Active; 'I' for Inactive)
REMARK    1  A    between atoms: C_1  and  C_2
REMARK    2  A    between atoms: C_2  and  N_3
REMARK    3  A    between atoms: C_2  and  C_16
REMARK    4  A    between atoms: C_4  and  C_6
REMARK    5  A    between atoms: C_19  and  C_20
REMARK    6  A    between atoms: C_20  and  N_21
REMARK    7  A    between atoms: C_22  and  C_24
REMARK                            x       y       z     vdW  Elec       q    Type
REMARK                         _______ _______ _______ _____ _____    ______ ____
ROOT
ATOM      1  C   UNL     1      46.800   6.251  12.801  0.00  0.00    +0.000 A 
ATOM      2  C   UNL     1      46.596   6.716  11.496  0.00  0.00    +0.000 A 
ATOM      3  C   UNL     1      45.785   6.005  10.603  0.00  0.00    +0.000 A 
ATOM      4  C   UNL     1      45.154   4.817  10.997  0.00  0.00    +0.000 A 
ATOM      5  C   UNL     1      45.358   4.347  12.300  0.00  0.00    +0.000 A 
ATOM      6  C   UNL     1      46.166   5.057  13.191  0.00  0.00    +0.000 A 
ENDROOT
BRANCH   1   8
ATOM      7  C   UNL     1      47.265   8.443  13.931  0.00  0.00    +0.000 C 
ATOM      8  C   UNL     1      47.725   6.991  13.761  0.00  0.00    +0.000 C 
BRANCH   8   9
ATOM      9  N   UNL     1      47.767   6.262  15.020  0.00  0.00    +0.000 N 
ATOM     10  C   UNL     1      48.900   6.097  15.774  0.00  0.00    +0.000 C 
ATOM     11  O   UNL     1      49.982   6.594  15.477  0.00  0.00    +0.000 OA
ATOM     12  H   UNL     1      47.026   5.580  15.144  0.00  0.00    +0.000 HD
BRANCH  10  13
ATOM     13  C   UNL     1      48.726   5.344  17.023  0.00  0.00    +0.000 A 
ATOM     14  C   UNL     1      48.532   3.970  16.982  0.00  0.00    +0.000 A 
ATOM     15  S   UNL     1      48.400   3.255  18.525  0.00  0.00    +0.000 S 
ATOM     16  C   UNL     1      48.552   4.763  19.299  0.00  0.00    +0.000 A 
ATOM     17  N   UNL     1      48.501   4.865  20.654  0.00  0.00    +0.000 NA
ATOM     18  C   UNL     1      48.603   6.073  21.102  0.00  0.00    +0.000 A 
ATOM     19  N   UNL     1      48.756   7.186  20.319  0.00  0.00    +0.000 N 
ATOM     20  C   UNL     1      48.841   7.128  18.949  0.00  0.00    +0.000 A 
ATOM     21  O   UNL     1      49.027   8.137  18.275  0.00  0.00    +0.000 OA
ATOM     22  C   UNL     1      48.721   5.794  18.394  0.00  0.00    +0.000 A 
ATOM     23  H   UNL     1      48.841   8.103  20.733  0.00  0.00    +0.000 HD
ENDBRANCH  10  13
ENDBRANCH   8   9
ENDBRANCH   1   8
BRANCH   4  24
ATOM     24  C   UNL     1      44.322   4.020  10.027  0.00  0.00    +0.000 C 
BRANCH  24  25
ATOM     25  N   UNL     1      45.076   3.717   8.831  0.00  0.00    +0.000 N 
ATOM     26  C   UNL     1      45.571   2.460   8.587  0.00  0.00    +0.000 C 
ATOM     27  O   UNL     1      45.380   1.515   9.349  0.00  0.00    +0.000 OA
ATOM     28  H   UNL     1      45.297   4.490   8.215  0.00  0.00    +0.000 HD
BRANCH  26  29
ATOM     29  C   UNL     1      46.309   2.235   7.315  0.00  0.00    +0.000 A 
ATOM     30  C   UNL     1      46.424   3.322   6.435  0.00  0.00    +0.000 A 
ATOM     31  C   UNL     1      47.136   3.190   5.244  0.00  0.00    +0.000 A 
ATOM     32  C   UNL     1      47.710   1.965   4.958  0.00  0.00    +0.000 A 
ATOM     33  N   UNL     1      47.607   0.888   5.765  0.00  0.00    +0.000 NA
ATOM     34  C   UNL     1      46.904   1.045   6.917  0.00  0.00    +0.000 A 
ATOM     35 CL   UNL     1      46.821  -0.438   7.795  0.00  0.00    +0.000 Cl
ENDBRANCH  26  29
ENDBRANCH  24  25
ENDBRANCH   4  24
TORSDOF 6
ENDMDL
MODEL 3
REMARK VINA RESULT:    -7.559      3.940      8.515
REMARK INTER + INTRA:         -11.338
REMARK INTER:                 -10.253
REMARK INTRA:                  -1.085
REMARK UNBOUND:                -1.127
REMARK  Name = 
REMARK  7 active torsions:
REMARK  status: ('A' for Active; 'I' for Inactive)
REMARK    1  A    between atoms: C_1  and  C_2
REMARK    2  A    between atoms: C_2  and  N_3
REMARK    3  A    between atoms: C_2  and  C_16
REMARK    4  A    between atoms: C_4  and  C_6
REMARK    5  A    between atoms: C_19  and  C_20
REMARK    6  A    between atoms: C_20  and  N_21
REMARK    7  A    between atoms: C_22  and  C_24
REMARK                            x       y       z     vdW  Elec       q    Type
REMARK                         _______ _______ _______ _____ _____    ______ ____
ROOT
ATOM      1  C   UNL     1      48.343   7.422  14.039  0.00  0.00    +0.000 A 
ATOM      2  C   UNL     1      47.968   6.154  14.500  0.00  0.00    +0.000 A 
ATOM      3  C   UNL     1      48.245   5.760  15.816  0.00  0.00    +0.000 A 
ATOM      4  C   UNL     1      48.898   6.629  16.700  0.00  0.00    +0.000 A 
ATOM      5  C   UNL     1      49.279   7.896  16.242  0.00  0.00    +0.000 A 
ATOM      6  C   UNL     1      49.000   8.288  14.931  0.00  0.00    +0.000 A 
ENDROOT
BRANCH   1   8
ATOM      7  C   UNL     1      49.417   8.171  11.898  0.00  0.00    +0.000 C 
ATOM      8  C   UNL     1      48.093   7.835  12.593  0.00  0.00    +0.000 C 
BRANCH   8   9
ATOM      9  N   UNL     1      47.361   6.769  11.926  0.00  0.00    +0.000 N 
ATOM     10  C   UNL     1      46.055   6.871  11.521  0.00  0.00    +0.000 C 
ATOM     11  O   UNL     1      45.393   7.897  11.644  0.00  0.00    +0.000 OA
ATOM     12  H   UNL     1      47.723   5.835  12.088  0.00  0.00    +0.000 HD
BRANCH  10  13
ATOM     13  C   UNL     1      45.506   5.687  10.848  0.00  0.00    +0.000 A 
ATOM     14  C   UNL     1      45.693   5.518   9.483  0.00  0.00    +0.000 A 
ATOM     15  S   UNL     1      45.033   4.065   8.880  0.00  0.00    +0.000 S 
ATOM     16  C   UNL     1      44.435   3.635  10.414  0.00  0.00    +0.000 A 
ATOM     17  N   UNL     1      43.732   2.484  10.596  0.00  0.00    +0.000 NA
ATOM     18  C   UNL     1      43.317   2.299  11.806  0.00  0.00    +0.000 A 
ATOM     19  N   UNL     1      43.543   3.157  12.849  0.00  0.00    +0.000 N 
ATOM     20  C   UNL     1      44.270   4.315  12.718  0.00  0.00    +0.000 A 
ATOM     21  O   UNL     1      44.498   5.041  13.681  0.00  0.00    +0.000 OA
ATOM     22  C   UNL     1      44.751   4.576  11.375  0.00  0.00    +0.000 A 
ATOM     23  H   UNL     1      43.199   2.948  13.776  0.00  0.00    +0.000 HD
ENDBRANCH  10  13
ENDBRANCH   8   9
ENDBRANCH   1   8
BRANCH   4  24
ATOM     24  C   UNL     1      49.247   6.195  18.101  0.00  0.00    +0.000 C 
BRANCH  24  25
ATOM     25  N   UNL     1      49.827   4.870  18.098  0.00  0.00    +0.000 N 
ATOM     26  C   UNL     1      51.082   4.632  17.593  0.00  0.00    +0.000 C 
ATOM     27  O   UNL     1      51.793   5.526  17.142  0.00  0.00    +0.000 OA
ATOM     28  H   UNL     1      49.240   4.107  18.411  0.00  0.00    +0.000 HD
BRANCH  26  29
ATOM     29  C   UNL     1      51.608   3.243  17.661  0.00  0.00    +0.000 A 
ATOM     30  C   UNL     1      52.913   3.070  18.148  0.00  0.00    +0.000 A 
ATOM     31  C   UNL     1      53.453   1.791  18.274  0.00  0.00    +0.000 A 
ATOM     32  C   UNL     1      52.674   0.713  17.898  0.00  0.00    +0.000 A 
ATOM     33  N   UNL     1      51.424   0.834  17.405  0.00  0.00    +0.000 NA
ATOM     34  C   UNL     1      50.924   2.093  17.290  0.00  0.00    +0.000 A 
ATOM     35 CL   UNL     1      49.347   2.068  16.591  0.00  0.00    +0.000 Cl
ENDBRANCH  26  29
ENDBRANCH  24  25
ENDBRANCH   4  24
TORSDOF 6
ENDMDL
MODEL 4
REMARK VINA RESULT:    -7.496      3.757      5.426
REMARK INTER + INTRA:         -11.253
REMARK INTER:                 -10.013
REMARK INTRA:                  -1.240
REMARK UNBOUND:                -1.127
REMARK  Name = 
REMARK  7 active torsions:
REMARK  status: ('A' for Active; 'I' for Inactive)
REMARK    1  A    between atoms: C_1  and  C_2
REMARK    2  A    between atoms: C_2  and  N_3
REMARK    3  A    between atoms: C_2  and  C_16
REMARK    4  A    between atoms: C_4  and  C_6
REMARK    5  A    between atoms: C_19  and  C_20
REMARK    6  A    between atoms: C_20  and  N_21
REMARK    7  A    between atoms: C_22  and  C_24
REMARK                            x       y       z     vdW  Elec       q    Type
REMARK                         _______ _______ _______ _____ _____    ______ ____
ROOT
ATOM      1  C   UNL     1      48.166   4.949  16.267  0.00  0.00    +0.000 A 
ATOM      2  C   UNL     1      47.172   4.354  15.479  0.00  0.00    +0.000 A 
ATOM      3  C   UNL     1      46.750   4.957  14.287  0.00  0.00    +0.000 A 
ATOM      4  C   UNL     1      47.318   6.163  13.855  0.00  0.00    +0.000 A 
ATOM      5  C   UNL     1      48.308   6.763  14.642  0.00  0.00    +0.000 A 
ATOM      6  C   UNL     1      48.730   6.160  15.829  0.00  0.00    +0.000 A 
ENDROOT
BRANCH   1   8
ATOM      7  C   UNL     1      47.708   3.117  17.921  0.00  0.00    +0.000 C 
ATOM      8  C   UNL     1      48.591   4.326  17.593  0.00  0.00    +0.000 C 
BRANCH   8   9
ATOM      9  N   UNL     1      50.004   3.987  17.514  0.00  0.00    +0.000 N 
ATOM     10  C   UNL     1      50.900   4.189  18.532  0.00  0.00    +0.000 C 
ATOM     11  O   UNL     1      50.579   4.635  19.630  0.00  0.00    +0.000 OA
ATOM     12  H   UNL     1      50.379   3.932  16.573  0.00  0.00    +0.000 HD
BRANCH  10  13
ATOM     13  C   UNL     1      52.277   3.759  18.259  0.00  0.00    +0.000 A 
ATOM     14  C   UNL     1      53.327   4.652  18.427  0.00  0.00    +0.000 A 
ATOM     15  S   UNL     1      54.859   3.968  18.114  0.00  0.00    +0.000 S 
ATOM     16  C   UNL     1      54.167   2.470  17.698  0.00  0.00    +0.000 A 
ATOM     17  N   UNL     1      54.942   1.425  17.302  0.00  0.00    +0.000 NA
ATOM     18  C   UNL     1      54.282   0.359  16.991  0.00  0.00    +0.000 A 
ATOM     19  N   UNL     1      52.917   0.242  17.045  0.00  0.00    +0.000 N 
ATOM     20  C   UNL     1      52.098   1.261  17.465  0.00  0.00    +0.000 A 
ATOM     21  O   UNL     1      50.882   1.112  17.548  0.00  0.00    +0.000 OA
ATOM     22  C   UNL     1      52.790   2.486  17.815  0.00  0.00    +0.000 A 
ATOM     23  H   UNL     1      52.462  -0.625  16.797  0.00  0.00    +0.000 HD
ENDBRANCH  10  13
ENDBRANCH   8   9
ENDBRANCH   1   8
BRANCH   4  24
ATOM     24  C   UNL     1      46.833   6.844  12.601  0.00  0.00    +0.000 C 
BRANCH  24  25
ATOM     25  N   UNL     1      46.579   5.876  11.556  0.00  0.00    +0.000 N 
ATOM     26  C   UNL     1      45.309   5.615  11.105  0.00  0.00    +0.000 C 
ATOM     27  O   UNL     1      44.321   6.203  11.537  0.00  0.00    +0.000 OA
ATOM     28  H   UNL     1      47.369   5.336  11.223  0.00  0.00    +0.000 HD
BRANCH  26  29
ATOM     29  C   UNL     1      45.148   4.626  10.007  0.00  0.00    +0.000 A 
ATOM     30  C   UNL     1      45.808   4.892   8.796  0.00  0.00    +0.000 A 
ATOM     31  C   UNL     1      45.730   3.986   7.740  0.00  0.00    +0.000 A 
ATOM     32  C   UNL     1      44.983   2.836   7.918  0.00  0.00    +0.000 A 
ATOM     33  N   UNL     1      44.316   2.551   9.056  0.00  0.00    +0.000 NA
ATOM     34  C   UNL     1      44.406   3.453  10.068  0.00  0.00    +0.000 A 
ATOM     35 CL   UNL     1      43.450   2.963  11.417  0.00  0.00    +0.000 Cl
ENDBRANCH  26  29
ENDBRANCH  24  25
ENDBRANCH   4  24
TORSDOF 6
ENDMDL
MODEL 5
REMARK VINA RESULT:    -7.480      3.673      8.874
REMARK INTER + INTRA:         -11.230
REMARK INTER:                 -10.051
REMARK INTRA:                  -1.180
REMARK UNBOUND:                -1.127
REMARK  Name = 
REMARK  7 active torsions:
REMARK  status: ('A' for Active; 'I' for Inactive)
REMARK    1  A    between atoms: C_1  and  C_2
REMARK    2  A    between atoms: C_2  and  N_3
REMARK    3  A    between atoms: C_2  and  C_16
REMARK    4  A    between atoms: C_4  and  C_6
REMARK    5  A    between atoms: C_19  and  C_20
REMARK    6  A    between atoms: C_20  and  N_21
REMARK    7  A    between atoms: C_22  and  C_24
REMARK                            x       y       z     vdW  Elec       q    Type
REMARK                         _______ _______ _______ _____ _____    ______ ____
ROOT
ATOM      1  C   UNL     1      48.425   7.574  13.833  0.00  0.00    +0.000 A 
ATOM      2  C   UNL     1      48.118   6.518  14.701  0.00  0.00    +0.000 A 
ATOM      3  C   UNL     1      48.886   6.291  15.850  0.00  0.00    +0.000 A 
ATOM      4  C   UNL     1      49.973   7.119  16.160  0.00  0.00    +0.000 A 
ATOM      5  C   UNL     1      50.286   8.173  15.293  0.00  0.00    +0.000 A 
ATOM      6  C   UNL     1      49.519   8.400  14.148  0.00  0.00    +0.000 A 
ENDROOT
BRANCH   1   8
ATOM      7  C   UNL     1      48.565   8.160  11.396  0.00  0.00    +0.000 C 
ATOM      8  C   UNL     1      47.627   7.793  12.552  0.00  0.00    +0.000 C 
BRANCH   8   9
ATOM      9  N   UNL     1      46.843   6.597  12.284  0.00  0.00    +0.000 N 
ATOM     10  C   UNL     1      45.557   6.612  11.807  0.00  0.00    +0.000 C 
ATOM     11  O   UNL     1      44.963   7.645  11.516  0.00  0.00    +0.000 OA
ATOM     12  H   UNL     1      47.137   5.769  12.792  0.00  0.00    +0.000 HD
BRANCH  10  13
ATOM     13  C   UNL     1      44.948   5.295  11.585  0.00  0.00    +0.000 A 
ATOM     14  C   UNL     1      44.239   4.679  12.607  0.00  0.00    +0.000 A 
ATOM     15  S   UNL     1      43.558   3.181  12.156  0.00  0.00    +0.000 S 
ATOM     16  C   UNL     1      44.228   3.283  10.595  0.00  0.00    +0.000 A 
ATOM     17  N   UNL     1      44.042   2.289   9.685  0.00  0.00    +0.000 NA
ATOM     18  C   UNL     1      44.629   2.487   8.551  0.00  0.00    +0.000 A 
ATOM     19  N   UNL     1      45.381   3.591   8.244  0.00  0.00    +0.000 N 
ATOM     20  C   UNL     1      45.573   4.630   9.121  0.00  0.00    +0.000 A 
ATOM     21  O   UNL     1      46.212   5.628   8.801  0.00  0.00    +0.000 OA
ATOM     22  C   UNL     1      44.943   4.452  10.414  0.00  0.00    +0.000 A 
ATOM     23  H   UNL     1      45.806   3.690   7.333  0.00  0.00    +0.000 HD
ENDBRANCH  10  13
ENDBRANCH   8   9
ENDBRANCH   1   8
BRANCH   4  24
ATOM     24  C   UNL     1      50.835   6.850  17.366  0.00  0.00    +0.000 C 
BRANCH  24  25
ATOM     25  N   UNL     1      51.418   5.528  17.297  0.00  0.00    +0.000 N 
ATOM     26  C   UNL     1      51.032   4.523  18.148  0.00  0.00    +0.000 C 
ATOM     27  O   UNL     1      50.156   4.674  18.995  0.00  0.00    +0.000 OA
ATOM     28  H   UNL     1      52.183   5.393  16.646  0.00  0.00    +0.000 HD
BRANCH  26  29
ATOM     29  C   UNL     1      51.665   3.187  17.983  0.00  0.00    +0.000 A 
ATOM     30  C   UNL     1      52.980   3.034  18.450  0.00  0.00    +0.000 A 
ATOM     31  C   UNL     1      53.618   1.797  18.361  0.00  0.00    +0.000 A 
ATOM     32  C   UNL     1      52.925   0.744  17.794  0.00  0.00    +0.000 A 
ATOM     33  N   UNL     1      51.669   0.852  17.313  0.00  0.00    +0.000 NA
ATOM     34  C   UNL     1      51.073   2.070  17.410  0.00  0.00    +0.000 A 
ATOM     35 CL   UNL     1      49.503   2.045  16.696  0.00  0.00    +0.000 Cl
ENDBRANCH  26  29
ENDBRANCH  24  25
ENDBRANCH   4  24
TORSDOF 6
ENDMDL
MODEL 6
REMARK VINA RESULT:    -6.918      5.730      9.653
REMARK INTER + INTRA:         -10.471
REMARK INTER:                  -9.530
REMARK INTRA:                  -0.941
REMARK UNBOUND:                -1.127
REMARK  Name = 
REMARK  7 active torsions:
REMARK  status: ('A' for Active; 'I' for Inactive)
REMARK    1  A    between atoms: C_1  and  C_2
REMARK    2  A    between atoms: C_2  and  N_3
REMARK    3  A    between atoms: C_2  and  C_16
REMARK    4  A    between atoms: C_4  and  C_6
REMARK    5  A    between atoms: C_19  and  C_20
REMARK    6  A    between atoms: C_20  and  N_21
REMARK    7  A    between atoms: C_22  and  C_24
REMARK                            x       y       z     vdW  Elec       q    Type
REMARK                         _______ _______ _______ _____ _____    ______ ____
ROOT
ATOM      1  C   UNL     1      49.054   3.770  17.371  0.00  0.00    +0.000 A 
ATOM      2  C   UNL     1      50.001   4.765  17.645  0.00  0.00    +0.000 A 
ATOM      3  C   UNL     1      51.357   4.443  17.779  0.00  0.00    +0.000 A 
ATOM      4  C   UNL     1      51.797   3.120  17.636  0.00  0.00    +0.000 A 
ATOM      5  C   UNL     1      50.853   2.122  17.366  0.00  0.00    +0.000 A 
ATOM      6  C   UNL     1      49.501   2.444  17.229  0.00  0.00    +0.000 A 
ENDROOT
BRANCH   1   8
ATOM      7  C   UNL     1      47.109   4.843  18.541  0.00  0.00    +0.000 C 
ATOM      8  C   UNL     1      47.569   4.106  17.278  0.00  0.00    +0.000 C 
BRANCH   8   9
ATOM      9  N   UNL     1      47.343   4.875  16.063  0.00  0.00    +0.000 N 
ATOM     10  C   UNL     1      47.277   4.326  14.808  0.00  0.00    +0.000 C 
ATOM     11  O   UNL     1      47.358   3.119  14.600  0.00  0.00    +0.000 OA
ATOM     12  H   UNL     1      47.590   5.856  16.125  0.00  0.00    +0.000 HD
BRANCH  10  13
ATOM     13  C   UNL     1      47.021   5.272  13.715  0.00  0.00    +0.000 A 
ATOM     14  C   UNL     1      48.003   6.179  13.340  0.00  0.00    +0.000 A 
ATOM     15  S   UNL     1      47.553   7.163  12.022  0.00  0.00    +0.000 S 
ATOM     16  C   UNL     1      46.013   6.444  11.938  0.00  0.00    +0.000 A 
ATOM     17  N   UNL     1      45.098   6.850  11.018  0.00  0.00    +0.000 NA
ATOM     18  C   UNL     1      43.963   6.235  11.087  0.00  0.00    +0.000 A 
ATOM     19  N   UNL     1      43.664   5.248  11.988  0.00  0.00    +0.000 N 
ATOM     20  C   UNL     1      44.565   4.787  12.916  0.00  0.00    +0.000 A 
ATOM     21  O   UNL     1      44.285   3.868  13.680  0.00  0.00    +0.000 OA
ATOM     22  C   UNL     1      45.853   5.453  12.888  0.00  0.00    +0.000 A 
ATOM     23  H   UNL     1      42.759   4.799  11.983  0.00  0.00    +0.000 HD
ENDBRANCH  10  13
ENDBRANCH   8   9
ENDBRANCH   1   8
BRANCH   4  24
ATOM     24  C   UNL     1      53.246   2.758  17.829  0.00  0.00    +0.000 C 
BRANCH  24  25
ATOM     25  N   UNL     1      53.493   1.392  17.420  0.00  0.00    +0.000 N 
ATOM     26  C   UNL     1      54.440   0.612  18.037  0.00  0.00    +0.000 C 
ATOM     27  O   UNL     1      55.110   1.013  18.986  0.00  0.00    +0.000 OA
ATOM     28  H   UNL     1      52.996   1.056  16.604  0.00  0.00    +0.000 HD
BRANCH  26  29
ATOM     29  C   UNL     1      54.603  -0.789  17.568  0.00  0.00    +0.000 A 
ATOM     30  C   UNL     1      54.822  -0.989  16.196  0.00  0.00    +0.000 A 
ATOM     31  C   UNL     1      55.022  -2.276  15.696  0.00  0.00    +0.000 A 
ATOM     32  C   UNL     1      54.987  -3.334  16.585  0.00  0.00    +0.000 A 
ATOM     33  N   UNL     1      54.758  -3.190  17.907  0.00  0.00    +0.000 NA
ATOM     34  C   UNL     1      54.564  -1.926  18.366  0.00  0.00    +0.000 A 
ATOM     35 CL   UNL     1      54.228  -1.929  20.057  0.00  0.00    +0.000 Cl
ENDBRANCH  26  29
ENDBRANCH  24  25
ENDBRANCH   4  24
TORSDOF 6
ENDMDL
MODEL 7
REMARK VINA RESULT:    -6.803      5.712      9.695
REMARK INTER + INTRA:         -10.317
REMARK INTER:                  -9.093
REMARK INTRA:                  -1.224
REMARK UNBOUND:                -1.127
REMARK  Name = 
REMARK  7 active torsions:
REMARK  status: ('A' for Active; 'I' for Inactive)
REMARK    1  A    between atoms: C_1  and  C_2
REMARK    2  A    between atoms: C_2  and  N_3
REMARK    3  A    between atoms: C_2  and  C_16
REMARK    4  A    between atoms: C_4  and  C_6
REMARK    5  A    between atoms: C_19  and  C_20
REMARK    6  A    between atoms: C_20  and  N_21
REMARK    7  A    between atoms: C_22  and  C_24
REMARK                            x       y       z     vdW  Elec       q    Type
REMARK                         _______ _______ _______ _____ _____    ______ ____
ROOT
ATOM      1  C   UNL     1      49.009   3.697  17.364  0.00  0.00    +0.000 A 
ATOM      2  C   UNL     1      49.890   4.630  17.925  0.00  0.00    +0.000 A 
ATOM      3  C   UNL     1      51.227   4.292  18.171  0.00  0.00    +0.000 A 
ATOM      4  C   UNL     1      51.713   3.016  17.856  0.00  0.00    +0.000 A 
ATOM      5  C   UNL     1      50.834   2.079  17.299  0.00  0.00    +0.000 A 
ATOM      6  C   UNL     1      49.502   2.418  17.051  0.00  0.00    +0.000 A 
ENDROOT
BRANCH   1   8
ATOM      7  C   UNL     1      46.966   4.742  18.381  0.00  0.00    +0.000 C 
ATOM      8  C   UNL     1      47.539   4.041  17.144  0.00  0.00    +0.000 C 
BRANCH   8   9
ATOM      9  N   UNL     1      47.427   4.846  15.937  0.00  0.00    +0.000 N 
ATOM     10  C   UNL     1      47.329   4.324  14.673  0.00  0.00    +0.000 C 
ATOM     11  O   UNL     1      47.279   3.119  14.447  0.00  0.00    +0.000 OA
ATOM     12  H   UNL     1      47.782   5.793  16.020  0.00  0.00    +0.000 HD
BRANCH  10  13
ATOM     13  C   UNL     1      47.204   5.307  13.589  0.00  0.00    +0.000 A 
ATOM     14  C   UNL     1      46.198   5.171  12.643  0.00  0.00    +0.000 A 
ATOM     15  S   UNL     1      46.172   6.428  11.491  0.00  0.00    +0.000 S 
ATOM     16  C   UNL     1      47.533   7.173  12.190  0.00  0.00    +0.000 A 
ATOM     17  N   UNL     1      48.059   8.311  11.663  0.00  0.00    +0.000 NA
ATOM     18  C   UNL     1      49.106   8.750  12.280  0.00  0.00    +0.000 A 
ATOM     19  N   UNL     1      49.672   8.157  13.377  0.00  0.00    +0.000 N 
ATOM     20  C   UNL     1      49.160   7.023  13.959  0.00  0.00    +0.000 A 
ATOM     21  O   UNL     1      49.660   6.541  14.971  0.00  0.00    +0.000 OA
ATOM     22  C   UNL     1      47.989   6.483  13.298  0.00  0.00    +0.000 A 
ATOM     23  H   UNL     1      50.487   8.558  13.820  0.00  0.00    +0.000 HD
ENDBRANCH  10  13
ENDBRANCH   8   9
ENDBRANCH   1   8
BRANCH   4  24
ATOM     24  C   UNL     1      53.136   2.628  18.165  0.00  0.00    +0.000 C 
BRANCH  24  25
ATOM     25  N   UNL     1      53.435   1.314  17.641  0.00  0.00    +0.000 N 
ATOM     26  C   UNL     1      54.234   0.429  18.321  0.00  0.00    +0.000 C 
ATOM     27  O   UNL     1      54.717   0.685  19.421  0.00  0.00    +0.000 OA
ATOM     28  H   UNL     1      53.097   1.099  16.710  0.00  0.00    +0.000 HD
BRANCH  26  29
ATOM     29  C   UNL     1      54.462  -0.911  17.718  0.00  0.00    +0.000 A 
ATOM     30  C   UNL     1      54.809  -0.957  16.359  0.00  0.00    +0.000 A 
ATOM     31  C   UNL     1      55.075  -2.179  15.742  0.00  0.00    +0.000 A 
ATOM     32  C   UNL     1      54.975  -3.330  16.502  0.00  0.00    +0.000 A 
ATOM     33  N   UNL     1      54.624  -3.334  17.804  0.00  0.00    +0.000 NA
ATOM     34  C   UNL     1      54.368  -2.129  18.379  0.00  0.00    +0.000 A 
ATOM     35 CL   UNL     1      53.878  -2.322  20.022  0.00  0.00    +0.000 Cl
ENDBRANCH  26  29
ENDBRANCH  24  25
ENDBRANCH   4  24
TORSDOF 6
ENDMDL
MODEL 8
REMARK VINA RESULT:    -6.770      1.877      2.655
REMARK INTER + INTRA:         -10.272
REMARK INTER:                  -8.947
REMARK INTRA:                  -1.325
REMARK UNBOUND:                -1.127
REMARK  Name = 
REMARK  7 active torsions:
REMARK  status: ('A' for Active; 'I' for Inactive)
REMARK    1  A    between atoms: C_1  and  C_2
REMARK    2  A    between atoms: C_2  and  N_3
REMARK    3  A    between atoms: C_2  and  C_16
REMARK    4  A    between atoms: C_4  and  C_6
REMARK    5  A    between atoms: C_19  and  C_20
REMARK    6  A    between atoms: C_20  and  N_21
REMARK    7  A    between atoms: C_22  and  C_24
REMARK                            x       y       z     vdW  Elec       q    Type
REMARK                         _______ _______ _______ _____ _____    ______ ____
ROOT
ATOM      1  C   UNL     1      47.977   8.285  13.571  0.00  0.00    +0.000 A 
ATOM      2  C   UNL     1      48.310   7.193  12.760  0.00  0.00    +0.000 A 
ATOM      3  C   UNL     1      47.366   6.638  11.887  0.00  0.00    +0.000 A 
ATOM      4  C   UNL     1      46.071   7.168  11.801  0.00  0.00    +0.000 A 
ATOM      5  C   UNL     1      45.734   8.257  12.612  0.00  0.00    +0.000 A 
ATOM      6  C   UNL     1      46.676   8.812  13.481  0.00  0.00    +0.000 A 
ENDROOT
BRANCH   1   8
ATOM      7  C   UNL     1      48.572  10.276  14.980  0.00  0.00    +0.000 C 
ATOM      8  C   UNL     1      48.984   8.860  14.563  0.00  0.00    +0.000 C 
BRANCH   8   9
ATOM      9  N   UNL     1      49.092   7.949  15.693  0.00  0.00    +0.000 N 
ATOM     10  C   UNL     1      50.207   7.201  15.973  0.00  0.00    +0.000 C 
ATOM     11  O   UNL     1      51.241   7.269  15.315  0.00  0.00    +0.000 OA
ATOM     12  H   UNL     1      48.207   7.613  16.058  0.00  0.00    +0.000 HD
BRANCH  10  13
ATOM     13  C   UNL     1      50.120   6.358  17.172  0.00  0.00    +0.000 A 
ATOM     14  C   UNL     1      50.931   6.627  18.266  0.00  0.00    +0.000 A 
ATOM     15  S   UNL     1      50.660   5.580  19.586  0.00  0.00    +0.000 S 
ATOM     16  C   UNL     1      49.484   4.705  18.723  0.00  0.00    +0.000 A 
ATOM     17  N   UNL     1      48.855   3.635  19.282  0.00  0.00    +0.000 NA
ATOM     18  C   UNL     1      48.006   3.050  18.503  0.00  0.00    +0.000 A 
ATOM     19  N   UNL     1      47.726   3.440  17.220  0.00  0.00    +0.000 N 
ATOM     20  C   UNL     1      48.315   4.529  16.625  0.00  0.00    +0.000 A 
ATOM     21  O   UNL     1      48.009   4.883  15.491  0.00  0.00    +0.000 OA
ATOM     22  C   UNL     1      49.286   5.215  17.454  0.00  0.00    +0.000 A 
ATOM     23  H   UNL     1      47.042   2.944  16.666  0.00  0.00    +0.000 HD
ENDBRANCH  10  13
ENDBRANCH   8   9
ENDBRANCH   1   8
BRANCH   4  24
ATOM     24  C   UNL     1      45.035   6.544  10.902  0.00  0.00    +0.000 C 
BRANCH  24  25
ATOM     25  N   UNL     1      45.616   5.488  10.103  0.00  0.00    +0.000 N 
ATOM     26  C   UNL     1      44.838   4.591   9.414  0.00  0.00    +0.000 C 
ATOM     27  O   UNL     1      43.611   4.647   9.410  0.00  0.00    +0.000 OA
ATOM     28  H   UNL     1      46.623   5.384  10.135  0.00  0.00    +0.000 HD
BRANCH  26  29
ATOM     29  C   UNL     1      45.525   3.557   8.594  0.00  0.00    +0.000 A 
ATOM     30  C   UNL     1      46.443   4.002   7.630  0.00  0.00    +0.000 A 
ATOM     31  C   UNL     1      47.149   3.084   6.855  0.00  0.00    +0.000 A 
ATOM     32  C   UNL     1      46.911   1.737   7.059  0.00  0.00    +0.000 A 
ATOM     33  N   UNL     1      46.023   1.266   7.959  0.00  0.00    +0.000 NA
ATOM     34  C   UNL     1      45.346   2.184   8.698  0.00  0.00    +0.000 A 
ATOM     35 CL   UNL     1      44.216   1.415   9.750  0.00  0.00    +0.000 Cl
ENDBRANCH  26  29
ENDBRANCH  24  25
ENDBRANCH   4  24
TORSDOF 6
ENDMDL
MODEL 9
REMARK VINA RESULT:    -6.652      2.851      4.239
REMARK INTER + INTRA:         -10.112
REMARK INTER:                  -9.020
REMARK INTRA:                  -1.092
REMARK UNBOUND:                -1.127
REMARK  Name = 
REMARK  7 active torsions:
REMARK  status: ('A' for Active; 'I' for Inactive)
REMARK    1  A    between atoms: C_1  and  C_2
REMARK    2  A    between atoms: C_2  and  N_3
REMARK    3  A    between atoms: C_2  and  C_16
REMARK    4  A    between atoms: C_4  and  C_6
REMARK    5  A    between atoms: C_19  and  C_20
REMARK    6  A    between atoms: C_20  and  N_21
REMARK    7  A    between atoms: C_22  and  C_24
REMARK                            x       y       z     vdW  Elec       q    Type
REMARK                         _______ _______ _______ _____ _____    ______ ____
ROOT
ATOM      1  C   UNL     1      49.358   8.212  13.986  0.00  0.00    +0.000 A 
ATOM      2  C   UNL     1      49.252   7.245  12.978  0.00  0.00    +0.000 A 
ATOM      3  C   UNL     1      48.032   7.023  12.327  0.00  0.00    +0.000 A 
ATOM      4  C   UNL     1      46.894   7.767  12.666  0.00  0.00    +0.000 A 
ATOM      5  C   UNL     1      46.995   8.731  13.676  0.00  0.00    +0.000 A 
ATOM      6  C   UNL     1      48.212   8.954  14.323  0.00  0.00    +0.000 A 
ENDROOT
BRANCH   1   8
ATOM      7  C   UNL     1      51.287   9.773  14.363  0.00  0.00    +0.000 C 
ATOM      8  C   UNL     1      50.670   8.421  14.737  0.00  0.00    +0.000 C 
BRANCH   8   9
ATOM      9  N   UNL     1      50.413   8.293  16.163  0.00  0.00    +0.000 N 
ATOM     10  C   UNL     1      50.536   7.121  16.864  0.00  0.00    +0.000 C 
ATOM     11  O   UNL     1      50.924   6.074  16.355  0.00  0.00    +0.000 OA
ATOM     12  H   UNL     1      49.801   9.002  16.553  0.00  0.00    +0.000 HD
BRANCH  10  13
ATOM     13  C   UNL     1      50.251   7.209  18.301  0.00  0.00    +0.000 A 
ATOM     14  C   UNL     1      51.122   7.890  19.140  0.00  0.00    +0.000 A 
ATOM     15  S   UNL     1      50.607   7.934  20.766  0.00  0.00    +0.000 S 
ATOM     16  C   UNL     1      49.226   7.005  20.412  0.00  0.00    +0.000 A 
ATOM     17  N   UNL     1      48.346   6.655  21.389  0.00  0.00    +0.000 NA
ATOM     18  C   UNL     1      47.359   5.927  20.982  0.00  0.00    +0.000 A 
ATOM     19  N   UNL     1      47.170   5.522  19.687  0.00  0.00    +0.000 N 
ATOM     20  C   UNL     1      48.016   5.874  18.664  0.00  0.00    +0.000 A 
ATOM     21  O   UNL     1      47.796   5.536  17.505  0.00  0.00    +0.000 OA
ATOM     22  C   UNL     1      49.149   6.683  19.070  0.00  0.00    +0.000 A 
ATOM     23  H   UNL     1      46.370   4.960  19.431  0.00  0.00    +0.000 HD
ENDBRANCH  10  13
ENDBRANCH   8   9
ENDBRANCH   1   8
BRANCH   4  24
ATOM     24  C   UNL     1      45.566   7.498  12.006  0.00  0.00    +0.000 C 
BRANCH  24  25
ATOM     25  N   UNL     1      45.627   6.300  11.198  0.00  0.00    +0.000 N 
ATOM     26  C   UNL     1      44.510   5.544  10.940  0.00  0.00    +0.000 C 
ATOM     27  O   UNL     1      43.394   5.851  11.353  0.00  0.00    +0.000 OA
ATOM     28  H   UNL     1      46.543   5.993  10.893  0.00  0.00    +0.000 HD
BRANCH  26  29
ATOM     29  C   UNL     1      44.664   4.346  10.073  0.00  0.00    +0.000 A 
ATOM     30  C   UNL     1      45.336   4.514   8.852  0.00  0.00    +0.000 A 
ATOM     31  C   UNL     1      45.548   3.423   8.010  0.00  0.00    +0.000 A 
ATOM     32  C   UNL     1      45.072   2.188   8.409  0.00  0.00    +0.000 A 
ATOM     33  N   UNL     1      44.402   1.985   9.562  0.00  0.00    +0.000 NA
ATOM     34  C   UNL     1      44.206   3.067  10.362  0.00  0.00    +0.000 A 
ATOM     35 CL   UNL     1      43.287   2.642  11.758  0.00  0.00    +0.000 Cl
ENDBRANCH  26  29
ENDBRANCH  24  25
ENDBRANCH   4  24
TORSDOF 6
ENDMDL
