MODEL 1
REMARK VINA RESULT:    -9.193      0.000      0.000
REMARK INTER + INTRA:         -13.202
REMARK INTER:                 -12.417
REMARK INTRA:                  -0.785
REMARK UNBOUND:                -0.785
REMARK  Name = 
REMARK  6 active torsions:
REMARK  status: ('A' for Active; 'I' for Inactive)
REMARK    1  A    between atoms: C_2  and  C_4
REMARK    2  A    between atoms: N_8  and  C_9
REMARK    3  A    between atoms: C_9  and  C_10
REMARK    4  A    between atoms: C_10  and  C_13
REMARK    5  A    between atoms: C_17  and  O_18
REMARK    6  A    between atoms: O_18  and  C_19
REMARK                            x       y       z     vdW  Elec       q    Type
REMARK                         _______ _______ _______ _____ _____    ______ ____
ROOT
ATOM      1  C   UNL     1      43.453   5.480  12.072  0.00  0.00    +0.000 C 
ATOM      2  F   UNL     1      43.072   6.635  11.448  0.00  0.00    +0.000 F 
ATOM      3  F   UNL     1      42.532   5.282  13.061  0.00  0.00    +0.000 F 
ENDROOT
BRANCH   1   4
ATOM      4  C   UNL     1      44.865   5.557  12.622  0.00  0.00    +0.000 A 
ATOM      5  C   UNL     1      45.689   6.652  12.323  0.00  0.00    +0.000 A 
ATOM      6  C   UNL     1      46.953   6.762  12.906  0.00  0.00    +0.000 A 
ATOM      7  C   UNL     1      47.411   5.782  13.794  0.00  0.00    +0.000 A 
ATOM      8  C   UNL     1      46.612   4.674  14.076  0.00  0.00    +0.000 A 
ATOM      9  C   UNL     1      45.346   4.567  13.492  0.00  0.00    +0.000 A 
BRANCH   8  10
ATOM     10  O   UNL     1      46.932   3.665  14.948  0.00  0.00    +0.000 OA
BRANCH  10  11
ATOM     11  C   UNL     1      47.780   3.948  16.086  0.00  0.00    +0.000 C 
ATOM     12  C   UNL     1      48.338   2.755  16.886  0.00  0.00    +0.000 C 
ATOM     13  N   UNL     1      47.800   3.314  18.134  0.00  0.00    +0.000 NA
ATOM     14  C   UNL     1      47.030   4.315  17.386  0.00  0.00    +0.000 C 
ATOM     15  H   UNL     1      48.504   3.708  18.757  0.00  0.00    +0.000 HD
ENDBRANCH  10  11
ENDBRANCH   8  10
ENDBRANCH   1   4
BRANCH   1  16
ATOM     16  C   UNL     1      43.354   4.316  11.050  0.00  0.00    +0.000 C 
BRANCH  16  21
ATOM     17  C   UNL     1      46.602   2.487   7.565  0.00  0.00    +0.000 A 
ATOM     18  C   UNL     1      45.784   1.808   8.461  0.00  0.00    +0.000 A 
ATOM     19  C   UNL     1      44.869   2.534   9.222  0.00  0.00    +0.000 A 
ATOM     20  C   UNL     1      44.784   3.917   9.078  0.00  0.00    +0.000 A 
ATOM     21  N   UNL     1      43.818   4.678   9.706  0.00  0.00    +0.000 N 
ATOM     22  N   UNL     1      45.600   4.586   8.240  0.00  0.00    +0.000 NA
ATOM     23  C   UNL     1      46.494   3.869   7.510  0.00  0.00    +0.000 A 
ATOM     24  H   UNL     1      44.009   5.667   9.548  0.00  0.00    +0.000 HD
BRANCH  17  26
ATOM     25  N   UNL     1      48.705   2.457   6.355  0.00  0.00    +0.000 N 
ATOM     26  C   UNL     1      47.551   1.792   6.676  0.00  0.00    +0.000 C 
ATOM     27  O   UNL     1      47.338   0.656   6.271  0.00  0.00    +0.000 OA
ATOM     28  H   UNL     1      49.399   1.934   5.839  0.00  0.00    +0.000 HD
ATOM     29  H   UNL     1      49.025   3.261   6.881  0.00  0.00    +0.000 HD
ENDBRANCH  17  26
ENDBRANCH  16  21
ENDBRANCH   1  16
TORSDOF 6
ENDMDL
MODEL 2
REMARK VINA RESULT:    -8.353      2.480      3.576
REMARK INTER + INTRA:         -12.068
REMARK INTER:                 -11.255
REMARK INTRA:                  -0.813
REMARK UNBOUND:                -0.785
REMARK  Name = 
REMARK  6 active torsions:
REMARK  status: ('A' for Active; 'I' for Inactive)
REMARK    1  A    between atoms: C_2  and  C_4
REMARK    2  A    between atoms: N_8  and  C_9
REMARK    3  A    between atoms: C_9  and  C_10
REMARK    4  A    between atoms: C_10  and  C_13
REMARK    5  A    between atoms: C_17  and  O_18
REMARK    6  A    between atoms: O_18  and  C_19
REMARK                            x       y       z     vdW  Elec       q    Type
REMARK                         _______ _______ _______ _____ _____    ______ ____
ROOT
ATOM      1  C   UNL     1      43.379   5.365  12.048  0.00  0.00    +0.000 C 
ATOM      2  F   UNL     1      42.908   6.491  11.434  0.00  0.00    +0.000 F 
ATOM      3  F   UNL     1      42.498   5.109  13.060  0.00  0.00    +0.000 F 
ENDROOT
BRANCH   1   4
ATOM      4  C   UNL     1      44.796   5.535  12.562  0.00  0.00    +0.000 A 
ATOM      5  C   UNL     1      45.423   4.506  13.280  0.00  0.00    +0.000 A 
ATOM      6  C   UNL     1      46.758   4.632  13.670  0.00  0.00    +0.000 A 
ATOM      7  C   UNL     1      47.483   5.786  13.350  0.00  0.00    +0.000 A 
ATOM      8  C   UNL     1      46.862   6.827  12.662  0.00  0.00    +0.000 A 
ATOM      9  C   UNL     1      45.525   6.697  12.271  0.00  0.00    +0.000 A 
BRANCH   8  10
ATOM     10  O   UNL     1      47.468   7.991  12.264  0.00  0.00    +0.000 OA
BRANCH  10  11
ATOM     11  C   UNL     1      47.093   9.240  12.889  0.00  0.00    +0.000 C 
ATOM     12  C   UNL     1      46.717  10.423  11.975  0.00  0.00    +0.000 C 
ATOM     13  N   UNL     1      47.703  11.282  12.645  0.00  0.00    +0.000 NA
ATOM     14  C   UNL     1      48.274  10.125  13.346  0.00  0.00    +0.000 C 
ATOM     15  H   UNL     1      47.299  11.986  13.262  0.00  0.00    +0.000 HD
ENDBRANCH  10  11
ENDBRANCH   8  10
ENDBRANCH   1   4
BRANCH   1  16
ATOM     16  C   UNL     1      43.330   4.195  11.028  0.00  0.00    +0.000 C 
BRANCH  16  21
ATOM     17  C   UNL     1      46.607   2.438   7.534  0.00  0.00    +0.000 A 
ATOM     18  C   UNL     1      45.801   1.741   8.428  0.00  0.00    +0.000 A 
ATOM     19  C   UNL     1      44.874   2.448   9.192  0.00  0.00    +0.000 A 
ATOM     20  C   UNL     1      44.766   3.829   9.054  0.00  0.00    +0.000 A 
ATOM     21  N   UNL     1      43.788   4.571   9.686  0.00  0.00    +0.000 N 
ATOM     22  N   UNL     1      45.570   4.516   8.219  0.00  0.00    +0.000 NA
ATOM     23  C   UNL     1      46.476   3.817   7.485  0.00  0.00    +0.000 A 
ATOM     24  H   UNL     1      43.961   5.564   9.533  0.00  0.00    +0.000 HD
BRANCH  17  26
ATOM     25  N   UNL     1      48.759   2.400   6.413  0.00  0.00    +0.000 N 
ATOM     26  C   UNL     1      47.567   1.763   6.641  0.00  0.00    +0.000 C 
ATOM     27  O   UNL     1      47.330   0.664   6.155  0.00  0.00    +0.000 OA
ATOM     28  H   UNL     1      49.454   1.882   5.893  0.00  0.00    +0.000 HD
ATOM     29  H   UNL     1      49.086   3.154   7.003  0.00  0.00    +0.000 HD
ENDBRANCH  17  26
ENDBRANCH  16  21
ENDBRANCH   1  16
TORSDOF 6
ENDMDL
MODEL 3
REMARK VINA RESULT:    -8.216      2.006      2.337
REMARK INTER + INTRA:         -11.882
REMARK INTER:                 -11.243
REMARK INTRA:                  -0.639
REMARK UNBOUND:                -0.785
REMARK  Name = 
REMARK  6 active torsions:
REMARK  status: ('A' for Active; 'I' for Inactive)
REMARK    1  A    between atoms: C_2  and  C_4
REMARK    2  A    between atoms: N_8  and  C_9
REMARK    3  A    between atoms: C_9  and  C_10
REMARK    4  A    between atoms: C_10  and  C_13
REMARK    5  A    between atoms: C_17  and  O_18
REMARK    6  A    between atoms: O_18  and  C_19
REMARK                            x       y       z     vdW  Elec       q    Type
REMARK                         _______ _______ _______ _____ _____    ______ ____
ROOT
ATOM      1  C   UNL     1      43.134   5.393  12.002  0.00  0.00    +0.000 C 
ATOM      2  F   UNL     1      42.051   5.999  11.429  0.00  0.00    +0.000 F 
ATOM      3  F   UNL     1      42.694   4.934  13.211  0.00  0.00    +0.000 F 
ENDROOT
BRANCH   1   4
ATOM      4  C   UNL     1      44.313   6.335  12.150  0.00  0.00    +0.000 A 
ATOM      5  C   UNL     1      44.300   7.598  11.540  0.00  0.00    +0.000 A 
ATOM      6  C   UNL     1      45.347   8.496  11.756  0.00  0.00    +0.000 A 
ATOM      7  C   UNL     1      46.421   8.145  12.583  0.00  0.00    +0.000 A 
ATOM      8  C   UNL     1      46.459   6.882  13.172  0.00  0.00    +0.000 A 
ATOM      9  C   UNL     1      45.408   5.985  12.955  0.00  0.00    +0.000 A 
BRANCH   8  10
ATOM     10  O   UNL     1      47.436   6.431  14.022  0.00  0.00    +0.000 OA
BRANCH  10  11
ATOM     11  C   UNL     1      48.463   7.343  14.476  0.00  0.00    +0.000 C 
ATOM     12  C   UNL     1      49.743   7.471  13.626  0.00  0.00    +0.000 C 
ATOM     13  N   UNL     1      50.577   7.178  14.800  0.00  0.00    +0.000 NA
ATOM     14  C   UNL     1      49.394   6.786  15.576  0.00  0.00    +0.000 C 
ATOM     15  H   UNL     1      51.074   7.985  15.175  0.00  0.00    +0.000 HD
ENDBRANCH  10  11
ENDBRANCH   8  10
ENDBRANCH   1   4
BRANCH   1  16
ATOM     16  C   UNL     1      43.540   4.183  11.120  0.00  0.00    +0.000 C 
BRANCH  16  21
ATOM     17  C   UNL     1      46.657   2.487   7.452  0.00  0.00    +0.000 A 
ATOM     18  C   UNL     1      45.929   1.776   8.401  0.00  0.00    +0.000 A 
ATOM     19  C   UNL     1      45.028   2.462   9.212  0.00  0.00    +0.000 A 
ATOM     20  C   UNL     1      44.865   3.837   9.066  0.00  0.00    +0.000 A 
ATOM     21  N   UNL     1      43.903   4.556   9.748  0.00  0.00    +0.000 N 
ATOM     22  N   UNL     1      45.595   4.539   8.176  0.00  0.00    +0.000 NA
ATOM     23  C   UNL     1      46.478   3.860   7.396  0.00  0.00    +0.000 A 
ATOM     24  H   UNL     1      44.034   5.551   9.573  0.00  0.00    +0.000 HD
BRANCH  17  26
ATOM     25  N   UNL     1      48.761   2.479   6.244  0.00  0.00    +0.000 N 
ATOM     26  C   UNL     1      47.583   1.832   6.511  0.00  0.00    +0.000 C 
ATOM     27  O   UNL     1      47.332   0.739   6.017  0.00  0.00    +0.000 OA
ATOM     28  H   UNL     1      49.437   1.974   5.688  0.00  0.00    +0.000 HD
ATOM     29  H   UNL     1      49.107   3.226   6.831  0.00  0.00    +0.000 HD
ENDBRANCH  17  26
ENDBRANCH  16  21
ENDBRANCH   1  16
TORSDOF 6
ENDMDL
MODEL 4
REMARK VINA RESULT:    -7.646      3.151      4.867
REMARK INTER + INTRA:         -11.112
REMARK INTER:                 -10.466
REMARK INTRA:                  -0.646
REMARK UNBOUND:                -0.785
REMARK  Name = 
REMARK  6 active torsions:
REMARK  status: ('A' for Active; 'I' for Inactive)
REMARK    1  A    between atoms: C_2  and  C_4
REMARK    2  A    between atoms: N_8  and  C_9
REMARK    3  A    between atoms: C_9  and  C_10
REMARK    4  A    between atoms: C_10  and  C_13
REMARK    5  A    between atoms: C_17  and  O_18
REMARK    6  A    between atoms: O_18  and  C_19
REMARK                            x       y       z     vdW  Elec       q    Type
REMARK                         _______ _______ _______ _____ _____    ______ ____
ROOT
ATOM      1  C   UNL     1      44.496   4.555  12.203  0.00  0.00    +0.000 C 
ATOM      2  F   UNL     1      43.809   4.375  13.371  0.00  0.00    +0.000 F 
ATOM      3  F   UNL     1      45.335   3.481  12.107  0.00  0.00    +0.000 F 
ENDROOT
BRANCH   1   4
ATOM      4  C   UNL     1      45.255   5.868  12.174  0.00  0.00    +0.000 A 
ATOM      5  C   UNL     1      46.655   5.886  12.249  0.00  0.00    +0.000 A 
ATOM      6  C   UNL     1      47.352   7.090  12.129  0.00  0.00    +0.000 A 
ATOM      7  C   UNL     1      46.661   8.291  11.934  0.00  0.00    +0.000 A 
ATOM      8  C   UNL     1      45.267   8.290  11.887  0.00  0.00    +0.000 A 
ATOM      9  C   UNL     1      44.572   7.083  12.006  0.00  0.00    +0.000 A 
BRANCH   8  10
ATOM     10  O   UNL     1      44.478   9.391  11.672  0.00  0.00    +0.000 OA
BRANCH  10  11
ATOM     11  C   UNL     1      43.647   9.451  10.488  0.00  0.00    +0.000 C 
ATOM     12  C   UNL     1      43.775  10.688   9.577  0.00  0.00    +0.000 C 
ATOM     13  N   UNL     1      42.326  10.923   9.657  0.00  0.00    +0.000 NA
ATOM     14  C   UNL     1      42.198   9.927  10.730  0.00  0.00    +0.000 C 
ATOM     15  H   UNL     1      41.814  10.689   8.808  0.00  0.00    +0.000 HD
ENDBRANCH  10  11
ENDBRANCH   8  10
ENDBRANCH   1   4
BRANCH   1  16
ATOM     16  C   UNL     1      43.483   4.511  11.028  0.00  0.00    +0.000 C 
BRANCH  16  21
ATOM     17  C   UNL     1      46.659   2.759   7.438  0.00  0.00    +0.000 A 
ATOM     18  C   UNL     1      45.731   2.075   8.216  0.00  0.00    +0.000 A 
ATOM     19  C   UNL     1      44.870   2.803   9.035  0.00  0.00    +0.000 A 
ATOM     20  C   UNL     1      44.946   4.193   9.065  0.00  0.00    +0.000 A 
ATOM     21  N   UNL     1      44.045   4.979   9.756  0.00  0.00    +0.000 N 
ATOM     22  N   UNL     1      45.868   4.861   8.344  0.00  0.00    +0.000 NA
ATOM     23  C   UNL     1      46.709   4.140   7.556  0.00  0.00    +0.000 A 
ATOM     24  H   UNL     1      44.351   5.951   9.731  0.00  0.00    +0.000 HD
BRANCH  17  26
ATOM     25  N   UNL     1      48.148   2.840   5.524  0.00  0.00    +0.000 N 
ATOM     26  C   UNL     1      47.563   2.073   6.497  0.00  0.00    +0.000 C 
ATOM     27  O   UNL     1      47.813   0.879   6.601  0.00  0.00    +0.000 OA
ATOM     28  H   UNL     1      48.850   2.388   4.955  0.00  0.00    +0.000 HD
ATOM     29  H   UNL     1      48.176   3.850   5.581  0.00  0.00    +0.000 HD
ENDBRANCH  17  26
ENDBRANCH  16  21
ENDBRANCH   1  16
TORSDOF 6
ENDMDL
MODEL 5
REMARK VINA RESULT:    -7.577      2.235      8.091
REMARK INTER + INTRA:         -11.019
REMARK INTER:                 -10.426
REMARK INTRA:                  -0.594
REMARK UNBOUND:                -0.785
REMARK  Name = 
REMARK  6 active torsions:
REMARK  status: ('A' for Active; 'I' for Inactive)
REMARK    1  A    between atoms: C_2  and  C_4
REMARK    2  A    between atoms: N_8  and  C_9
REMARK    3  A    between atoms: C_9  and  C_10
REMARK    4  A    between atoms: C_10  and  C_13
REMARK    5  A    between atoms: C_17  and  O_18
REMARK    6  A    between atoms: O_18  and  C_19
REMARK                            x       y       z     vdW  Elec       q    Type
REMARK                         _______ _______ _______ _____ _____    ______ ____
ROOT
ATOM      1  C   UNL     1      45.506   6.203  11.451  0.00  0.00    +0.000 C 
ATOM      2  F   UNL     1      44.469   7.092  11.403  0.00  0.00    +0.000 F 
ATOM      3  F   UNL     1      46.602   6.901  11.031  0.00  0.00    +0.000 F 
ENDROOT
BRANCH   1   4
ATOM      4  C   UNL     1      45.256   4.976  10.595  0.00  0.00    +0.000 A 
ATOM      5  C   UNL     1      44.428   3.941  11.054  0.00  0.00    +0.000 A 
ATOM      6  C   UNL     1      44.128   2.859  10.225  0.00  0.00    +0.000 A 
ATOM      7  C   UNL     1      44.651   2.794   8.928  0.00  0.00    +0.000 A 
ATOM      8  C   UNL     1      45.499   3.802   8.471  0.00  0.00    +0.000 A 
ATOM      9  C   UNL     1      45.796   4.886   9.303  0.00  0.00    +0.000 A 
BRANCH   8  10
ATOM     10  O   UNL     1      46.050   3.870   7.217  0.00  0.00    +0.000 OA
BRANCH  10  11
ATOM     11  C   UNL     1      46.475   2.654   6.558  0.00  0.00    +0.000 C 
ATOM     12  C   UNL     1      47.837   2.054   6.958  0.00  0.00    +0.000 C 
ATOM     13  N   UNL     1      48.268   2.042   5.553  0.00  0.00    +0.000 NA
ATOM     14  C   UNL     1      47.107   2.852   5.162  0.00  0.00    +0.000 C 
ATOM     15  H   UNL     1      48.293   1.116   5.127  0.00  0.00    +0.000 HD
ENDBRANCH  10  11
ENDBRANCH   8  10
ENDBRANCH   1   4
BRANCH   1  16
ATOM     16  C   UNL     1      45.716   5.775  12.928  0.00  0.00    +0.000 C 
BRANCH  16  21
ATOM     17  C   UNL     1      48.506   4.418  16.980  0.00  0.00    +0.000 A 
ATOM     18  C   UNL     1      47.461   3.747  16.354  0.00  0.00    +0.000 A 
ATOM     19  C   UNL     1      46.947   4.260  15.164  0.00  0.00    +0.000 A 
ATOM     20  C   UNL     1      47.479   5.426  14.620  0.00  0.00    +0.000 A 
ATOM     21  N   UNL     1      47.103   5.917  13.386  0.00  0.00    +0.000 N 
ATOM     22  N   UNL     1      48.465   6.103  15.241  0.00  0.00    +0.000 NA
ATOM     23  C   UNL     1      48.952   5.598  16.405  0.00  0.00    +0.000 A 
ATOM     24  H   UNL     1      47.533   6.829  13.237  0.00  0.00    +0.000 HD
BRANCH  17  26
ATOM     25  N   UNL     1      48.388   3.134  19.035  0.00  0.00    +0.000 N 
ATOM     26  C   UNL     1      49.151   3.912  18.205  0.00  0.00    +0.000 C 
ATOM     27  O   UNL     1      50.328   4.143  18.454  0.00  0.00    +0.000 OA
ATOM     28  H   UNL     1      48.866   2.700  19.812  0.00  0.00    +0.000 HD
ATOM     29  H   UNL     1      47.522   2.710  18.727  0.00  0.00    +0.000 HD
ENDBRANCH  17  26
ENDBRANCH  16  21
ENDBRANCH   1  16
TORSDOF 6
ENDMDL
MODEL 6
REMARK VINA RESULT:    -6.650      3.089      8.395
REMARK INTER + INTRA:          -9.767
REMARK INTER:                  -9.074
REMARK INTRA:                  -0.693
REMARK UNBOUND:                -0.785
REMARK  Name = 
REMARK  6 active torsions:
REMARK  status: ('A' for Active; 'I' for Inactive)
REMARK    1  A    between atoms: C_2  and  C_4
REMARK    2  A    between atoms: N_8  and  C_9
REMARK    3  A    between atoms: C_9  and  C_10
REMARK    4  A    between atoms: C_10  and  C_13
REMARK    5  A    between atoms: C_17  and  O_18
REMARK    6  A    between atoms: O_18  and  C_19
REMARK                            x       y       z     vdW  Elec       q    Type
REMARK                         _______ _______ _______ _____ _____    ______ ____
ROOT
ATOM      1  C   UNL     1      45.261   6.300  11.400  0.00  0.00    +0.000 C 
ATOM      2  F   UNL     1      44.613   6.214  12.601  0.00  0.00    +0.000 F 
ATOM      3  F   UNL     1      44.723   7.390  10.777  0.00  0.00    +0.000 F 
ENDROOT
BRANCH   1   4
ATOM      4  C   UNL     1      45.108   5.041  10.568  0.00  0.00    +0.000 A 
ATOM      5  C   UNL     1      44.339   3.965  11.036  0.00  0.00    +0.000 A 
ATOM      6  C   UNL     1      44.126   2.847  10.227  0.00  0.00    +0.000 A 
ATOM      7  C   UNL     1      44.678   2.788   8.942  0.00  0.00    +0.000 A 
ATOM      8  C   UNL     1      45.468   3.839   8.477  0.00  0.00    +0.000 A 
ATOM      9  C   UNL     1      45.678   4.958   9.289  0.00  0.00    +0.000 A 
BRANCH   8  10
ATOM     10  O   UNL     1      46.038   3.915   7.232  0.00  0.00    +0.000 OA
BRANCH  10  11
ATOM     11  C   UNL     1      46.576   2.719   6.620  0.00  0.00    +0.000 C 
ATOM     12  C   UNL     1      48.062   2.389   6.862  0.00  0.00    +0.000 C 
ATOM     13  N   UNL     1      48.299   2.297   5.414  0.00  0.00    +0.000 NA
ATOM     14  C   UNL     1      46.974   2.866   5.135  0.00  0.00    +0.000 C 
ATOM     15  H   UNL     1      48.427   1.348   5.068  0.00  0.00    +0.000 HD
ENDBRANCH  10  11
ENDBRANCH   8  10
ENDBRANCH   1   4
BRANCH   1  16
ATOM     16  C   UNL     1      46.765   6.566  11.673  0.00  0.00    +0.000 C 
BRANCH  16  21
ATOM     17  C   UNL     1      49.152   8.232  15.865  0.00  0.00    +0.000 A 
ATOM     18  C   UNL     1      48.228   8.878  15.051  0.00  0.00    +0.000 A 
ATOM     19  C   UNL     1      47.603   8.157  14.036  0.00  0.00    +0.000 A 
ATOM     20  C   UNL     1      47.906   6.810  13.849  0.00  0.00    +0.000 A 
ATOM     21  N   UNL     1      47.235   6.009  12.947  0.00  0.00    +0.000 N 
ATOM     22  N   UNL     1      48.828   6.187  14.608  0.00  0.00    +0.000 NA
ATOM     23  C   UNL     1      49.438   6.904  15.590  0.00  0.00    +0.000 A 
ATOM     24  H   UNL     1      47.689   5.098  12.898  0.00  0.00    +0.000 HD
BRANCH  17  26
ATOM     25  N   UNL     1      49.040   9.740  17.762  0.00  0.00    +0.000 N 
ATOM     26  C   UNL     1      49.811   8.901  17.002  0.00  0.00    +0.000 C 
ATOM     27  O   UNL     1      50.985   8.689  17.279  0.00  0.00    +0.000 OA
ATOM     28  H   UNL     1      49.466  10.107  18.602  0.00  0.00    +0.000 HD
ATOM     29  H   UNL     1      48.029   9.722  17.724  0.00  0.00    +0.000 HD
ENDBRANCH  17  26
ENDBRANCH  16  21
ENDBRANCH   1  16
TORSDOF 6
ENDMDL
MODEL 7
REMARK VINA RESULT:    -6.646      3.705      7.511
REMARK INTER + INTRA:          -9.762
REMARK INTER:                  -8.627
REMARK INTRA:                  -1.135
REMARK UNBOUND:                -0.785
REMARK  Name = 
REMARK  6 active torsions:
REMARK  status: ('A' for Active; 'I' for Inactive)
REMARK    1  A    between atoms: C_2  and  C_4
REMARK    2  A    between atoms: N_8  and  C_9
REMARK    3  A    between atoms: C_9  and  C_10
REMARK    4  A    between atoms: C_10  and  C_13
REMARK    5  A    between atoms: C_17  and  O_18
REMARK    6  A    between atoms: O_18  and  C_19
REMARK                            x       y       z     vdW  Elec       q    Type
REMARK                         _______ _______ _______ _____ _____    ______ ____
ROOT
ATOM      1  C   UNL     1      49.051   8.184  12.369  0.00  0.00    +0.000 C 
ATOM      2  F   UNL     1      49.560   9.212  11.627  0.00  0.00    +0.000 F 
ATOM      3  F   UNL     1      49.753   7.077  11.984  0.00  0.00    +0.000 F 
ENDROOT
BRANCH   1   4
ATOM      4  C   UNL     1      47.559   8.006  12.165  0.00  0.00    +0.000 A 
ATOM      5  C   UNL     1      46.666   9.041  12.481  0.00  0.00    +0.000 A 
ATOM      6  C   UNL     1      45.304   8.905  12.204  0.00  0.00    +0.000 A 
ATOM      7  C   UNL     1      44.815   7.736  11.610  0.00  0.00    +0.000 A 
ATOM      8  C   UNL     1      45.689   6.689  11.318  0.00  0.00    +0.000 A 
ATOM      9  C   UNL     1      47.052   6.828  11.594  0.00  0.00    +0.000 A 
BRANCH   8  10
ATOM     10  O   UNL     1      45.341   5.510  10.711  0.00  0.00    +0.000 OA
BRANCH  10  11
ATOM     11  C   UNL     1      44.454   4.592  11.391  0.00  0.00    +0.000 C 
ATOM     12  C   UNL     1      44.809   4.178  12.833  0.00  0.00    +0.000 C 
ATOM     13  N   UNL     1      44.732   2.757  12.467  0.00  0.00    +0.000 NA
ATOM     14  C   UNL     1      44.659   3.101  11.041  0.00  0.00    +0.000 C 
ATOM     15  H   UNL     1      43.908   2.274  12.822  0.00  0.00    +0.000 HD
ENDBRANCH  10  11
ENDBRANCH   8  10
ENDBRANCH   1   4
BRANCH   1  16
ATOM     16  C   UNL     1      49.343   8.471  13.867  0.00  0.00    +0.000 C 
BRANCH  16  21
ATOM     17  C   UNL     1      48.168   4.546  16.909  0.00  0.00    +0.000 A 
ATOM     18  C   UNL     1      47.447   5.105  15.859  0.00  0.00    +0.000 A 
ATOM     19  C   UNL     1      48.048   6.090  15.078  0.00  0.00    +0.000 A 
ATOM     20  C   UNL     1      49.351   6.499  15.352  0.00  0.00    +0.000 A 
ATOM     21  N   UNL     1      50.047   7.376  14.544  0.00  0.00    +0.000 N 
ATOM     22  N   UNL     1      50.042   5.991  16.391  0.00  0.00    +0.000 NA
ATOM     23  C   UNL     1      49.442   5.037  17.152  0.00  0.00    +0.000 A 
ATOM     24  H   UNL     1      50.931   7.619  14.988  0.00  0.00    +0.000 HD
BRANCH  17  26
ATOM     25  N   UNL     1      48.322   3.153  18.890  0.00  0.00    +0.000 N 
ATOM     26  C   UNL     1      47.634   3.455  17.745  0.00  0.00    +0.000 C 
ATOM     27  O   UNL     1      46.600   2.868  17.451  0.00  0.00    +0.000 OA
ATOM     28  H   UNL     1      47.891   2.484  19.512  0.00  0.00    +0.000 HD
ATOM     29  H   UNL     1      49.004   3.786  19.289  0.00  0.00    +0.000 HD
ENDBRANCH  17  26
ENDBRANCH  16  21
ENDBRANCH   1  16
TORSDOF 6
ENDMDL
MODEL 8
REMARK VINA RESULT:    -6.569      4.148      6.511
REMARK INTER + INTRA:          -9.658
REMARK INTER:                  -9.077
REMARK INTRA:                  -0.581
REMARK UNBOUND:                -0.785
REMARK  Name = 
REMARK  6 active torsions:
REMARK  status: ('A' for Active; 'I' for Inactive)
REMARK    1  A    between atoms: C_2  and  C_4
REMARK    2  A    between atoms: N_8  and  C_9
REMARK    3  A    between atoms: C_9  and  C_10
REMARK    4  A    between atoms: C_10  and  C_13
REMARK    5  A    between atoms: C_17  and  O_18
REMARK    6  A    between atoms: O_18  and  C_19
REMARK                            x       y       z     vdW  Elec       q    Type
REMARK                         _______ _______ _______ _____ _____    ______ ____
ROOT
ATOM      1  C   UNL     1      48.077   2.949  16.934  0.00  0.00    +0.000 C 
ATOM      2  F   UNL     1      47.009   2.346  17.538  0.00  0.00    +0.000 F 
ATOM      3  F   UNL     1      48.717   1.953  16.253  0.00  0.00    +0.000 F 
ENDROOT
BRANCH   1   4
ATOM      4  C   UNL     1      48.994   3.633  17.929  0.00  0.00    +0.000 A 
ATOM      5  C   UNL     1      50.378   3.689  17.704  0.00  0.00    +0.000 A 
ATOM      6  C   UNL     1      51.205   4.400  18.575  0.00  0.00    +0.000 A 
ATOM      7  C   UNL     1      50.664   5.063  19.683  0.00  0.00    +0.000 A 
ATOM      8  C   UNL     1      49.294   4.990  19.933  0.00  0.00    +0.000 A 
ATOM      9  C   UNL     1      48.468   4.279  19.058  0.00  0.00    +0.000 A 
BRANCH   8  10
ATOM     10  O   UNL     1      48.640   5.618  20.962  0.00  0.00    +0.000 OA
BRANCH  10  11
ATOM     11  C   UNL     1      47.643   6.624  20.664  0.00  0.00    +0.000 C 
ATOM     12  C   UNL     1      48.085   7.865  19.864  0.00  0.00    +0.000 C 
ATOM     13  N   UNL     1      47.545   8.753  20.903  0.00  0.00    +0.000 NA
ATOM     14  C   UNL     1      47.351   7.616  21.812  0.00  0.00    +0.000 C 
ATOM     15  H   UNL     1      46.683   9.230  20.642  0.00  0.00    +0.000 HD
ENDBRANCH  10  11
ENDBRANCH   8  10
ENDBRANCH   1   4
BRANCH   1  16
ATOM     16  C   UNL     1      47.540   3.990  15.916  0.00  0.00    +0.000 C 
BRANCH  16  21
ATOM     17  C   UNL     1      44.468   4.910  11.946  0.00  0.00    +0.000 A 
ATOM     18  C   UNL     1      45.060   5.798  12.838  0.00  0.00    +0.000 A 
ATOM     19  C   UNL     1      45.984   5.312  13.761  0.00  0.00    +0.000 A 
ATOM     20  C   UNL     1      46.302   3.956  13.780  0.00  0.00    +0.000 A 
ATOM     21  N   UNL     1      47.297   3.431  14.582  0.00  0.00    +0.000 N 
ATOM     22  N   UNL     1      45.705   3.083  12.946  0.00  0.00    +0.000 NA
ATOM     23  C   UNL     1      44.799   3.568  12.055  0.00  0.00    +0.000 A 
ATOM     24  H   UNL     1      47.285   2.414  14.517  0.00  0.00    +0.000 HD
BRANCH  17  26
ATOM     25  N   UNL     1      42.775   6.460  11.160  0.00  0.00    +0.000 N 
ATOM     26  C   UNL     1      43.531   5.348  10.896  0.00  0.00    +0.000 C 
ATOM     27  O   UNL     1      43.456   4.770   9.819  0.00  0.00    +0.000 OA
ATOM     28  H   UNL     1      42.219   6.819  10.397  0.00  0.00    +0.000 HD
ATOM     29  H   UNL     1      43.007   7.101  11.908  0.00  0.00    +0.000 HD
ENDBRANCH  17  26
ENDBRANCH  16  21
ENDBRANCH   1  16
TORSDOF 6
ENDMDL
MODEL 9
REMARK VINA RESULT:    -6.424      3.727      5.273
REMARK INTER + INTRA:          -9.462
REMARK INTER:                  -8.352
REMARK INTRA:                  -1.109
REMARK UNBOUND:                -0.785
REMARK  Name = 
REMARK  6 active torsions:
REMARK  status: ('A' for Active; 'I' for Inactive)
REMARK    1  A    between atoms: C_2  and  C_4
REMARK    2  A    between atoms: N_8  and  C_9
REMARK    3  A    between atoms: C_9  and  C_10
REMARK    4  A    between atoms: C_10  and  C_13
REMARK    5  A    between atoms: C_17  and  O_18
REMARK    6  A    between atoms: O_18  and  C_19
REMARK                            x       y       z     vdW  Elec       q    Type
REMARK                         _______ _______ _______ _____ _____    ______ ____
ROOT
ATOM      1  C   UNL     1      48.729   8.864  13.972  0.00  0.00    +0.000 C 
ATOM      2  F   UNL     1      49.238  10.093  13.656  0.00  0.00    +0.000 F 
ATOM      3  F   UNL     1      47.513   9.112  14.542  0.00  0.00    +0.000 F 
ENDROOT
BRANCH   1   4
ATOM      4  C   UNL     1      49.638   8.083  14.901  0.00  0.00    +0.000 A 
ATOM      5  C   UNL     1      50.859   8.625  15.328  0.00  0.00    +0.000 A 
ATOM      6  C   UNL     1      51.648   7.941  16.256  0.00  0.00    +0.000 A 
ATOM      7  C   UNL     1      51.230   6.707  16.767  0.00  0.00    +0.000 A 
ATOM      8  C   UNL     1      50.032   6.145  16.329  0.00  0.00    +0.000 A 
ATOM      9  C   UNL     1      49.243   6.833  15.402  0.00  0.00    +0.000 A 
BRANCH   8  10
ATOM     10  O   UNL     1      49.499   4.962  16.774  0.00  0.00    +0.000 OA
BRANCH  10  11
ATOM     11  C   UNL     1      48.081   4.718  16.621  0.00  0.00    +0.000 C 
ATOM     12  C   UNL     1      47.222   4.622  17.898  0.00  0.00    +0.000 C 
ATOM     13  N   UNL     1      46.701   3.315  17.475  0.00  0.00    +0.000 NA
ATOM     14  C   UNL     1      47.692   3.240  16.393  0.00  0.00    +0.000 C 
ATOM     15  H   UNL     1      45.734   3.330  17.154  0.00  0.00    +0.000 HD
ENDBRANCH  10  11
ENDBRANCH   8  10
ENDBRANCH   1   4
BRANCH   1  16
ATOM     16  C   UNL     1      48.518   8.068  12.657  0.00  0.00    +0.000 C 
BRANCH  16  21
ATOM     17  C   UNL     1      44.842   4.612  11.891  0.00  0.00    +0.000 A 
ATOM     18  C   UNL     1      45.838   4.652  12.861  0.00  0.00    +0.000 A 
ATOM     19  C   UNL     1      46.644   5.785  12.954  0.00  0.00    +0.000 A 
ATOM     20  C   UNL     1      46.445   6.855  12.084  0.00  0.00    +0.000 A 
ATOM     21  N   UNL     1      47.122   8.052  12.202  0.00  0.00    +0.000 N 
ATOM     22  N   UNL     1      45.509   6.808  11.117  0.00  0.00    +0.000 NA
ATOM     23  C   UNL     1      44.735   5.693  11.030  0.00  0.00    +0.000 A 
ATOM     24  H   UNL     1      46.904   8.647  11.404  0.00  0.00    +0.000 HD
BRANCH  17  26
ATOM     25  N   UNL     1      44.144   2.383  12.547  0.00  0.00    +0.000 N 
ATOM     26  C   UNL     1      43.904   3.481  11.765  0.00  0.00    +0.000 C 
ATOM     27  O   UNL     1      42.931   3.533  11.022  0.00  0.00    +0.000 OA
ATOM     28  H   UNL     1      43.437   1.660  12.539  0.00  0.00    +0.000 HD
ATOM     29  H   UNL     1      44.762   2.419  13.348  0.00  0.00    +0.000 HD
ENDBRANCH  17  26
ENDBRANCH  16  21
ENDBRANCH   1  16
TORSDOF 6
ENDMDL
