MODEL 1
REMARK VINA RESULT:    -7.949      0.000      0.000
REMARK INTER + INTRA:         -10.582
REMARK INTER:                 -10.040
REMARK INTRA:                  -0.542
REMARK UNBOUND:                -0.542
REMARK  Name = 
REMARK  5 active torsions:
REMARK  status: ('A' for Active; 'I' for Inactive)
REMARK    1  A    between atoms: CA_4  and  C_5
REMARK    2  A    between atoms: C_5  and  OXT_7
REMARK    3  A    between atoms: N_10  and  C_11
REMARK    4  A    between atoms: C_11  and  C_12
REMARK    5  A    between atoms: C_16  and  C_17
REMARK                            x       y       z     vdW  Elec       q    Type
REMARK                         _______ _______ _______ _____ _____    ______ ____
ROOT
ATOM      1  N   UNL     1      49.690   1.451  16.399  0.00  0.00    +0.000 N 
ATOM      2  C   UNL     1      48.854   2.565  16.406  0.00  0.00    +0.000 A 
ATOM      3  C   UNL     1      48.708   3.306  17.545  0.00  0.00    +0.000 A 
ATOM      4  CA  UNL     1      47.818   4.347  17.442  0.00  0.00    +0.000 A 
ATOM      5  N   UNL     1      47.106   4.655  16.328  0.00  0.00    +0.000 NA
ATOM      6  C   UNL     1      47.322   3.861  15.275  0.00  0.00    +0.000 A 
ATOM      7  N   UNL     1      46.672   4.096  14.075  0.00  0.00    +0.000 N 
ATOM      8  N   UNL     1      48.167   2.822  15.284  0.00  0.00    +0.000 NA
ATOM      9  H   UNL     1      50.618   1.646  16.756  0.00  0.00    +0.000 HD
ATOM     10  H   UNL     1      49.716   1.069  15.456  0.00  0.00    +0.000 HD
ATOM     11  H   UNL     1      46.769   3.252  13.520  0.00  0.00    +0.000 HD
ENDROOT
BRANCH   4  12
ATOM     12  C   UNL     1      47.591   5.231  18.616  0.00  0.00    +0.000 C 
ATOM     13  O   UNL     1      48.470   5.647  19.352  0.00  0.00    +0.000 OA
BRANCH  12  14
ATOM     14  OXT UNL     1      46.275   5.515  18.762  0.00  0.00    +0.000 OA
ATOM     15  HXT UNL     1      46.038   6.260  18.162  0.00  0.00    +0.000 HD
ENDBRANCH  12  14
ENDBRANCH   4  12
BRANCH   7  16
ATOM     16  C   UNL     1      45.329   4.623  14.178  0.00  0.00    +0.000 C 
BRANCH  16  17
ATOM     17  C   UNL     1      44.682   4.636  12.819  0.00  0.00    +0.000 A 
ATOM     18  C   UNL     1      43.409   5.159  12.634  0.00  0.00    +0.000 A 
ATOM     19  N   UNL     1      42.772   5.181  11.446  0.00  0.00    +0.000 NA
ATOM     20  C   UNL     1      43.429   4.641  10.389  0.00  0.00    +0.000 A 
ATOM     21  C   UNL     1      44.708   4.080  10.431  0.00  0.00    +0.000 A 
ATOM     22  C   UNL     1      45.324   4.095  11.696  0.00  0.00    +0.000 A 
BRANCH  21  23
ATOM     23  C   UNL     1      45.368   3.505   9.234  0.00  0.00    +0.000 A 
ATOM     24  C   UNL     1      45.868   4.317   8.198  0.00  0.00    +0.000 A 
ATOM     25  C   UNL     1      46.499   3.770   7.074  0.00  0.00    +0.000 A 
ATOM     26  C   UNL     1      46.655   2.392   6.963  0.00  0.00    +0.000 A 
ATOM     27  C   UNL     1      46.170   1.563   7.968  0.00  0.00    +0.000 A 
ATOM     28  C   UNL     1      45.528   2.113   9.083  0.00  0.00    +0.000 A 
ENDBRANCH  21  23
ENDBRANCH  16  17
ENDBRANCH   7  16
TORSDOF 5
ENDMDL
MODEL 2
REMARK VINA RESULT:    -7.821      1.938      2.240
REMARK INTER + INTRA:         -10.421
REMARK INTER:                  -9.918
REMARK INTRA:                  -0.503
REMARK UNBOUND:                -0.542
REMARK  Name = 
REMARK  5 active torsions:
REMARK  status: ('A' for Active; 'I' for Inactive)
REMARK    1  A    between atoms: CA_4  and  C_5
REMARK    2  A    between atoms: C_5  and  OXT_7
REMARK    3  A    between atoms: N_10  and  C_11
REMARK    4  A    between atoms: C_11  and  C_12
REMARK    5  A    between atoms: C_16  and  C_17
REMARK                            x       y       z     vdW  Elec       q    Type
REMARK                         _______ _______ _______ _____ _____    ______ ____
ROOT
ATOM      1  N   UNL     1      47.766   3.518  18.651  0.00  0.00    +0.000 N 
ATOM      2  C   UNL     1      47.865   4.174  17.427  0.00  0.00    +0.000 A 
ATOM      3  C   UNL     1      48.660   5.277  17.301  0.00  0.00    +0.000 A 
ATOM      4  CA  UNL     1      48.634   5.866  16.061  0.00  0.00    +0.000 A 
ATOM      5  N   UNL     1      47.888   5.436  15.011  0.00  0.00    +0.000 NA
ATOM      6  C   UNL     1      47.144   4.352  15.246  0.00  0.00    +0.000 A 
ATOM      7  N   UNL     1      46.363   3.806  14.241  0.00  0.00    +0.000 N 
ATOM      8  N   UNL     1      47.103   3.715  16.424  0.00  0.00    +0.000 NA
ATOM      9  H   UNL     1      48.667   3.290  19.056  0.00  0.00    +0.000 HD
ATOM     10  H   UNL     1      47.182   2.692  18.533  0.00  0.00    +0.000 HD
ATOM     11  H   UNL     1      45.701   3.182  14.691  0.00  0.00    +0.000 HD
ENDROOT
BRANCH   4  12
ATOM     12  C   UNL     1      49.473   7.067  15.806  0.00  0.00    +0.000 C 
ATOM     13  O   UNL     1      49.468   8.076  16.491  0.00  0.00    +0.000 OA
BRANCH  12  14
ATOM     14  OXT UNL     1      50.250   6.892  14.710  0.00  0.00    +0.000 OA
ATOM     15  HXT UNL     1      49.764   6.339  14.055  0.00  0.00    +0.000 HD
ENDBRANCH  12  14
ENDBRANCH   4  12
BRANCH   7  16
ATOM     16  C   UNL     1      45.793   4.749  13.303  0.00  0.00    +0.000 C 
BRANCH  16  17
ATOM     17  C   UNL     1      45.109   4.005  12.188  0.00  0.00    +0.000 A 
ATOM     18  C   UNL     1      43.823   3.503  12.342  0.00  0.00    +0.000 A 
ATOM     19  N   UNL     1      43.166   2.813  11.388  0.00  0.00    +0.000 NA
ATOM     20  C   UNL     1      43.828   2.598  10.223  0.00  0.00    +0.000 A 
ATOM     21  C   UNL     1      45.121   3.042   9.933  0.00  0.00    +0.000 A 
ATOM     22  C   UNL     1      45.750   3.763  10.964  0.00  0.00    +0.000 A 
BRANCH  21  23
ATOM     23  C   UNL     1      45.787   2.770   8.635  0.00  0.00    +0.000 A 
ATOM     24  C   UNL     1      45.993   3.783   7.678  0.00  0.00    +0.000 A 
ATOM     25  C   UNL     1      46.629   3.523   6.459  0.00  0.00    +0.000 A 
ATOM     26  C   UNL     1      47.087   2.241   6.169  0.00  0.00    +0.000 A 
ATOM     27  C   UNL     1      46.896   1.220   7.092  0.00  0.00    +0.000 A 
ATOM     28  C   UNL     1      46.247   1.481   8.304  0.00  0.00    +0.000 A 
ENDBRANCH  21  23
ENDBRANCH  16  17
ENDBRANCH   7  16
TORSDOF 5
ENDMDL
MODEL 3
REMARK VINA RESULT:    -7.624      5.181      6.843
REMARK INTER + INTRA:         -10.172
REMARK INTER:                  -9.661
REMARK INTRA:                  -0.511
REMARK UNBOUND:                -0.542
REMARK  Name = 
REMARK  5 active torsions:
REMARK  status: ('A' for Active; 'I' for Inactive)
REMARK    1  A    between atoms: CA_4  and  C_5
REMARK    2  A    between atoms: C_5  and  OXT_7
REMARK    3  A    between atoms: N_10  and  C_11
REMARK    4  A    between atoms: C_11  and  C_12
REMARK    5  A    between atoms: C_16  and  C_17
REMARK                            x       y       z     vdW  Elec       q    Type
REMARK                         _______ _______ _______ _____ _____    ______ ____
ROOT
ATOM      1  N   UNL     1      42.232  11.494   9.157  0.00  0.00    +0.000 N 
ATOM      2  C   UNL     1      43.169  10.899   9.998  0.00  0.00    +0.000 A 
ATOM      3  C   UNL     1      44.224  11.626  10.474  0.00  0.00    +0.000 A 
ATOM      4  CA  UNL     1      45.106  10.916  11.250  0.00  0.00    +0.000 A 
ATOM      5  N   UNL     1      44.996   9.596  11.546  0.00  0.00    +0.000 NA
ATOM      6  C   UNL     1      43.929   8.982  11.025  0.00  0.00    +0.000 A 
ATOM      7  N   UNL     1      43.698   7.641  11.282  0.00  0.00    +0.000 N 
ATOM      8  N   UNL     1      43.019   9.591  10.254  0.00  0.00    +0.000 NA
ATOM      9  H   UNL     1      41.862  12.363   9.523  0.00  0.00    +0.000 HD
ATOM     10  H   UNL     1      41.496  10.818   8.959  0.00  0.00    +0.000 HD
ATOM     11  H   UNL     1      43.017   7.326  10.598  0.00  0.00    +0.000 HD
ENDROOT
BRANCH   4  12
ATOM     12  C   UNL     1      46.285  11.610  11.834  0.00  0.00    +0.000 C 
ATOM     13  O   UNL     1      47.445  11.285  11.646  0.00  0.00    +0.000 OA
BRANCH  12  14
ATOM     14  OXT UNL     1      45.901  12.656  12.603  0.00  0.00    +0.000 OA
ATOM     15  HXT UNL     1      44.918  12.662  12.671  0.00  0.00    +0.000 HD
ENDBRANCH  12  14
ENDBRANCH   4  12
BRANCH   7  16
ATOM     16  C   UNL     1      44.875   6.812  11.418  0.00  0.00    +0.000 C 
BRANCH  16  17
ATOM     17  C   UNL     1      44.579   5.423  10.919  0.00  0.00    +0.000 A 
ATOM     18  C   UNL     1      43.603   4.638  11.517  0.00  0.00    +0.000 A 
ATOM     19  N   UNL     1      43.307   3.381  11.127  0.00  0.00    +0.000 NA
ATOM     20  C   UNL     1      44.029   2.874  10.097  0.00  0.00    +0.000 A 
ATOM     21  C   UNL     1      45.040   3.549   9.406  0.00  0.00    +0.000 A 
ATOM     22  C   UNL     1      45.295   4.858   9.854  0.00  0.00    +0.000 A 
BRANCH  21  23
ATOM     23  C   UNL     1      45.792   2.932   8.286  0.00  0.00    +0.000 A 
ATOM     24  C   UNL     1      46.135   3.660   7.130  0.00  0.00    +0.000 A 
ATOM     25  C   UNL     1      46.853   3.075   6.081  0.00  0.00    +0.000 A 
ATOM     26  C   UNL     1      47.256   1.746   6.165  0.00  0.00    +0.000 A 
ATOM     27  C   UNL     1      46.930   1.000   7.292  0.00  0.00    +0.000 A 
ATOM     28  C   UNL     1      46.200   1.585   8.333  0.00  0.00    +0.000 A 
ENDBRANCH  21  23
ENDBRANCH  16  17
ENDBRANCH   7  16
TORSDOF 5
ENDMDL
MODEL 4
REMARK VINA RESULT:    -7.526      5.525      6.445
REMARK INTER + INTRA:         -10.048
REMARK INTER:                  -9.499
REMARK INTRA:                  -0.549
REMARK UNBOUND:                -0.542
REMARK  Name = 
REMARK  5 active torsions:
REMARK  status: ('A' for Active; 'I' for Inactive)
REMARK    1  A    between atoms: CA_4  and  C_5
REMARK    2  A    between atoms: C_5  and  OXT_7
REMARK    3  A    between atoms: N_10  and  C_11
REMARK    4  A    between atoms: C_11  and  C_12
REMARK    5  A    between atoms: C_16  and  C_17
REMARK                            x       y       z     vdW  Elec       q    Type
REMARK                         _______ _______ _______ _____ _____    ______ ____
ROOT
ATOM      1  N   UNL     1      47.303  10.737  12.818  0.00  0.00    +0.000 N 
ATOM      2  C   UNL     1      46.180  10.251  12.154  0.00  0.00    +0.000 A 
ATOM      3  C   UNL     1      45.193  11.108  11.755  0.00  0.00    +0.000 A 
ATOM      4  CA  UNL     1      44.115  10.504  11.157  0.00  0.00    +0.000 A 
ATOM      5  N   UNL     1      43.981   9.168  10.961  0.00  0.00    +0.000 NA
ATOM      6  C   UNL     1      45.002   8.423  11.395  0.00  0.00    +0.000 A 
ATOM      7  N   UNL     1      44.988   7.049  11.224  0.00  0.00    +0.000 N 
ATOM      8  N   UNL     1      46.091   8.923  11.992  0.00  0.00    +0.000 NA
ATOM      9  H   UNL     1      47.748  11.510  12.337  0.00  0.00    +0.000 HD
ATOM     10  H   UNL     1      47.947   9.965  12.979  0.00  0.00    +0.000 HD
ATOM     11  H   UNL     1      45.700   6.670  11.842  0.00  0.00    +0.000 HD
ENDROOT
BRANCH   4  12
ATOM     12  C   UNL     1      42.988  11.343  10.669  0.00  0.00    +0.000 C 
ATOM     13  O   UNL     1      43.115  12.409  10.092  0.00  0.00    +0.000 OA
BRANCH  12  14
ATOM     14  OXT UNL     1      41.796  10.764  10.950  0.00  0.00    +0.000 OA
ATOM     15  HXT UNL     1      41.954   9.881  11.357  0.00  0.00    +0.000 HD
ENDBRANCH  12  14
ENDBRANCH   4  12
BRANCH   7  16
ATOM     16  C   UNL     1      43.690   6.415  11.307  0.00  0.00    +0.000 C 
BRANCH  16  17
ATOM     17  C   UNL     1      43.803   4.971  10.900  0.00  0.00    +0.000 A 
ATOM     18  C   UNL     1      43.126   3.975  11.591  0.00  0.00    +0.000 A 
ATOM     19  N   UNL     1      43.203   2.663  11.287  0.00  0.00    +0.000 NA
ATOM     20  C   UNL     1      44.008   2.322  10.249  0.00  0.00    +0.000 A 
ATOM     21  C   UNL     1      44.747   3.217   9.470  0.00  0.00    +0.000 A 
ATOM     22  C   UNL     1      44.618   4.570   9.831  0.00  0.00    +0.000 A 
BRANCH  21  23
ATOM     23  C   UNL     1      45.609   2.774   8.347  0.00  0.00    +0.000 A 
ATOM     24  C   UNL     1      45.900   3.615   7.256  0.00  0.00    +0.000 A 
ATOM     25  C   UNL     1      46.722   3.195   6.203  0.00  0.00    +0.000 A 
ATOM     26  C   UNL     1      47.284   1.923   6.221  0.00  0.00    +0.000 A 
ATOM     27  C   UNL     1      47.014   1.068   7.283  0.00  0.00    +0.000 A 
ATOM     28  C   UNL     1      46.181   1.486   8.326  0.00  0.00    +0.000 A 
ENDBRANCH  21  23
ENDBRANCH  16  17
ENDBRANCH   7  16
TORSDOF 5
ENDMDL
MODEL 5
REMARK VINA RESULT:    -7.455      3.085      4.505
REMARK INTER + INTRA:          -9.958
REMARK INTER:                  -9.227
REMARK INTRA:                  -0.731
REMARK UNBOUND:                -0.542
REMARK  Name = 
REMARK  5 active torsions:
REMARK  status: ('A' for Active; 'I' for Inactive)
REMARK    1  A    between atoms: CA_4  and  C_5
REMARK    2  A    between atoms: C_5  and  OXT_7
REMARK    3  A    between atoms: N_10  and  C_11
REMARK    4  A    between atoms: C_11  and  C_12
REMARK    5  A    between atoms: C_16  and  C_17
REMARK                            x       y       z     vdW  Elec       q    Type
REMARK                         _______ _______ _______ _____ _____    ______ ____
ROOT
ATOM      1  N   UNL     1      47.975   4.836  20.567  0.00  0.00    +0.000 N 
ATOM      2  C   UNL     1      48.340   4.643  19.237  0.00  0.00    +0.000 A 
ATOM      3  C   UNL     1      48.918   3.468  18.847  0.00  0.00    +0.000 A 
ATOM      4  CA  UNL     1      49.280   3.418  17.523  0.00  0.00    +0.000 A 
ATOM      5  N   UNL     1      49.111   4.427  16.631  0.00  0.00    +0.000 NA
ATOM      6  C   UNL     1      48.540   5.531  17.121  0.00  0.00    +0.000 A 
ATOM      7  N   UNL     1      48.292   6.616  16.296  0.00  0.00    +0.000 N 
ATOM      8  N   UNL     1      48.159   5.673  18.397  0.00  0.00    +0.000 NA
ATOM      9  H   UNL     1      47.411   4.081  20.940  0.00  0.00    +0.000 HD
ATOM     10  H   UNL     1      47.510   5.738  20.650  0.00  0.00    +0.000 HD
ATOM     11  H   UNL     1      48.114   7.410  16.903  0.00  0.00    +0.000 HD
ENDROOT
BRANCH   4  12
ATOM     12  C   UNL     1      49.906   2.181  16.985  0.00  0.00    +0.000 C 
ATOM     13  O   UNL     1      49.605   1.654  15.927  0.00  0.00    +0.000 OA
BRANCH  12  14
ATOM     14  OXT UNL     1      50.859   1.714  17.827  0.00  0.00    +0.000 OA
ATOM     15  HXT UNL     1      51.200   2.459  18.373  0.00  0.00    +0.000 HD
ENDBRANCH  12  14
ENDBRANCH   4  12
BRANCH   7  16
ATOM     16  C   UNL     1      49.256   6.841  15.242  0.00  0.00    +0.000 C 
BRANCH  16  17
ATOM     17  C   UNL     1      48.555   6.875  13.911  0.00  0.00    +0.000 A 
ATOM     18  C   UNL     1      48.990   7.711  12.891  0.00  0.00    +0.000 A 
ATOM     19  N   UNL     1      48.392   7.799  11.685  0.00  0.00    +0.000 NA
ATOM     20  C   UNL     1      47.295   7.025  11.488  0.00  0.00    +0.000 A 
ATOM     21  C   UNL     1      46.748   6.142  12.424  0.00  0.00    +0.000 A 
ATOM     22  C   UNL     1      47.421   6.089  13.658  0.00  0.00    +0.000 A 
BRANCH  21  23
ATOM     23  C   UNL     1      45.543   5.325  12.142  0.00  0.00    +0.000 A 
ATOM     24  C   UNL     1      44.768   4.760  13.174  0.00  0.00    +0.000 A 
ATOM     25  C   UNL     1      43.627   3.997  12.901  0.00  0.00    +0.000 A 
ATOM     26  C   UNL     1      43.224   3.787  11.587  0.00  0.00    +0.000 A 
ATOM     27  C   UNL     1      43.969   4.329  10.546  0.00  0.00    +0.000 A 
ATOM     28  C   UNL     1      45.117   5.079  10.821  0.00  0.00    +0.000 A 
ENDBRANCH  21  23
ENDBRANCH  16  17
ENDBRANCH   7  16
TORSDOF 5
ENDMDL
MODEL 6
REMARK VINA RESULT:    -7.306      2.771      3.419
REMARK INTER + INTRA:          -9.771
REMARK INTER:                  -9.128
REMARK INTRA:                  -0.642
REMARK UNBOUND:                -0.542
REMARK  Name = 
REMARK  5 active torsions:
REMARK  status: ('A' for Active; 'I' for Inactive)
REMARK    1  A    between atoms: CA_4  and  C_5
REMARK    2  A    between atoms: C_5  and  OXT_7
REMARK    3  A    between atoms: N_10  and  C_11
REMARK    4  A    between atoms: C_11  and  C_12
REMARK    5  A    between atoms: C_16  and  C_17
REMARK                            x       y       z     vdW  Elec       q    Type
REMARK                         _______ _______ _______ _____ _____    ______ ____
ROOT
ATOM      1  N   UNL     1      50.030   6.692  19.316  0.00  0.00    +0.000 N 
ATOM      2  C   UNL     1      49.410   6.252  18.150  0.00  0.00    +0.000 A 
ATOM      3  C   UNL     1      48.989   4.957  18.043  0.00  0.00    +0.000 A 
ATOM      4  CA  UNL     1      48.440   4.630  16.827  0.00  0.00    +0.000 A 
ATOM      5  N   UNL     1      48.311   5.480  15.778  0.00  0.00    +0.000 NA
ATOM      6  C   UNL     1      48.760   6.720  15.990  0.00  0.00    +0.000 A 
ATOM      7  N   UNL     1      48.655   7.683  15.000  0.00  0.00    +0.000 N 
ATOM      8  N   UNL     1      49.313   7.128  17.140  0.00  0.00    +0.000 NA
ATOM      9  H   UNL     1      49.504   6.473  20.155  0.00  0.00    +0.000 HD
ATOM     10  H   UNL     1      50.215   7.690  19.231  0.00  0.00    +0.000 HD
ATOM     11  H   UNL     1      49.277   8.441  15.262  0.00  0.00    +0.000 HD
ENDROOT
BRANCH   4  12
ATOM     12  C   UNL     1      47.934   3.249  16.604  0.00  0.00    +0.000 C 
ATOM     13  O   UNL     1      48.515   2.393  15.958  0.00  0.00    +0.000 OA
BRANCH  12  14
ATOM     14  OXT UNL     1      46.740   3.065  17.215  0.00  0.00    +0.000 OA
ATOM     15  HXT UNL     1      46.047   3.570  16.730  0.00  0.00    +0.000 HD
ENDBRANCH  12  14
ENDBRANCH   4  12
BRANCH   7  16
ATOM     16  C   UNL     1      48.792   7.207  13.640  0.00  0.00    +0.000 C 
BRANCH  16  17
ATOM     17  C   UNL     1      47.446   7.199  12.968  0.00  0.00    +0.000 A 
ATOM     18  C   UNL     1      46.521   8.209  13.197  0.00  0.00    +0.000 A 
ATOM     19  N   UNL     1      45.294   8.246  12.640  0.00  0.00    +0.000 NA
ATOM     20  C   UNL     1      44.963   7.216  11.820  0.00  0.00    +0.000 A 
ATOM     21  C   UNL     1      45.791   6.136  11.503  0.00  0.00    +0.000 A 
ATOM     22  C   UNL     1      47.060   6.159  12.109  0.00  0.00    +0.000 A 
BRANCH  21  23
ATOM     23  C   UNL     1      45.363   5.041  10.598  0.00  0.00    +0.000 A 
ATOM     24  C   UNL     1      45.625   5.074   9.215  0.00  0.00    +0.000 A 
ATOM     25  C   UNL     1      45.227   4.033   8.367  0.00  0.00    +0.000 A 
ATOM     26  C   UNL     1      44.565   2.925   8.885  0.00  0.00    +0.000 A 
ATOM     27  C   UNL     1      44.290   2.864  10.246  0.00  0.00    +0.000 A 
ATOM     28  C   UNL     1      44.677   3.912  11.088  0.00  0.00    +0.000 A 
ENDBRANCH  21  23
ENDBRANCH  16  17
ENDBRANCH   7  16
TORSDOF 5
ENDMDL
MODEL 7
REMARK VINA RESULT:    -7.184      4.154      8.035
REMARK INTER + INTRA:          -9.615
REMARK INTER:                  -8.921
REMARK INTRA:                  -0.694
REMARK UNBOUND:                -0.542
REMARK  Name = 
REMARK  5 active torsions:
REMARK  status: ('A' for Active; 'I' for Inactive)
REMARK    1  A    between atoms: CA_4  and  C_5
REMARK    2  A    between atoms: C_5  and  OXT_7
REMARK    3  A    between atoms: N_10  and  C_11
REMARK    4  A    between atoms: C_11  and  C_12
REMARK    5  A    between atoms: C_16  and  C_17
REMARK                            x       y       z     vdW  Elec       q    Type
REMARK                         _______ _______ _______ _____ _____    ______ ____
ROOT
ATOM      1  N   UNL     1      43.594   2.344  12.544  0.00  0.00    +0.000 N 
ATOM      2  C   UNL     1      44.171   3.370  11.800  0.00  0.00    +0.000 A 
ATOM      3  C   UNL     1      44.413   3.199  10.466  0.00  0.00    +0.000 A 
ATOM      4  CA  UNL     1      45.032   4.261   9.854  0.00  0.00    +0.000 A 
ATOM      5  N   UNL     1      45.405   5.408  10.476  0.00  0.00    +0.000 NA
ATOM      6  C   UNL     1      45.124   5.467  11.780  0.00  0.00    +0.000 A 
ATOM      7  N   UNL     1      45.434   6.601  12.513  0.00  0.00    +0.000 N 
ATOM      8  N   UNL     1      44.528   4.480  12.462  0.00  0.00    +0.000 NA
ATOM      9  H   UNL     1      42.747   1.975  12.126  0.00  0.00    +0.000 HD
ATOM     10  H   UNL     1      43.437   2.677  13.493  0.00  0.00    +0.000 HD
ATOM     11  H   UNL     1      45.387   6.338  13.493  0.00  0.00    +0.000 HD
ENDROOT
BRANCH   4  12
ATOM     12  C   UNL     1      45.332   4.190   8.399  0.00  0.00    +0.000 C 
ATOM     13  O   UNL     1      46.316   4.677   7.868  0.00  0.00    +0.000 OA
BRANCH  12  14
ATOM     14  OXT UNL     1      44.366   3.509   7.737  0.00  0.00    +0.000 OA
ATOM     15  HXT UNL     1      43.808   3.026   8.389  0.00  0.00    +0.000 HD
ENDBRANCH  12  14
ENDBRANCH   4  12
BRANCH   7  16
ATOM     16  C   UNL     1      46.633   7.303  12.113  0.00  0.00    +0.000 C 
BRANCH  16  17
ATOM     17  C   UNL     1      47.662   7.217  13.208  0.00  0.00    +0.000 A 
ATOM     18  C   UNL     1      48.772   8.050  13.219  0.00  0.00    +0.000 A 
ATOM     19  N   UNL     1      49.736   8.007  14.161  0.00  0.00    +0.000 NA
ATOM     20  C   UNL     1      49.596   7.075  15.137  0.00  0.00    +0.000 A 
ATOM     21  C   UNL     1      48.534   6.172  15.249  0.00  0.00    +0.000 A 
ATOM     22  C   UNL     1      47.558   6.273  14.241  0.00  0.00    +0.000 A 
BRANCH  21  23
ATOM     23  C   UNL     1      48.444   5.177  16.345  0.00  0.00    +0.000 A 
ATOM     24  C   UNL     1      47.479   4.151  16.340  0.00  0.00    +0.000 A 
ATOM     25  C   UNL     1      47.404   3.209  17.372  0.00  0.00    +0.000 A 
ATOM     26  C   UNL     1      48.302   3.262  18.434  0.00  0.00    +0.000 A 
ATOM     27  C   UNL     1      49.264   4.264  18.468  0.00  0.00    +0.000 A 
ATOM     28  C   UNL     1      49.327   5.213  17.441  0.00  0.00    +0.000 A 
ENDBRANCH  21  23
ENDBRANCH  16  17
ENDBRANCH   7  16
TORSDOF 5
ENDMDL
MODEL 8
REMARK VINA RESULT:    -6.581      3.609      8.656
REMARK INTER + INTRA:          -8.855
REMARK INTER:                  -8.314
REMARK INTRA:                  -0.541
REMARK UNBOUND:                -0.542
REMARK  Name = 
REMARK  5 active torsions:
REMARK  status: ('A' for Active; 'I' for Inactive)
REMARK    1  A    between atoms: CA_4  and  C_5
REMARK    2  A    between atoms: C_5  and  OXT_7
REMARK    3  A    between atoms: N_10  and  C_11
REMARK    4  A    between atoms: C_11  and  C_12
REMARK    5  A    between atoms: C_16  and  C_17
REMARK                            x       y       z     vdW  Elec       q    Type
REMARK                         _______ _______ _______ _____ _____    ______ ____
ROOT
ATOM      1  N   UNL     1      41.875   5.631  11.783  0.00  0.00    +0.000 N 
ATOM      2  C   UNL     1      43.205   5.640  11.372  0.00  0.00    +0.000 A 
ATOM      3  C   UNL     1      43.589   4.927  10.272  0.00  0.00    +0.000 A 
ATOM      4  CA  UNL     1      44.934   4.974   9.998  0.00  0.00    +0.000 A 
ATOM      5  N   UNL     1      45.855   5.648  10.732  0.00  0.00    +0.000 NA
ATOM      6  C   UNL     1      45.371   6.306  11.789  0.00  0.00    +0.000 A 
ATOM      7  N   UNL     1      46.214   7.052  12.596  0.00  0.00    +0.000 N 
ATOM      8  N   UNL     1      44.077   6.315  12.136  0.00  0.00    +0.000 NA
ATOM      9  H   UNL     1      41.225   5.851  11.037  0.00  0.00    +0.000 HD
ATOM     10  H   UNL     1      41.774   6.262  12.576  0.00  0.00    +0.000 HD
ATOM     11  H   UNL     1      45.708   7.236  13.457  0.00  0.00    +0.000 HD
ENDROOT
BRANCH   4  12
ATOM     12  C   UNL     1      45.462   4.245   8.814  0.00  0.00    +0.000 C 
ATOM     13  O   UNL     1      46.216   4.724   7.983  0.00  0.00    +0.000 OA
BRANCH  12  14
ATOM     14  OXT UNL     1      44.995   2.974   8.778  0.00  0.00    +0.000 OA
ATOM     15  HXT UNL     1      44.353   2.887   8.036  0.00  0.00    +0.000 HD
ENDBRANCH  12  14
ENDBRANCH   4  12
BRANCH   7  16
ATOM     16  C   UNL     1      47.554   6.532  12.760  0.00  0.00    +0.000 C 
BRANCH  16  17
ATOM     17  C   UNL     1      47.598   5.605  13.945  0.00  0.00    +0.000 A 
ATOM     18  C   UNL     1      47.184   4.284  13.840  0.00  0.00    +0.000 A 
ATOM     19  N   UNL     1      47.183   3.413  14.869  0.00  0.00    +0.000 NA
ATOM     20  C   UNL     1      47.602   3.885  16.071  0.00  0.00    +0.000 A 
ATOM     21  C   UNL     1      48.042   5.188  16.320  0.00  0.00    +0.000 A 
ATOM     22  C   UNL     1      48.028   6.045  15.205  0.00  0.00    +0.000 A 
BRANCH  21  23
ATOM     23  C   UNL     1      48.486   5.637  17.662  0.00  0.00    +0.000 A 
ATOM     24  C   UNL     1      49.662   6.391  17.842  0.00  0.00    +0.000 A 
ATOM     25  C   UNL     1      50.072   6.821  19.110  0.00  0.00    +0.000 A 
ATOM     26  C   UNL     1      49.308   6.515  20.232  0.00  0.00    +0.000 A 
ATOM     27  C   UNL     1      48.144   5.770  20.087  0.00  0.00    +0.000 A 
ATOM     28  C   UNL     1      47.745   5.331  18.820  0.00  0.00    +0.000 A 
ENDBRANCH  21  23
ENDBRANCH  16  17
ENDBRANCH   7  16
TORSDOF 5
ENDMDL
MODEL 9
REMARK VINA RESULT:    -6.568      2.253      2.757
REMARK INTER + INTRA:          -8.838
REMARK INTER:                  -8.203
REMARK INTRA:                  -0.635
REMARK UNBOUND:                -0.542
REMARK  Name = 
REMARK  5 active torsions:
REMARK  status: ('A' for Active; 'I' for Inactive)
REMARK    1  A    between atoms: CA_4  and  C_5
REMARK    2  A    between atoms: C_5  and  OXT_7
REMARK    3  A    between atoms: N_10  and  C_11
REMARK    4  A    between atoms: C_11  and  C_12
REMARK    5  A    between atoms: C_16  and  C_17
REMARK                            x       y       z     vdW  Elec       q    Type
REMARK                         _______ _______ _______ _____ _____    ______ ____
ROOT
ATOM      1  N   UNL     1      46.968   2.786  17.756  0.00  0.00    +0.000 N 
ATOM      2  C   UNL     1      47.506   4.040  17.480  0.00  0.00    +0.000 A 
ATOM      3  C   UNL     1      47.792   4.904  18.499  0.00  0.00    +0.000 A 
ATOM      4  CA  UNL     1      48.269   6.127  18.097  0.00  0.00    +0.000 A 
ATOM      5  N   UNL     1      48.451   6.507  16.807  0.00  0.00    +0.000 NA
ATOM      6  C   UNL     1      48.134   5.586  15.892  0.00  0.00    +0.000 A 
ATOM      7  N   UNL     1      48.304   5.851  14.543  0.00  0.00    +0.000 N 
ATOM      8  N   UNL     1      47.659   4.370  16.189  0.00  0.00    +0.000 NA
ATOM      9  H   UNL     1      47.494   2.270  18.452  0.00  0.00    +0.000 HD
ATOM     10  H   UNL     1      46.881   2.268  16.883  0.00  0.00    +0.000 HD
ATOM     11  H   UNL     1      47.769   5.152  14.038  0.00  0.00    +0.000 HD
ENDROOT
BRANCH   4  12
ATOM     12  C   UNL     1      48.628   7.142  19.124  0.00  0.00    +0.000 C 
ATOM     13  O   UNL     1      49.348   8.106  18.925  0.00  0.00    +0.000 OA
BRANCH  12  14
ATOM     14  OXT UNL     1      48.046   6.857  20.312  0.00  0.00    +0.000 OA
ATOM     15  HXT UNL     1      47.100   7.132  20.283  0.00  0.00    +0.000 HD
ENDBRANCH  12  14
ENDBRANCH   4  12
BRANCH   7  16
ATOM     16  C   UNL     1      48.080   7.221  14.136  0.00  0.00    +0.000 C 
BRANCH  16  17
ATOM     17  C   UNL     1      46.962   7.276  13.131  0.00  0.00    +0.000 A 
ATOM     18  C   UNL     1      46.159   8.403  13.010  0.00  0.00    +0.000 A 
ATOM     19  N   UNL     1      45.132   8.504  12.143  0.00  0.00    +0.000 NA
ATOM     20  C   UNL     1      44.879   7.421  11.364  0.00  0.00    +0.000 A 
ATOM     21  C   UNL     1      45.601   6.225  11.382  0.00  0.00    +0.000 A 
ATOM     22  C   UNL     1      46.666   6.185  12.301  0.00  0.00    +0.000 A 
BRANCH  21  23
ATOM     23  C   UNL     1      45.270   5.078  10.502  0.00  0.00    +0.000 A 
ATOM     24  C   UNL     1      45.632   5.056   9.141  0.00  0.00    +0.000 A 
ATOM     25  C   UNL     1      45.324   3.967   8.317  0.00  0.00    +0.000 A 
ATOM     26  C   UNL     1      44.653   2.865   8.837  0.00  0.00    +0.000 A 
ATOM     27  C   UNL     1      44.280   2.858  10.176  0.00  0.00    +0.000 A 
ATOM     28  C   UNL     1      44.577   3.954  10.993  0.00  0.00    +0.000 A 
ENDBRANCH  21  23
ENDBRANCH  16  17
ENDBRANCH   7  16
TORSDOF 5
ENDMDL
