MODEL 1
REMARK VINA RESULT:    -6.844      0.000      0.000
REMARK INTER + INTRA:         -11.130
REMARK INTER:                  -9.644
REMARK INTRA:                  -1.486
REMARK UNBOUND:                -1.486
REMARK  Name = 
REMARK  8 active torsions:
REMARK  status: ('A' for Active; 'I' for Inactive)
REMARK    1  A    between atoms: N_1  and  C_2
REMARK    2  A    between atoms: C_2  and  C_3
REMARK    3  A    between atoms: C_8  and  O_9
REMARK    4  A    between atoms: O_9  and  C_10
REMARK    5  A    between atoms: C_10  and  C_11
REMARK    6  A    between atoms: C_10  and  C_13
REMARK    7  A    between atoms: C_11  and  O_12
REMARK    8  A    between atoms: C_17  and  N_18
REMARK                            x       y       z     vdW  Elec       q    Type
REMARK                         _______ _______ _______ _____ _____    ______ ____
ROOT
ATOM      1  C   UNL     1      46.826   5.003  13.458  0.00  0.00    +0.000 C 
ENDROOT
BRANCH   1   2
ATOM      2  C   UNL     1      45.567   4.520  12.752  0.00  0.00    +0.000 A 
ATOM      3  C   UNL     1      44.319   4.682  13.366  0.00  0.00    +0.000 A 
ATOM      4  C   UNL     1      43.158   4.379  12.665  0.00  0.00    +0.000 A 
ATOM      5  C   UNL     1      43.235   3.913  11.350  0.00  0.00    +0.000 A 
ATOM      6  C   UNL     1      44.463   3.713  10.708  0.00  0.00    +0.000 A 
ATOM      7  C   UNL     1      45.620   4.019  11.440  0.00  0.00    +0.000 A 
BRANCH   6   8
ATOM      8  N   UNL     1      44.555   3.281   9.398  0.00  0.00    +0.000 N 
ATOM      9  C   UNL     1      44.649   1.863   9.055  0.00  0.00    +0.000 C 
ATOM     10  C   UNL     1      46.021   1.551   8.467  0.00  0.00    +0.000 C 
ATOM     11  C   UNL     1      46.340   2.484   7.300  0.00  0.00    +0.000 C 
ATOM     12  C   UNL     1      46.204   3.947   7.719  0.00  0.00    +0.000 C 
ATOM     13  C   UNL     1      44.824   4.232   8.317  0.00  0.00    +0.000 C 
ENDBRANCH   6   8
ENDBRANCH   1   2
BRANCH   1  14
ATOM     14  O   UNL     1      46.761   6.418  13.702  0.00  0.00    +0.000 OA
BRANCH  14  20
ATOM     15  C   UNL     1      47.142   8.478  12.592  0.00  0.00    +0.000 A 
ATOM     16  N   UNL     1      47.917   9.379  11.921  0.00  0.00    +0.000 NA
ATOM     17  C   UNL     1      49.173   8.999  11.604  0.00  0.00    +0.000 A 
ATOM     18  C   UNL     1      49.697   7.757  11.910  0.00  0.00    +0.000 A 
ATOM     19  C   UNL     1      48.904   6.858  12.619  0.00  0.00    +0.000 A 
ATOM     20  C   UNL     1      47.615   7.226  13.005  0.00  0.00    +0.000 A 
BRANCH  15  21
ATOM     21  C   UNL     1      45.719   8.915  12.873  0.00  0.00    +0.000 C 
BRANCH  21  22
ATOM     22  N   UNL     1      44.719   8.083  12.195  0.00  0.00    +0.000 NA
ATOM     23  H   UNL     1      44.899   7.109  12.431  0.00  0.00    +0.000 HD
ATOM     24  H   UNL     1      44.886   8.168  11.192  0.00  0.00    +0.000 HD
ENDBRANCH  21  22
ENDBRANCH  15  21
ENDBRANCH  14  20
ENDBRANCH   1  14
BRANCH   1  25
ATOM     25  C   UNL     1      46.936   4.300  14.831  0.00  0.00    +0.000 C 
BRANCH  25  26
ATOM     26  O   UNL     1      47.634   3.057  14.765  0.00  0.00    +0.000 OA
ATOM     27  H   UNL     1      48.017   2.999  13.865  0.00  0.00    +0.000 HD
ENDBRANCH  25  26
ENDBRANCH   1  25
TORSDOF 8
ENDMDL
MODEL 2
REMARK VINA RESULT:    -6.676      1.898      3.231
REMARK INTER + INTRA:         -10.894
REMARK INTER:                  -9.727
REMARK INTRA:                  -1.167
REMARK UNBOUND:                -1.486
REMARK  Name = 
REMARK  8 active torsions:
REMARK  status: ('A' for Active; 'I' for Inactive)
REMARK    1  A    between atoms: N_1  and  C_2
REMARK    2  A    between atoms: C_2  and  C_3
REMARK    3  A    between atoms: C_8  and  O_9
REMARK    4  A    between atoms: O_9  and  C_10
REMARK    5  A    between atoms: C_10  and  C_11
REMARK    6  A    between atoms: C_10  and  C_13
REMARK    7  A    between atoms: C_11  and  O_12
REMARK    8  A    between atoms: C_17  and  N_18
REMARK                            x       y       z     vdW  Elec       q    Type
REMARK                         _______ _______ _______ _____ _____    ______ ____
ROOT
ATOM      1  C   UNL     1      45.521   6.081  12.660  0.00  0.00    +0.000 C 
ENDROOT
BRANCH   1   2
ATOM      2  C   UNL     1      44.924   4.785  12.131  0.00  0.00    +0.000 A 
ATOM      3  C   UNL     1      44.008   4.070  12.912  0.00  0.00    +0.000 A 
ATOM      4  C   UNL     1      43.350   2.970  12.375  0.00  0.00    +0.000 A 
ATOM      5  C   UNL     1      43.603   2.575  11.059  0.00  0.00    +0.000 A 
ATOM      6  C   UNL     1      44.530   3.247  10.252  0.00  0.00    +0.000 A 
ATOM      7  C   UNL     1      45.186   4.349  10.820  0.00  0.00    +0.000 A 
BRANCH   6   8
ATOM      8  N   UNL     1      44.770   2.888   8.940  0.00  0.00    +0.000 N 
ATOM      9  C   UNL     1      45.063   1.508   8.555  0.00  0.00    +0.000 C 
ATOM     10  C   UNL     1      46.501   1.390   8.065  0.00  0.00    +0.000 C 
ATOM     11  C   UNL     1      46.787   2.405   6.959  0.00  0.00    +0.000 C 
ATOM     12  C   UNL     1      46.442   3.821   7.418  0.00  0.00    +0.000 C 
ATOM     13  C   UNL     1      44.998   3.911   7.917  0.00  0.00    +0.000 C 
ENDBRANCH   6   8
ENDBRANCH   1   2
BRANCH   1  14
ATOM     14  O   UNL     1      46.942   5.953  12.836  0.00  0.00    +0.000 OA
BRANCH  14  20
ATOM     15  C   UNL     1      48.488   6.383  14.581  0.00  0.00    +0.000 A 
ATOM     16  N   UNL     1      49.009   6.184  15.827  0.00  0.00    +0.000 NA
ATOM     17  C   UNL     1      48.477   5.190  16.569  0.00  0.00    +0.000 A 
ATOM     18  C   UNL     1      47.455   4.369  16.129  0.00  0.00    +0.000 A 
ATOM     19  C   UNL     1      46.915   4.600  14.866  0.00  0.00    +0.000 A 
ATOM     20  C   UNL     1      47.405   5.645  14.083  0.00  0.00    +0.000 A 
BRANCH  15  21
ATOM     21  C   UNL     1      49.152   7.463  13.753  0.00  0.00    +0.000 C 
BRANCH  21  22
ATOM     22  N   UNL     1      49.846   6.937  12.573  0.00  0.00    +0.000 NA
ATOM     23  H   UNL     1      50.474   7.658  12.224  0.00  0.00    +0.000 HD
ATOM     24  H   UNL     1      49.143   6.797  11.846  0.00  0.00    +0.000 HD
ENDBRANCH  21  22
ENDBRANCH  15  21
ENDBRANCH  14  20
ENDBRANCH   1  14
BRANCH   1  25
ATOM     25  C   UNL     1      45.280   7.206  11.626  0.00  0.00    +0.000 C 
BRANCH  25  26
ATOM     26  O   UNL     1      43.895   7.454  11.387  0.00  0.00    +0.000 OA
ATOM     27  H   UNL     1      43.446   6.584  11.416  0.00  0.00    +0.000 HD
ENDBRANCH  25  26
ENDBRANCH   1  25
TORSDOF 8
ENDMDL
MODEL 3
REMARK VINA RESULT:    -6.574      2.358      6.706
REMARK INTER + INTRA:         -10.750
REMARK INTER:                  -9.409
REMARK INTRA:                  -1.341
REMARK UNBOUND:                -1.486
REMARK  Name = 
REMARK  8 active torsions:
REMARK  status: ('A' for Active; 'I' for Inactive)
REMARK    1  A    between atoms: N_1  and  C_2
REMARK    2  A    between atoms: C_2  and  C_3
REMARK    3  A    between atoms: C_8  and  O_9
REMARK    4  A    between atoms: O_9  and  C_10
REMARK    5  A    between atoms: C_10  and  C_11
REMARK    6  A    between atoms: C_10  and  C_13
REMARK    7  A    between atoms: C_11  and  O_12
REMARK    8  A    between atoms: C_17  and  N_18
REMARK                            x       y       z     vdW  Elec       q    Type
REMARK                         _______ _______ _______ _____ _____    ______ ____
ROOT
ATOM      1  C   UNL     1      45.701   6.661  11.123  0.00  0.00    +0.000 C 
ENDROOT
BRANCH   1   2
ATOM      2  C   UNL     1      46.907   6.645  12.051  0.00  0.00    +0.000 A 
ATOM      3  C   UNL     1      48.052   7.378  11.718  0.00  0.00    +0.000 A 
ATOM      4  C   UNL     1      49.096   7.486  12.630  0.00  0.00    +0.000 A 
ATOM      5  C   UNL     1      49.003   6.863  13.877  0.00  0.00    +0.000 A 
ATOM      6  C   UNL     1      47.887   6.099  14.241  0.00  0.00    +0.000 A 
ATOM      7  C   UNL     1      46.851   6.000  13.300  0.00  0.00    +0.000 A 
BRANCH   6   8
ATOM      8  N   UNL     1      47.768   5.503  15.481  0.00  0.00    +0.000 N 
ATOM      9  C   UNL     1      48.563   5.936  16.629  0.00  0.00    +0.000 C 
ATOM     10  C   UNL     1      49.550   4.846  17.030  0.00  0.00    +0.000 C 
ATOM     11  C   UNL     1      48.834   3.514  17.252  0.00  0.00    +0.000 C 
ATOM     12  C   UNL     1      48.007   3.130  16.026  0.00  0.00    +0.000 C 
ATOM     13  C   UNL     1      47.034   4.245  15.636  0.00  0.00    +0.000 C 
ENDBRANCH   6   8
ENDBRANCH   1   2
BRANCH   1  14
ATOM     14  O   UNL     1      44.991   5.413  11.190  0.00  0.00    +0.000 OA
BRANCH  14  20
ATOM     15  C   UNL     1      44.389   3.352  10.183  0.00  0.00    +0.000 A 
ATOM     16  N   UNL     1      44.361   2.461   9.150  0.00  0.00    +0.000 NA
ATOM     17  C   UNL     1      45.063   2.775   8.041  0.00  0.00    +0.000 A 
ATOM     18  C   UNL     1      45.808   3.932   7.910  0.00  0.00    +0.000 A 
ATOM     19  C   UNL     1      45.806   4.846   8.961  0.00  0.00    +0.000 A 
ATOM     20  C   UNL     1      45.059   4.581  10.108  0.00  0.00    +0.000 A 
BRANCH  15  21
ATOM     21  C   UNL     1      43.643   2.937  11.433  0.00  0.00    +0.000 C 
BRANCH  21  22
ATOM     22  N   UNL     1      44.523   2.753  12.592  0.00  0.00    +0.000 NA
ATOM     23  H   UNL     1      44.024   2.203  13.289  0.00  0.00    +0.000 HD
ATOM     24  H   UNL     1      44.669   3.673  13.010  0.00  0.00    +0.000 HD
ENDBRANCH  21  22
ENDBRANCH  15  21
ENDBRANCH  14  20
ENDBRANCH   1  14
BRANCH   1  25
ATOM     25  C   UNL     1      44.729   7.773  11.580  0.00  0.00    +0.000 C 
BRANCH  25  26
ATOM     26  O   UNL     1      43.395   7.573  11.111  0.00  0.00    +0.000 OA
ATOM     27  H   UNL     1      43.037   6.809  11.607  0.00  0.00    +0.000 HD
ENDBRANCH  25  26
ENDBRANCH   1  25
TORSDOF 8
ENDMDL
MODEL 4
REMARK VINA RESULT:    -6.335      2.386      3.277
REMARK INTER + INTRA:         -10.413
REMARK INTER:                  -9.183
REMARK INTRA:                  -1.230
REMARK UNBOUND:                -1.486
REMARK  Name = 
REMARK  8 active torsions:
REMARK  status: ('A' for Active; 'I' for Inactive)
REMARK    1  A    between atoms: N_1  and  C_2
REMARK    2  A    between atoms: C_2  and  C_3
REMARK    3  A    between atoms: C_8  and  O_9
REMARK    4  A    between atoms: O_9  and  C_10
REMARK    5  A    between atoms: C_10  and  C_11
REMARK    6  A    between atoms: C_10  and  C_13
REMARK    7  A    between atoms: C_11  and  O_12
REMARK    8  A    between atoms: C_17  and  N_18
REMARK                            x       y       z     vdW  Elec       q    Type
REMARK                         _______ _______ _______ _____ _____    ______ ____
ROOT
ATOM      1  C   UNL     1      46.485   6.179  13.010  0.00  0.00    +0.000 C 
ENDROOT
BRANCH   1   2
ATOM      2  C   UNL     1      45.508   5.113  12.534  0.00  0.00    +0.000 A 
ATOM      3  C   UNL     1      44.458   4.709  13.367  0.00  0.00    +0.000 A 
ATOM      4  C   UNL     1      43.480   3.848  12.882  0.00  0.00    +0.000 A 
ATOM      5  C   UNL     1      43.545   3.386  11.565  0.00  0.00    +0.000 A 
ATOM      6  C   UNL     1      44.592   3.746  10.706  0.00  0.00    +0.000 A 
ATOM      7  C   UNL     1      45.569   4.609  11.223  0.00  0.00    +0.000 A 
BRANCH   6   8
ATOM      8  N   UNL     1      44.654   3.322   9.393  0.00  0.00    +0.000 N 
ATOM      9  C   UNL     1      44.697   1.904   9.038  0.00  0.00    +0.000 C 
ATOM     10  C   UNL     1      46.051   1.552   8.431  0.00  0.00    +0.000 C 
ATOM     11  C   UNL     1      46.387   2.483   7.267  0.00  0.00    +0.000 C 
ATOM     12  C   UNL     1      46.304   3.946   7.699  0.00  0.00    +0.000 C 
ATOM     13  C   UNL     1      44.942   4.271   8.316  0.00  0.00    +0.000 C 
ENDBRANCH   6   8
ENDBRANCH   1   2
BRANCH   1  14
ATOM     14  O   UNL     1      47.682   5.576  13.530  0.00  0.00    +0.000 OA
BRANCH  14  20
ATOM     15  C   UNL     1      47.991   5.341  15.869  0.00  0.00    +0.000 A 
ATOM     16  N   UNL     1      48.489   5.728  17.080  0.00  0.00    +0.000 NA
ATOM     17  C   UNL     1      49.153   6.902  17.130  0.00  0.00    +0.000 A 
ATOM     18  C   UNL     1      49.339   7.723  16.033  0.00  0.00    +0.000 A 
ATOM     19  C   UNL     1      48.850   7.303  14.799  0.00  0.00    +0.000 A 
ATOM     20  C   UNL     1      48.195   6.076  14.693  0.00  0.00    +0.000 A 
BRANCH  15  21
ATOM     21  C   UNL     1      47.197   4.052  15.864  0.00  0.00    +0.000 C 
BRANCH  21  22
ATOM     22  N   UNL     1      47.658   3.097  14.850  0.00  0.00    +0.000 NA
ATOM     23  H   UNL     1      47.607   2.161  15.246  0.00  0.00    +0.000 HD
ATOM     24  H   UNL     1      48.648   3.283  14.689  0.00  0.00    +0.000 HD
ENDBRANCH  21  22
ENDBRANCH  15  21
ENDBRANCH  14  20
ENDBRANCH   1  14
BRANCH   1  25
ATOM     25  C   UNL     1      46.894   7.061  11.808  0.00  0.00    +0.000 C 
BRANCH  25  26
ATOM     26  O   UNL     1      46.661   8.451  12.033  0.00  0.00    +0.000 OA
ATOM     27  H   UNL     1      45.938   8.715  11.428  0.00  0.00    +0.000 HD
ENDBRANCH  25  26
ENDBRANCH   1  25
TORSDOF 8
ENDMDL
MODEL 5
REMARK VINA RESULT:    -5.997      4.062      6.064
REMARK INTER + INTRA:          -9.937
REMARK INTER:                  -8.709
REMARK INTRA:                  -1.228
REMARK UNBOUND:                -1.486
REMARK  Name = 
REMARK  8 active torsions:
REMARK  status: ('A' for Active; 'I' for Inactive)
REMARK    1  A    between atoms: N_1  and  C_2
REMARK    2  A    between atoms: C_2  and  C_3
REMARK    3  A    between atoms: C_8  and  O_9
REMARK    4  A    between atoms: O_9  and  C_10
REMARK    5  A    between atoms: C_10  and  C_11
REMARK    6  A    between atoms: C_10  and  C_13
REMARK    7  A    between atoms: C_11  and  O_12
REMARK    8  A    between atoms: C_17  and  N_18
REMARK                            x       y       z     vdW  Elec       q    Type
REMARK                         _______ _______ _______ _____ _____    ______ ____
ROOT
ATOM      1  C   UNL     1      48.207   4.019  16.483  0.00  0.00    +0.000 C 
ENDROOT
BRANCH   1   2
ATOM      2  C   UNL     1      47.772   4.935  15.348  0.00  0.00    +0.000 A 
ATOM      3  C   UNL     1      48.362   6.196  15.204  0.00  0.00    +0.000 A 
ATOM      4  C   UNL     1      48.077   6.972  14.087  0.00  0.00    +0.000 A 
ATOM      5  C   UNL     1      47.200   6.496  13.109  0.00  0.00    +0.000 A 
ATOM      6  C   UNL     1      46.568   5.251  13.226  0.00  0.00    +0.000 A 
ATOM      7  C   UNL     1      46.868   4.491  14.366  0.00  0.00    +0.000 A 
BRANCH   6   8
ATOM      8  N   UNL     1      45.723   4.754  12.253  0.00  0.00    +0.000 N 
ATOM      9  C   UNL     1      45.190   5.597  11.185  0.00  0.00    +0.000 C 
ATOM     10  C   UNL     1      43.684   5.769  11.347  0.00  0.00    +0.000 C 
ATOM     11  C   UNL     1      42.988   4.412  11.458  0.00  0.00    +0.000 C 
ATOM     12  C   UNL     1      43.604   3.575  12.577  0.00  0.00    +0.000 C 
ATOM     13  C   UNL     1      45.117   3.428  12.399  0.00  0.00    +0.000 C 
ENDBRANCH   6   8
ENDBRANCH   1   2
BRANCH   1  14
ATOM     14  O   UNL     1      49.434   4.485  17.071  0.00  0.00    +0.000 OA
BRANCH  14  20
ATOM     15  C   UNL     1      51.664   4.036  17.737  0.00  0.00    +0.000 A 
ATOM     16  N   UNL     1      52.702   3.206  18.047  0.00  0.00    +0.000 NA
ATOM     17  C   UNL     1      52.506   1.881  17.880  0.00  0.00    +0.000 A 
ATOM     18  C   UNL     1      51.327   1.335  17.406  0.00  0.00    +0.000 A 
ATOM     19  C   UNL     1      50.267   2.193  17.120  0.00  0.00    +0.000 A 
ATOM     20  C   UNL     1      50.412   3.565  17.319  0.00  0.00    +0.000 A 
BRANCH  15  21
ATOM     21  C   UNL     1      51.942   5.518  17.875  0.00  0.00    +0.000 C 
BRANCH  21  22
ATOM     22  N   UNL     1      51.798   6.249  16.611  0.00  0.00    +0.000 NA
ATOM     23  H   UNL     1      50.825   6.534  16.515  0.00  0.00    +0.000 HD
ATOM     24  H   UNL     1      51.976   5.586  15.857  0.00  0.00    +0.000 HD
ENDBRANCH  21  22
ENDBRANCH  15  21
ENDBRANCH  14  20
ENDBRANCH   1  14
BRANCH   1  25
ATOM     25  C   UNL     1      47.126   4.038  17.588  0.00  0.00    +0.000 C 
BRANCH  25  26
ATOM     26  O   UNL     1      46.455   2.787  17.731  0.00  0.00    +0.000 OA
ATOM     27  H   UNL     1      47.146   2.119  17.920  0.00  0.00    +0.000 HD
ENDBRANCH  25  26
ENDBRANCH   1  25
TORSDOF 8
ENDMDL
MODEL 6
REMARK VINA RESULT:    -5.935      2.344      6.899
REMARK INTER + INTRA:          -9.850
REMARK INTER:                  -8.775
REMARK INTRA:                  -1.075
REMARK UNBOUND:                -1.486
REMARK  Name = 
REMARK  8 active torsions:
REMARK  status: ('A' for Active; 'I' for Inactive)
REMARK    1  A    between atoms: N_1  and  C_2
REMARK    2  A    between atoms: C_2  and  C_3
REMARK    3  A    between atoms: C_8  and  O_9
REMARK    4  A    between atoms: O_9  and  C_10
REMARK    5  A    between atoms: C_10  and  C_11
REMARK    6  A    between atoms: C_10  and  C_13
REMARK    7  A    between atoms: C_11  and  O_12
REMARK    8  A    between atoms: C_17  and  N_18
REMARK                            x       y       z     vdW  Elec       q    Type
REMARK                         _______ _______ _______ _____ _____    ______ ____
ROOT
ATOM      1  C   UNL     1      45.470   6.552  11.243  0.00  0.00    +0.000 C 
ENDROOT
BRANCH   1   2
ATOM      2  C   UNL     1      46.295   6.293  12.495  0.00  0.00    +0.000 A 
ATOM      3  C   UNL     1      45.969   5.222  13.335  0.00  0.00    +0.000 A 
ATOM      4  C   UNL     1      46.805   4.892  14.395  0.00  0.00    +0.000 A 
ATOM      5  C   UNL     1      47.970   5.629  14.623  0.00  0.00    +0.000 A 
ATOM      6  C   UNL     1      48.321   6.724  13.823  0.00  0.00    +0.000 A 
ATOM      7  C   UNL     1      47.456   7.039  12.765  0.00  0.00    +0.000 A 
BRANCH   6   8
ATOM      8  N   UNL     1      49.484   7.443  14.017  0.00  0.00    +0.000 N 
ATOM      9  C   UNL     1      50.316   7.264  15.206  0.00  0.00    +0.000 C 
ATOM     10  C   UNL     1      50.281   8.519  16.071  0.00  0.00    +0.000 C 
ATOM     11  C   UNL     1      50.645   9.757  15.252  0.00  0.00    +0.000 C 
ATOM     12  C   UNL     1      49.753   9.875  14.018  0.00  0.00    +0.000 C 
ATOM     13  C   UNL     1      49.795   8.599  13.173  0.00  0.00    +0.000 C 
ENDBRANCH   6   8
ENDBRANCH   1   2
BRANCH   1  14
ATOM     14  O   UNL     1      44.513   5.499  11.037  0.00  0.00    +0.000 OA
BRANCH  14  20
ATOM     15  C   UNL     1      44.207   3.307  10.187  0.00  0.00    +0.000 A 
ATOM     16  N   UNL     1      44.372   2.326   9.253  0.00  0.00    +0.000 NA
ATOM     17  C   UNL     1      45.165   2.603   8.197  0.00  0.00    +0.000 A 
ATOM     18  C   UNL     1      45.818   3.810   8.026  0.00  0.00    +0.000 A 
ATOM     19  C   UNL     1      45.619   4.812   8.974  0.00  0.00    +0.000 A 
ATOM     20  C   UNL     1      44.773   4.583  10.058  0.00  0.00    +0.000 A 
BRANCH  15  21
ATOM     21  C   UNL     1      43.364   2.938  11.390  0.00  0.00    +0.000 C 
BRANCH  21  22
ATOM     22  N   UNL     1      44.157   2.427  12.513  0.00  0.00    +0.000 NA
ATOM     23  H   UNL     1      44.338   3.197  13.154  0.00  0.00    +0.000 HD
ATOM     24  H   UNL     1      45.066   2.150  12.139  0.00  0.00    +0.000 HD
ENDBRANCH  21  22
ENDBRANCH  15  21
ENDBRANCH  14  20
ENDBRANCH   1  14
BRANCH   1  25
ATOM     25  C   UNL     1      44.680   7.869  11.423  0.00  0.00    +0.000 C 
BRANCH  25  26
ATOM     26  O   UNL     1      43.308   7.751  11.049  0.00  0.00    +0.000 OA
ATOM     27  H   UNL     1      43.236   8.097  10.136  0.00  0.00    +0.000 HD
ENDBRANCH  25  26
ENDBRANCH   1  25
TORSDOF 8
ENDMDL
MODEL 7
REMARK VINA RESULT:    -5.933      2.978      4.814
REMARK INTER + INTRA:          -9.847
REMARK INTER:                  -8.336
REMARK INTRA:                  -1.512
REMARK UNBOUND:                -1.486
REMARK  Name = 
REMARK  8 active torsions:
REMARK  status: ('A' for Active; 'I' for Inactive)
REMARK    1  A    between atoms: N_1  and  C_2
REMARK    2  A    between atoms: C_2  and  C_3
REMARK    3  A    between atoms: C_8  and  O_9
REMARK    4  A    between atoms: O_9  and  C_10
REMARK    5  A    between atoms: C_10  and  C_11
REMARK    6  A    between atoms: C_10  and  C_13
REMARK    7  A    between atoms: C_11  and  O_12
REMARK    8  A    between atoms: C_17  and  N_18
REMARK                            x       y       z     vdW  Elec       q    Type
REMARK                         _______ _______ _______ _____ _____    ______ ____
ROOT
ATOM      1  C   UNL     1      48.419   7.374  14.301  0.00  0.00    +0.000 C 
ENDROOT
BRANCH   1   2
ATOM      2  C   UNL     1      47.134   7.569  13.508  0.00  0.00    +0.000 A 
ATOM      3  C   UNL     1      46.865   8.806  12.911  0.00  0.00    +0.000 A 
ATOM      4  C   UNL     1      45.770   8.944  12.066  0.00  0.00    +0.000 A 
ATOM      5  C   UNL     1      44.938   7.850  11.813  0.00  0.00    +0.000 A 
ATOM      6  C   UNL     1      45.157   6.602  12.410  0.00  0.00    +0.000 A 
ATOM      7  C   UNL     1      46.264   6.492  13.265  0.00  0.00    +0.000 A 
BRANCH   6   8
ATOM      8  N   UNL     1      44.361   5.503  12.148  0.00  0.00    +0.000 N 
ATOM      9  C   UNL     1      44.520   4.242  12.869  0.00  0.00    +0.000 C 
ATOM     10  C   UNL     1      45.034   3.156  11.929  0.00  0.00    +0.000 C 
ATOM     11  C   UNL     1      44.147   3.043  10.689  0.00  0.00    +0.000 C 
ATOM     12  C   UNL     1      44.007   4.397   9.995  0.00  0.00    +0.000 C 
ATOM     13  C   UNL     1      43.503   5.472  10.961  0.00  0.00    +0.000 C 
ENDBRANCH   6   8
ENDBRANCH   1   2
BRANCH   1  14
ATOM     14  O   UNL     1      48.521   6.023  14.782  0.00  0.00    +0.000 OA
BRANCH  14  20
ATOM     15  C   UNL     1      47.903   4.786  16.708  0.00  0.00    +0.000 A 
ATOM     16  N   UNL     1      47.967   4.483  18.037  0.00  0.00    +0.000 NA
ATOM     17  C   UNL     1      48.730   5.279  18.817  0.00  0.00    +0.000 A 
ATOM     18  C   UNL     1      49.427   6.374  18.343  0.00  0.00    +0.000 A 
ATOM     19  C   UNL     1      49.374   6.655  16.979  0.00  0.00    +0.000 A 
ATOM     20  C   UNL     1      48.633   5.834  16.130  0.00  0.00    +0.000 A 
BRANCH  15  21
ATOM     21  C   UNL     1      46.988   3.912  15.876  0.00  0.00    +0.000 C 
BRANCH  21  22
ATOM     22  N   UNL     1      47.700   3.160  14.837  0.00  0.00    +0.000 NA
ATOM     23  H   UNL     1      47.974   2.260  15.225  0.00  0.00    +0.000 HD
ATOM     24  H   UNL     1      48.567   3.661  14.643  0.00  0.00    +0.000 HD
ENDBRANCH  21  22
ENDBRANCH  15  21
ENDBRANCH  14  20
ENDBRANCH   1  14
BRANCH   1  25
ATOM     25  C   UNL     1      49.628   7.628  13.370  0.00  0.00    +0.000 C 
BRANCH  25  26
ATOM     26  O   UNL     1      49.788   6.615  12.378  0.00  0.00    +0.000 OA
ATOM     27  H   UNL     1      48.924   6.529  11.924  0.00  0.00    +0.000 HD
ENDBRANCH  25  26
ENDBRANCH   1  25
TORSDOF 8
ENDMDL
MODEL 8
REMARK VINA RESULT:    -5.881      2.343      6.302
REMARK INTER + INTRA:          -9.773
REMARK INTER:                  -8.808
REMARK INTRA:                  -0.965
REMARK UNBOUND:                -1.486
REMARK  Name = 
REMARK  8 active torsions:
REMARK  status: ('A' for Active; 'I' for Inactive)
REMARK    1  A    between atoms: N_1  and  C_2
REMARK    2  A    between atoms: C_2  and  C_3
REMARK    3  A    between atoms: C_8  and  O_9
REMARK    4  A    between atoms: O_9  and  C_10
REMARK    5  A    between atoms: C_10  and  C_11
REMARK    6  A    between atoms: C_10  and  C_13
REMARK    7  A    between atoms: C_11  and  O_12
REMARK    8  A    between atoms: C_17  and  N_18
REMARK                            x       y       z     vdW  Elec       q    Type
REMARK                         _______ _______ _______ _____ _____    ______ ____
ROOT
ATOM      1  C   UNL     1      45.351   5.817  13.045  0.00  0.00    +0.000 C 
ENDROOT
BRANCH   1   2
ATOM      2  C   UNL     1      46.007   7.168  12.795  0.00  0.00    +0.000 A 
ATOM      3  C   UNL     1      47.403   7.275  12.798  0.00  0.00    +0.000 A 
ATOM      4  C   UNL     1      48.007   8.470  12.425  0.00  0.00    +0.000 A 
ATOM      5  C   UNL     1      47.223   9.564  12.048  0.00  0.00    +0.000 A 
ATOM      6  C   UNL     1      45.823   9.507  12.055  0.00  0.00    +0.000 A 
ATOM      7  C   UNL     1      45.239   8.292  12.443  0.00  0.00    +0.000 A 
BRANCH   6   8
ATOM      8  N   UNL     1      45.035  10.569  11.657  0.00  0.00    +0.000 N 
ATOM      9  C   UNL     1      43.641  10.390  11.255  0.00  0.00    +0.000 C 
ATOM     10  C   UNL     1      43.478  10.682   9.767  0.00  0.00    +0.000 C 
ATOM     11  C   UNL     1      44.043  12.057   9.415  0.00  0.00    +0.000 C 
ATOM     12  C   UNL     1      45.493  12.185   9.879  0.00  0.00    +0.000 C 
ATOM     13  C   UNL     1      45.633  11.875  11.371  0.00  0.00    +0.000 C 
ENDBRANCH   6   8
ENDBRANCH   1   2
BRANCH   1  14
ATOM     14  O   UNL     1      44.310   5.571  12.084  0.00  0.00    +0.000 OA
BRANCH  14  20
ATOM     15  C   UNL     1      44.106   3.759  10.569  0.00  0.00    +0.000 A 
ATOM     16  N   UNL     1      44.360   3.118   9.391  0.00  0.00    +0.000 NA
ATOM     17  C   UNL     1      45.234   3.701   8.545  0.00  0.00    +0.000 A 
ATOM     18  C   UNL     1      45.883   4.892   8.815  0.00  0.00    +0.000 A 
ATOM     19  C   UNL     1      45.593   5.550  10.008  0.00  0.00    +0.000 A 
ATOM     20  C   UNL     1      44.663   5.004  10.892  0.00  0.00    +0.000 A 
BRANCH  15  21
ATOM     21  C   UNL     1      43.170   3.044  11.521  0.00  0.00    +0.000 C 
BRANCH  21  22
ATOM     22  N   UNL     1      43.871   2.388  12.630  0.00  0.00    +0.000 NA
ATOM     23  H   UNL     1      43.192   2.178  13.359  0.00  0.00    +0.000 HD
ATOM     24  H   UNL     1      44.512   3.075  13.030  0.00  0.00    +0.000 HD
ENDBRANCH  21  22
ENDBRANCH  15  21
ENDBRANCH  14  20
ENDBRANCH   1  14
BRANCH   1  25
ATOM     25  C   UNL     1      46.411   4.704  12.877  0.00  0.00    +0.000 C 
BRANCH  25  26
ATOM     26  O   UNL     1      46.251   3.638  13.813  0.00  0.00    +0.000 OA
ATOM     27  H   UNL     1      47.085   3.124  13.795  0.00  0.00    +0.000 HD
ENDBRANCH  25  26
ENDBRANCH   1  25
TORSDOF 8
ENDMDL
MODEL 9
REMARK VINA RESULT:    -5.677      2.177      6.887
REMARK INTER + INTRA:          -9.486
REMARK INTER:                  -8.530
REMARK INTRA:                  -0.956
REMARK UNBOUND:                -1.486
REMARK  Name = 
REMARK  8 active torsions:
REMARK  status: ('A' for Active; 'I' for Inactive)
REMARK    1  A    between atoms: N_1  and  C_2
REMARK    2  A    between atoms: C_2  and  C_3
REMARK    3  A    between atoms: C_8  and  O_9
REMARK    4  A    between atoms: O_9  and  C_10
REMARK    5  A    between atoms: C_10  and  C_11
REMARK    6  A    between atoms: C_10  and  C_13
REMARK    7  A    between atoms: C_11  and  O_12
REMARK    8  A    between atoms: C_17  and  N_18
REMARK                            x       y       z     vdW  Elec       q    Type
REMARK                         _______ _______ _______ _____ _____    ______ ____
ROOT
ATOM      1  C   UNL     1      45.817   6.836  11.270  0.00  0.00    +0.000 C 
ENDROOT
BRANCH   1   2
ATOM      2  C   UNL     1      46.937   6.976  12.292  0.00  0.00    +0.000 A 
ATOM      3  C   UNL     1      46.928   6.186  13.447  0.00  0.00    +0.000 A 
ATOM      4  C   UNL     1      48.020   6.203  14.307  0.00  0.00    +0.000 A 
ATOM      5  C   UNL     1      49.125   7.009  14.020  0.00  0.00    +0.000 A 
ATOM      6  C   UNL     1      49.164   7.834  12.889  0.00  0.00    +0.000 A 
ATOM      7  C   UNL     1      48.046   7.803  12.042  0.00  0.00    +0.000 A 
BRANCH   6   8
ATOM      8  N   UNL     1      50.261   8.614  12.576  0.00  0.00    +0.000 N 
ATOM      9  C   UNL     1      50.772   8.717  11.210  0.00  0.00    +0.000 C 
ATOM     10  C   UNL     1      52.147   8.065  11.109  0.00  0.00    +0.000 C 
ATOM     11  C   UNL     1      53.099   8.631  12.163  0.00  0.00    +0.000 C 
ATOM     12  C   UNL     1      52.497   8.510  13.562  0.00  0.00    +0.000 C 
ATOM     13  C   UNL     1      51.113   9.160  13.634  0.00  0.00    +0.000 C 
ENDBRANCH   6   8
ENDBRANCH   1   2
BRANCH   1  14
ATOM     14  O   UNL     1      45.136   5.581  11.430  0.00  0.00    +0.000 OA
BRANCH  14  20
ATOM     15  C   UNL     1      44.459   3.498  10.523  0.00  0.00    +0.000 A 
ATOM     16  N   UNL     1      44.334   2.589   9.512  0.00  0.00    +0.000 NA
ATOM     17  C   UNL     1      44.912   2.893   8.331  0.00  0.00    +0.000 A 
ATOM     18  C   UNL     1      45.624   4.056   8.105  0.00  0.00    +0.000 A 
ATOM     19  C   UNL     1      45.721   4.987   9.137  0.00  0.00    +0.000 A 
ATOM     20  C   UNL     1      45.101   4.733  10.360  0.00  0.00    +0.000 A 
BRANCH  15  21
ATOM     21  C   UNL     1      43.853   3.094  11.851  0.00  0.00    +0.000 C 
BRANCH  21  22
ATOM     22  N   UNL     1      42.918   1.970  11.738  0.00  0.00    +0.000 NA
ATOM     23  H   UNL     1      42.211   2.211  11.045  0.00  0.00    +0.000 HD
ATOM     24  H   UNL     1      42.427   1.895  12.629  0.00  0.00    +0.000 HD
ENDBRANCH  21  22
ENDBRANCH  15  21
ENDBRANCH  14  20
ENDBRANCH   1  14
BRANCH   1  25
ATOM     25  C   UNL     1      44.781   7.960  11.501  0.00  0.00    +0.000 C 
BRANCH  25  26
ATOM     26  O   UNL     1      43.467   7.601  11.075  0.00  0.00    +0.000 OA
ATOM     27  H   UNL     1      42.843   8.092  11.649  0.00  0.00    +0.000 HD
ENDBRANCH  25  26
ENDBRANCH   1  25
TORSDOF 8
ENDMDL
