MODEL 1
REMARK VINA RESULT:    -8.064      0.000      0.000
REMARK INTER + INTRA:         -12.402
REMARK INTER:                 -11.600
REMARK INTRA:                  -0.802
REMARK UNBOUND:                -0.802
REMARK  Name = 
REMARK  8 active torsions:
REMARK  status: ('A' for Active; 'I' for Inactive)
REMARK    1  A    between atoms: N_1  and  C_2
REMARK    2  A    between atoms: C_2  and  C_3
REMARK    3  A    between atoms: C_2  and  C_19
REMARK    4  A    between atoms: C_3  and  C_4
REMARK    5  A    between atoms: C_7  and  C_8
REMARK    6  A    between atoms: C_8  and  N_9
REMARK    7  A    between atoms: N_9  and  C_10
REMARK    8  A    between atoms: C_10  and  C_11
REMARK                            x       y       z     vdW  Elec       q    Type
REMARK                         _______ _______ _______ _____ _____    ______ ____
ROOT
ATOM      1  C   UNL     1      47.981   5.530  15.495  0.00  0.00    +0.000 C 
ENDROOT
BRANCH   1   2
ATOM      2  C   UNL     1      47.165   5.138  14.288  0.00  0.00    +0.000 A 
ATOM      3  C   UNL     1      46.819   3.798  14.076  0.00  0.00    +0.000 A 
ATOM      4  C   UNL     1      46.051   3.433  12.970  0.00  0.00    +0.000 A 
ATOM      5  C   UNL     1      45.599   4.405  12.065  0.00  0.00    +0.000 A 
ATOM      6  C   UNL     1      45.952   5.743  12.277  0.00  0.00    +0.000 A 
ATOM      7  C   UNL     1      46.732   6.108  13.375  0.00  0.00    +0.000 A 
BRANCH   5   8
ATOM      8  C   UNL     1      44.738   4.011  10.888  0.00  0.00    +0.000 C 
BRANCH   8   9
ATOM      9  N   UNL     1      44.902   2.592  10.586  0.00  0.00    +0.000 NA
ATOM     10  H   UNL     1      44.336   2.047  11.235  0.00  0.00    +0.000 HD
BRANCH   9  11
ATOM     11  C   UNL     1      44.504   2.279   9.218  0.00  0.00    +0.000 C 
BRANCH  11  12
ATOM     12  C   UNL     1      45.699   2.343   8.299  0.00  0.00    +0.000 A 
ATOM     13  C   UNL     1      46.093   3.547   7.711  0.00  0.00    +0.000 A 
ATOM     14  C   UNL     1      47.180   3.542   6.849  0.00  0.00    +0.000 A 
ATOM     15  N   UNL     1      47.891   2.437   6.541  0.00  0.00    +0.000 NA
ATOM     16  C   UNL     1      47.498   1.283   7.123  0.00  0.00    +0.000 A 
ATOM     17  C   UNL     1      46.431   1.188   8.001  0.00  0.00    +0.000 A 
ENDBRANCH  11  12
ENDBRANCH   9  11
ENDBRANCH   8   9
ENDBRANCH   5   8
ENDBRANCH   1   2
BRANCH   1  18
ATOM     18  C   UNL     1      47.994   4.480  16.633  0.00  0.00    +0.000 C 
BRANCH  18  19
ATOM     19  C   UNL     1      49.324   4.460  17.354  0.00  0.00    +0.000 A 
ATOM     20  C   UNL     1      49.811   5.526  18.095  0.00  0.00    +0.000 A 
ATOM     21  S   UNL     1      51.314   5.194  18.838  0.00  0.00    +0.000 S 
ATOM     22  C   UNL     1      51.362   3.622  18.187  0.00  0.00    +0.000 A 
ATOM     23  N   UNL     1      52.392   2.775  18.454  0.00  0.00    +0.000 NA
ATOM     24  C   UNL     1      52.282   1.614  17.898  0.00  0.00    +0.000 A 
ATOM     25  N   UNL     1      51.242   1.222  17.094  0.00  0.00    +0.000 N 
ATOM     26  C   UNL     1      50.204   2.058  16.754  0.00  0.00    +0.000 A 
ATOM     27  O   UNL     1      49.333   1.703  15.966  0.00  0.00    +0.000 OA
ATOM     28  C   UNL     1      50.259   3.361  17.397  0.00  0.00    +0.000 A 
ATOM     29  H   UNL     1      51.228   0.306  16.672  0.00  0.00    +0.000 HD
ENDBRANCH  18  19
BRANCH  18  30
ATOM     30  N   UNL     1      46.955   4.655  17.651  0.00  0.00    +0.000 NA
ATOM     31  H   UNL     1      46.900   3.799  18.203  0.00  0.00    +0.000 HD
ATOM     32  H   UNL     1      46.050   4.708  17.170  0.00  0.00    +0.000 HD
ENDBRANCH  18  30
ENDBRANCH   1  18
TORSDOF 8
ENDMDL
MODEL 2
REMARK VINA RESULT:    -7.713      1.829      2.522
REMARK INTER + INTRA:         -11.897
REMARK INTER:                 -10.847
REMARK INTRA:                  -1.049
REMARK UNBOUND:                -0.802
REMARK  Name = 
REMARK  8 active torsions:
REMARK  status: ('A' for Active; 'I' for Inactive)
REMARK    1  A    between atoms: N_1  and  C_2
REMARK    2  A    between atoms: C_2  and  C_3
REMARK    3  A    between atoms: C_2  and  C_19
REMARK    4  A    between atoms: C_3  and  C_4
REMARK    5  A    between atoms: C_7  and  C_8
REMARK    6  A    between atoms: C_8  and  N_9
REMARK    7  A    between atoms: N_9  and  C_10
REMARK    8  A    between atoms: C_10  and  C_11
REMARK                            x       y       z     vdW  Elec       q    Type
REMARK                         _______ _______ _______ _____ _____    ______ ____
ROOT
ATOM      1  C   UNL     1      48.242   6.255  13.417  0.00  0.00    +0.000 C 
ENDROOT
BRANCH   1   2
ATOM      2  C   UNL     1      47.078   5.823  12.561  0.00  0.00    +0.000 A 
ATOM      3  C   UNL     1      46.281   4.739  12.950  0.00  0.00    +0.000 A 
ATOM      4  C   UNL     1      45.193   4.347  12.169  0.00  0.00    +0.000 A 
ATOM      5  C   UNL     1      44.871   5.043  10.995  0.00  0.00    +0.000 A 
ATOM      6  C   UNL     1      45.675   6.122  10.606  0.00  0.00    +0.000 A 
ATOM      7  C   UNL     1      46.771   6.507  11.378  0.00  0.00    +0.000 A 
BRANCH   5   8
ATOM      8  C   UNL     1      43.671   4.638  10.171  0.00  0.00    +0.000 C 
BRANCH   8   9
ATOM      9  N   UNL     1      44.096   4.060   8.899  0.00  0.00    +0.000 NA
ATOM     10  H   UNL     1      44.871   4.608   8.529  0.00  0.00    +0.000 HD
BRANCH   9  11
ATOM     11  C   UNL     1      44.514   2.671   9.047  0.00  0.00    +0.000 C 
BRANCH  11  12
ATOM     12  C   UNL     1      45.736   2.401   8.204  0.00  0.00    +0.000 A 
ATOM     13  C   UNL     1      46.227   1.104   8.040  0.00  0.00    +0.000 A 
ATOM     14  C   UNL     1      47.372   0.918   7.280  0.00  0.00    +0.000 A 
ATOM     15  N   UNL     1      48.048   1.919   6.678  0.00  0.00    +0.000 NA
ATOM     16  C   UNL     1      47.556   3.166   6.844  0.00  0.00    +0.000 A 
ATOM     17  C   UNL     1      46.417   3.452   7.579  0.00  0.00    +0.000 A 
ENDBRANCH  11  12
ENDBRANCH   9  11
ENDBRANCH   8   9
ENDBRANCH   5   8
ENDBRANCH   1   2
BRANCH   1  18
ATOM     18  C   UNL     1      47.851   6.782  14.819  0.00  0.00    +0.000 C 
BRANCH  18  19
ATOM     19  C   UNL     1      48.812   6.297  15.882  0.00  0.00    +0.000 A 
ATOM     20  C   UNL     1      50.037   6.895  16.140  0.00  0.00    +0.000 A 
ATOM     21  S   UNL     1      50.882   6.161  17.433  0.00  0.00    +0.000 S 
ATOM     22  C   UNL     1      49.643   5.020  17.680  0.00  0.00    +0.000 A 
ATOM     23  N   UNL     1      49.724   4.088  18.668  0.00  0.00    +0.000 NA
ATOM     24  C   UNL     1      48.703   3.300  18.738  0.00  0.00    +0.000 A 
ATOM     25  N   UNL     1      47.611   3.351  17.910  0.00  0.00    +0.000 N 
ATOM     26  C   UNL     1      47.506   4.241  16.866  0.00  0.00    +0.000 A 
ATOM     27  O   UNL     1      46.553   4.203  16.093  0.00  0.00    +0.000 OA
ATOM     28  C   UNL     1      48.609   5.181  16.777  0.00  0.00    +0.000 A 
ATOM     29  H   UNL     1      46.856   2.690  18.004  0.00  0.00    +0.000 HD
ENDBRANCH  18  19
BRANCH  18  30
ATOM     30  N   UNL     1      47.779   8.240  14.937  0.00  0.00    +0.000 NA
ATOM     31  H   UNL     1      46.865   8.545  14.602  0.00  0.00    +0.000 HD
ATOM     32  H   UNL     1      48.445   8.642  14.267  0.00  0.00    +0.000 HD
ENDBRANCH  18  30
ENDBRANCH   1  18
TORSDOF 8
ENDMDL
MODEL 3
REMARK VINA RESULT:    -7.624      3.861      6.497
REMARK INTER + INTRA:         -11.768
REMARK INTER:                 -10.783
REMARK INTRA:                  -0.986
REMARK UNBOUND:                -0.802
REMARK  Name = 
REMARK  8 active torsions:
REMARK  status: ('A' for Active; 'I' for Inactive)
REMARK    1  A    between atoms: N_1  and  C_2
REMARK    2  A    between atoms: C_2  and  C_3
REMARK    3  A    between atoms: C_2  and  C_19
REMARK    4  A    between atoms: C_3  and  C_4
REMARK    5  A    between atoms: C_7  and  C_8
REMARK    6  A    between atoms: C_8  and  N_9
REMARK    7  A    between atoms: N_9  and  C_10
REMARK    8  A    between atoms: C_10  and  C_11
REMARK                            x       y       z     vdW  Elec       q    Type
REMARK                         _______ _______ _______ _____ _____    ______ ____
ROOT
ATOM      1  C   UNL     1      44.150   3.404  10.287  0.00  0.00    +0.000 C 
ENDROOT
BRANCH   1   2
ATOM      2  C   UNL     1      45.100   3.138   9.146  0.00  0.00    +0.000 A 
ATOM      3  C   UNL     1      45.458   1.824   8.818  0.00  0.00    +0.000 A 
ATOM      4  C   UNL     1      46.324   1.573   7.753  0.00  0.00    +0.000 A 
ATOM      5  C   UNL     1      46.833   2.630   6.984  0.00  0.00    +0.000 A 
ATOM      6  C   UNL     1      46.477   3.943   7.319  0.00  0.00    +0.000 A 
ATOM      7  C   UNL     1      45.622   4.196   8.393  0.00  0.00    +0.000 A 
BRANCH   5   8
ATOM      8  C   UNL     1      47.741   2.352   5.810  0.00  0.00    +0.000 C 
BRANCH   8   9
ATOM      9  N   UNL     1      47.638   0.954   5.403  0.00  0.00    +0.000 NA
ATOM     10  H   UNL     1      47.137   0.436   6.124  0.00  0.00    +0.000 HD
BRANCH   9  11
ATOM     11  C   UNL     1      46.940   0.809   4.131  0.00  0.00    +0.000 C 
BRANCH  11  12
ATOM     12  C   UNL     1      46.942  -0.635   3.696  0.00  0.00    +0.000 A 
ATOM     13  C   UNL     1      47.303  -0.997   2.397  0.00  0.00    +0.000 A 
ATOM     14  C   UNL     1      47.257  -2.337   2.042  0.00  0.00    +0.000 A 
ATOM     15  N   UNL     1      46.884  -3.326   2.882  0.00  0.00    +0.000 NA
ATOM     16  C   UNL     1      46.542  -2.958   4.135  0.00  0.00    +0.000 A 
ATOM     17  C   UNL     1      46.563  -1.648   4.586  0.00  0.00    +0.000 A 
ENDBRANCH  11  12
ENDBRANCH   9  11
ENDBRANCH   8   9
ENDBRANCH   5   8
ENDBRANCH   1   2
BRANCH   1  18
ATOM     18  C   UNL     1      44.833   3.598  11.663  0.00  0.00    +0.000 C 
BRANCH  18  19
ATOM     19  C   UNL     1      45.198   5.046  11.902  0.00  0.00    +0.000 A 
ATOM     20  C   UNL     1      44.574   6.110  11.267  0.00  0.00    +0.000 A 
ATOM     21  S   UNL     1      45.161   7.633  11.776  0.00  0.00    +0.000 S 
ATOM     22  C   UNL     1      46.271   6.917  12.851  0.00  0.00    +0.000 A 
ATOM     23  N   UNL     1      47.090   7.673  13.632  0.00  0.00    +0.000 NA
ATOM     24  C   UNL     1      47.868   6.988  14.403  0.00  0.00    +0.000 A 
ATOM     25  N   UNL     1      47.909   5.618  14.463  0.00  0.00    +0.000 N 
ATOM     26  C   UNL     1      47.138   4.811  13.658  0.00  0.00    +0.000 A 
ATOM     27  O   UNL     1      47.261   3.590  13.679  0.00  0.00    +0.000 OA
ATOM     28  C   UNL     1      46.210   5.538  12.808  0.00  0.00    +0.000 A 
ATOM     29  H   UNL     1      48.557   5.144  15.072  0.00  0.00    +0.000 HD
ENDBRANCH  18  19
BRANCH  18  30
ATOM     30  N   UNL     1      44.044   3.157  12.816  0.00  0.00    +0.000 NA
ATOM     31  H   UNL     1      43.058   3.182  12.557  0.00  0.00    +0.000 HD
ATOM     32  H   UNL     1      44.134   3.871  13.549  0.00  0.00    +0.000 HD
ENDBRANCH  18  30
ENDBRANCH   1  18
TORSDOF 8
ENDMDL
MODEL 4
REMARK VINA RESULT:    -7.359      4.112      4.931
REMARK INTER + INTRA:         -11.387
REMARK INTER:                 -10.332
REMARK INTRA:                  -1.055
REMARK UNBOUND:                -0.802
REMARK  Name = 
REMARK  8 active torsions:
REMARK  status: ('A' for Active; 'I' for Inactive)
REMARK    1  A    between atoms: N_1  and  C_2
REMARK    2  A    between atoms: C_2  and  C_3
REMARK    3  A    between atoms: C_2  and  C_19
REMARK    4  A    between atoms: C_3  and  C_4
REMARK    5  A    between atoms: C_7  and  C_8
REMARK    6  A    between atoms: C_8  and  N_9
REMARK    7  A    between atoms: N_9  and  C_10
REMARK    8  A    between atoms: C_10  and  C_11
REMARK                            x       y       z     vdW  Elec       q    Type
REMARK                         _______ _______ _______ _____ _____    ______ ____
ROOT
ATOM      1  C   UNL     1      46.165   8.319  12.234  0.00  0.00    +0.000 C 
ENDROOT
BRANCH   1   2
ATOM      2  C   UNL     1      45.512   6.984  11.973  0.00  0.00    +0.000 A 
ATOM      3  C   UNL     1      44.223   6.924  11.430  0.00  0.00    +0.000 A 
ATOM      4  C   UNL     1      43.623   5.692  11.171  0.00  0.00    +0.000 A 
ATOM      5  C   UNL     1      44.308   4.496  11.435  0.00  0.00    +0.000 A 
ATOM      6  C   UNL     1      45.594   4.561  11.985  0.00  0.00    +0.000 A 
ATOM      7  C   UNL     1      46.191   5.793  12.257  0.00  0.00    +0.000 A 
BRANCH   5   8
ATOM      8  C   UNL     1      43.669   3.164  11.121  0.00  0.00    +0.000 C 
BRANCH   8   9
ATOM      9  N   UNL     1      44.524   2.383  10.233  0.00  0.00    +0.000 NA
ATOM     10  H   UNL     1      44.199   1.417  10.223  0.00  0.00    +0.000 HD
BRANCH   9  11
ATOM     11  C   UNL     1      44.517   2.908   8.872  0.00  0.00    +0.000 C 
BRANCH  11  12
ATOM     12  C   UNL     1      45.756   2.466   8.135  0.00  0.00    +0.000 A 
ATOM     13  C   UNL     1      46.542   3.382   7.432  0.00  0.00    +0.000 A 
ATOM     14  C   UNL     1      47.654   2.915   6.746  0.00  0.00    +0.000 A 
ATOM     15  N   UNL     1      48.031   1.620   6.716  0.00  0.00    +0.000 NA
ATOM     16  C   UNL     1      47.262   0.750   7.405  0.00  0.00    +0.000 A 
ATOM     17  C   UNL     1      46.137   1.120   8.125  0.00  0.00    +0.000 A 
ENDBRANCH  11  12
ENDBRANCH   9  11
ENDBRANCH   8   9
ENDBRANCH   5   8
ENDBRANCH   1   2
BRANCH   1  18
ATOM     18  C   UNL     1      47.291   8.289  13.296  0.00  0.00    +0.000 C 
BRANCH  18  19
ATOM     19  C   UNL     1      48.584   8.854  12.749  0.00  0.00    +0.000 A 
ATOM     20  C   UNL     1      48.643   9.764  11.705  0.00  0.00    +0.000 A 
ATOM     21  S   UNL     1      50.237  10.263  11.340  0.00  0.00    +0.000 S 
ATOM     22  C   UNL     1      50.895   9.274  12.559  0.00  0.00    +0.000 A 
ATOM     23  N   UNL     1      52.233   9.242  12.801  0.00  0.00    +0.000 NA
ATOM     24  C   UNL     1      52.579   8.452  13.764  0.00  0.00    +0.000 A 
ATOM     25  N   UNL     1      51.714   7.687  14.504  0.00  0.00    +0.000 N 
ATOM     26  C   UNL     1      50.360   7.647  14.264  0.00  0.00    +0.000 A 
ATOM     27  O   UNL     1      49.626   6.888  14.890  0.00  0.00    +0.000 OA
ATOM     28  C   UNL     1      49.917   8.557  13.221  0.00  0.00    +0.000 A 
ATOM     29  H   UNL     1      52.052   7.074  15.229  0.00  0.00    +0.000 HD
ENDBRANCH  18  19
BRANCH  18  30
ATOM     30  N   UNL     1      46.996   9.013  14.535  0.00  0.00    +0.000 NA
ATOM     31  H   UNL     1      47.577   8.626  15.279  0.00  0.00    +0.000 HD
ATOM     32  H   UNL     1      46.036   8.781  14.814  0.00  0.00    +0.000 HD
ENDBRANCH  18  30
ENDBRANCH   1  18
TORSDOF 8
ENDMDL
MODEL 5
REMARK VINA RESULT:    -7.280      1.701      2.158
REMARK INTER + INTRA:         -11.275
REMARK INTER:                 -10.298
REMARK INTRA:                  -0.977
REMARK UNBOUND:                -0.802
REMARK  Name = 
REMARK  8 active torsions:
REMARK  status: ('A' for Active; 'I' for Inactive)
REMARK    1  A    between atoms: N_1  and  C_2
REMARK    2  A    between atoms: C_2  and  C_3
REMARK    3  A    between atoms: C_2  and  C_19
REMARK    4  A    between atoms: C_3  and  C_4
REMARK    5  A    between atoms: C_7  and  C_8
REMARK    6  A    between atoms: C_8  and  N_9
REMARK    7  A    between atoms: N_9  and  C_10
REMARK    8  A    between atoms: C_10  and  C_11
REMARK                            x       y       z     vdW  Elec       q    Type
REMARK                         _______ _______ _______ _____ _____    ______ ____
ROOT
ATOM      1  C   UNL     1      48.690   6.921  13.992  0.00  0.00    +0.000 C 
ENDROOT
BRANCH   1   2
ATOM      2  C   UNL     1      47.552   6.165  13.352  0.00  0.00    +0.000 A 
ATOM      3  C   UNL     1      47.057   6.559  12.103  0.00  0.00    +0.000 A 
ATOM      4  C   UNL     1      46.016   5.853  11.501  0.00  0.00    +0.000 A 
ATOM      5  C   UNL     1      45.462   4.727  12.128  0.00  0.00    +0.000 A 
ATOM      6  C   UNL     1      45.955   4.340  13.381  0.00  0.00    +0.000 A 
ATOM      7  C   UNL     1      46.987   5.054  13.991  0.00  0.00    +0.000 A 
BRANCH   5   8
ATOM      8  C   UNL     1      44.359   3.944  11.457  0.00  0.00    +0.000 C 
BRANCH   8   9
ATOM      9  N   UNL     1      44.896   2.743  10.825  0.00  0.00    +0.000 NA
ATOM     10  H   UNL     1      44.635   1.930  11.381  0.00  0.00    +0.000 HD
BRANCH   9  11
ATOM     11  C   UNL     1      44.398   2.576   9.464  0.00  0.00    +0.000 C 
BRANCH  11  12
ATOM     12  C   UNL     1      45.547   2.552   8.487  0.00  0.00    +0.000 A 
ATOM     13  C   UNL     1      45.963   3.715   7.834  0.00  0.00    +0.000 A 
ATOM     14  C   UNL     1      47.004   3.628   6.921  0.00  0.00    +0.000 A 
ATOM     15  N   UNL     1      47.652   2.482   6.623  0.00  0.00    +0.000 NA
ATOM     16  C   UNL     1      47.239   1.369   7.269  0.00  0.00    +0.000 A 
ATOM     17  C   UNL     1      46.214   1.355   8.200  0.00  0.00    +0.000 A 
ENDBRANCH  11  12
ENDBRANCH   9  11
ENDBRANCH   8   9
ENDBRANCH   5   8
ENDBRANCH   1   2
BRANCH   1  18
ATOM     18  C   UNL     1      48.731   6.837  15.537  0.00  0.00    +0.000 C 
BRANCH  18  19
ATOM     19  C   UNL     1      50.137   6.591  16.042  0.00  0.00    +0.000 A 
ATOM     20  C   UNL     1      51.234   7.346  15.655  0.00  0.00    +0.000 A 
ATOM     21  S   UNL     1      52.682   6.869  16.429  0.00  0.00    +0.000 S 
ATOM     22  C   UNL     1      51.888   5.638  17.296  0.00  0.00    +0.000 A 
ATOM     23  N   UNL     1      52.558   4.846  18.177  0.00  0.00    +0.000 NA
ATOM     24  C   UNL     1      51.819   3.965  18.766  0.00  0.00    +0.000 A 
ATOM     25  N   UNL     1      50.474   3.797  18.553  0.00  0.00    +0.000 N 
ATOM     26  C   UNL     1      49.764   4.538  17.638  0.00  0.00    +0.000 A 
ATOM     27  O   UNL     1      48.580   4.304  17.412  0.00  0.00    +0.000 OA
ATOM     28  C   UNL     1      50.544   5.576  16.985  0.00  0.00    +0.000 A 
ATOM     29  H   UNL     1      49.959   3.073  19.031  0.00  0.00    +0.000 HD
ENDBRANCH  18  19
BRANCH  18  30
ATOM     30  N   UNL     1      48.224   8.020  16.237  0.00  0.00    +0.000 NA
ATOM     31  H   UNL     1      48.900   8.775  16.122  0.00  0.00    +0.000 HD
ATOM     32  H   UNL     1      48.235   7.818  17.244  0.00  0.00    +0.000 HD
ENDBRANCH  18  30
ENDBRANCH   1  18
TORSDOF 8
ENDMDL
MODEL 6
REMARK VINA RESULT:    -7.144      4.575      6.020
REMARK INTER + INTRA:         -11.078
REMARK INTER:                  -9.873
REMARK INTRA:                  -1.205
REMARK UNBOUND:                -0.802
REMARK  Name = 
REMARK  8 active torsions:
REMARK  status: ('A' for Active; 'I' for Inactive)
REMARK    1  A    between atoms: N_1  and  C_2
REMARK    2  A    between atoms: C_2  and  C_3
REMARK    3  A    between atoms: C_2  and  C_19
REMARK    4  A    between atoms: C_3  and  C_4
REMARK    5  A    between atoms: C_7  and  C_8
REMARK    6  A    between atoms: C_8  and  N_9
REMARK    7  A    between atoms: N_9  and  C_10
REMARK    8  A    between atoms: C_10  and  C_11
REMARK                            x       y       z     vdW  Elec       q    Type
REMARK                         _______ _______ _______ _____ _____    ______ ____
ROOT
ATOM      1  C   UNL     1      47.141   7.282  13.291  0.00  0.00    +0.000 C 
ENDROOT
BRANCH   1   2
ATOM      2  C   UNL     1      46.214   6.251  12.696  0.00  0.00    +0.000 A 
ATOM      3  C   UNL     1      45.741   6.400  11.386  0.00  0.00    +0.000 A 
ATOM      4  C   UNL     1      44.897   5.441  10.827  0.00  0.00    +0.000 A 
ATOM      5  C   UNL     1      44.524   4.305  11.560  0.00  0.00    +0.000 A 
ATOM      6  C   UNL     1      44.994   4.163  12.872  0.00  0.00    +0.000 A 
ATOM      7  C   UNL     1      45.827   5.128  13.438  0.00  0.00    +0.000 A 
BRANCH   5   8
ATOM      8  C   UNL     1      43.639   3.250  10.939  0.00  0.00    +0.000 C 
BRANCH   8   9
ATOM      9  N   UNL     1      43.932   3.111   9.515  0.00  0.00    +0.000 NA
ATOM     10  H   UNL     1      44.505   3.899   9.216  0.00  0.00    +0.000 HD
BRANCH   9  11
ATOM     11  C   UNL     1      44.634   1.866   9.226  0.00  0.00    +0.000 C 
BRANCH  11  12
ATOM     12  C   UNL     1      45.774   2.120   8.272  0.00  0.00    +0.000 A 
ATOM     13  C   UNL     1      46.593   1.077   7.833  0.00  0.00    +0.000 A 
ATOM     14  C   UNL     1      47.647   1.373   6.981  0.00  0.00    +0.000 A 
ATOM     15  N   UNL     1      47.935   2.616   6.541  0.00  0.00    +0.000 NA
ATOM     16  C   UNL     1      47.129   3.611   6.972  0.00  0.00    +0.000 A 
ATOM     17  C   UNL     1      46.049   3.415   7.818  0.00  0.00    +0.000 A 
ENDBRANCH  11  12
ENDBRANCH   9  11
ENDBRANCH   8   9
ENDBRANCH   5   8
ENDBRANCH   1   2
BRANCH   1  18
ATOM     18  C   UNL     1      48.521   7.385  12.597  0.00  0.00    +0.000 C 
BRANCH  18  19
ATOM     19  C   UNL     1      48.831   8.808  12.189  0.00  0.00    +0.000 A 
ATOM     20  C   UNL     1      48.029   9.892  12.512  0.00  0.00    +0.000 A 
ATOM     21  S   UNL     1      48.661  11.382  11.962  0.00  0.00    +0.000 S 
ATOM     22  C   UNL     1      50.018  10.624  11.269  0.00  0.00    +0.000 A 
ATOM     23  N   UNL     1      50.989  11.342  10.642  0.00  0.00    +0.000 NA
ATOM     24  C   UNL     1      51.961  10.628  10.177  0.00  0.00    +0.000 A 
ATOM     25  N   UNL     1      52.051   9.263  10.275  0.00  0.00    +0.000 N 
ATOM     26  C   UNL     1      51.072   8.489  10.855  0.00  0.00    +0.000 A 
ATOM     27  O   UNL     1      51.146   7.264  10.850  0.00  0.00    +0.000 OA
ATOM     28  C   UNL     1      49.981   9.253  11.436  0.00  0.00    +0.000 A 
ATOM     29  H   UNL     1      52.827   8.763   9.870  0.00  0.00    +0.000 HD
ENDBRANCH  18  19
BRANCH  18  30
ATOM     30  N   UNL     1      49.654   6.909  13.394  0.00  0.00    +0.000 NA
ATOM     31  H   UNL     1      49.755   5.906  13.240  0.00  0.00    +0.000 HD
ATOM     32  H   UNL     1      49.398   6.991  14.384  0.00  0.00    +0.000 HD
ENDBRANCH  18  30
ENDBRANCH   1  18
TORSDOF 8
ENDMDL
MODEL 7
REMARK VINA RESULT:    -7.131      2.686      3.540
REMARK INTER + INTRA:         -11.059
REMARK INTER:                 -10.273
REMARK INTRA:                  -0.787
REMARK UNBOUND:                -0.802
REMARK  Name = 
REMARK  8 active torsions:
REMARK  status: ('A' for Active; 'I' for Inactive)
REMARK    1  A    between atoms: N_1  and  C_2
REMARK    2  A    between atoms: C_2  and  C_3
REMARK    3  A    between atoms: C_2  and  C_19
REMARK    4  A    between atoms: C_3  and  C_4
REMARK    5  A    between atoms: C_7  and  C_8
REMARK    6  A    between atoms: C_8  and  N_9
REMARK    7  A    between atoms: N_9  and  C_10
REMARK    8  A    between atoms: C_10  and  C_11
REMARK                            x       y       z     vdW  Elec       q    Type
REMARK                         _______ _______ _______ _____ _____    ______ ____
ROOT
ATOM      1  C   UNL     1      47.718   5.800  14.365  0.00  0.00    +0.000 C 
ENDROOT
BRANCH   1   2
ATOM      2  C   UNL     1      46.715   5.523  13.272  0.00  0.00    +0.000 A 
ATOM      3  C   UNL     1      45.853   4.423  13.369  0.00  0.00    +0.000 A 
ATOM      4  C   UNL     1      44.913   4.173  12.369  0.00  0.00    +0.000 A 
ATOM      5  C   UNL     1      44.806   5.028  11.262  0.00  0.00    +0.000 A 
ATOM      6  C   UNL     1      45.674   6.122  11.166  0.00  0.00    +0.000 A 
ATOM      7  C   UNL     1      46.624   6.366  12.159  0.00  0.00    +0.000 A 
BRANCH   5   8
ATOM      8  C   UNL     1      43.763   4.774  10.199  0.00  0.00    +0.000 C 
BRANCH   8   9
ATOM      9  N   UNL     1      44.391   4.288   8.973  0.00  0.00    +0.000 NA
ATOM     10  H   UNL     1      45.301   4.735   8.868  0.00  0.00    +0.000 HD
BRANCH   9  11
ATOM     11  C   UNL     1      44.563   2.840   8.989  0.00  0.00    +0.000 C 
BRANCH  11  12
ATOM     12  C   UNL     1      45.765   2.449   8.165  0.00  0.00    +0.000 A 
ATOM     13  C   UNL     1      46.177   1.117   8.079  0.00  0.00    +0.000 A 
ATOM     14  C   UNL     1      47.308   0.819   7.333  0.00  0.00    +0.000 A 
ATOM     15  N   UNL     1      48.043   1.741   6.676  0.00  0.00    +0.000 NA
ATOM     16  C   UNL     1      47.626   3.022   6.767  0.00  0.00    +0.000 A 
ATOM     17  C   UNL     1      46.507   3.419   7.481  0.00  0.00    +0.000 A 
ENDBRANCH  11  12
ENDBRANCH   9  11
ENDBRANCH   8   9
ENDBRANCH   5   8
ENDBRANCH   1   2
BRANCH   1  18
ATOM     18  C   UNL     1      48.538   7.100  14.172  0.00  0.00    +0.000 C 
BRANCH  18  19
ATOM     19  C   UNL     1      48.562   7.933  15.435  0.00  0.00    +0.000 A 
ATOM     20  C   UNL     1      48.062   9.224  15.512  0.00  0.00    +0.000 A 
ATOM     21  S   UNL     1      48.178   9.896  17.079  0.00  0.00    +0.000 S 
ATOM     22  C   UNL     1      48.906   8.487  17.699  0.00  0.00    +0.000 A 
ATOM     23  N   UNL     1      49.250   8.384  19.011  0.00  0.00    +0.000 NA
ATOM     24  C   UNL     1      49.782   7.252  19.333  0.00  0.00    +0.000 A 
ATOM     25  N   UNL     1      50.007   6.214  18.466  0.00  0.00    +0.000 N 
ATOM     26  C   UNL     1      49.723   6.287  17.122  0.00  0.00    +0.000 A 
ATOM     27  O   UNL     1      50.015   5.371  16.359  0.00  0.00    +0.000 OA
ATOM     28  C   UNL     1      49.077   7.526  16.721  0.00  0.00    +0.000 A 
ATOM     29  H   UNL     1      50.448   5.362  18.778  0.00  0.00    +0.000 HD
ENDBRANCH  18  19
BRANCH  18  30
ATOM     30  N   UNL     1      49.930   6.900  13.762  0.00  0.00    +0.000 NA
ATOM     31  H   UNL     1      49.995   7.062  12.757  0.00  0.00    +0.000 HD
ATOM     32  H   UNL     1      50.151   5.904  13.876  0.00  0.00    +0.000 HD
ENDBRANCH  18  30
ENDBRANCH   1  18
TORSDOF 8
ENDMDL
MODEL 8
REMARK VINA RESULT:    -7.104      3.632      4.799
REMARK INTER + INTRA:         -11.020
REMARK INTER:                  -9.952
REMARK INTRA:                  -1.068
REMARK UNBOUND:                -0.802
REMARK  Name = 
REMARK  8 active torsions:
REMARK  status: ('A' for Active; 'I' for Inactive)
REMARK    1  A    between atoms: N_1  and  C_2
REMARK    2  A    between atoms: C_2  and  C_3
REMARK    3  A    between atoms: C_2  and  C_19
REMARK    4  A    between atoms: C_3  and  C_4
REMARK    5  A    between atoms: C_7  and  C_8
REMARK    6  A    between atoms: C_8  and  N_9
REMARK    7  A    between atoms: N_9  and  C_10
REMARK    8  A    between atoms: C_10  and  C_11
REMARK                            x       y       z     vdW  Elec       q    Type
REMARK                         _______ _______ _______ _____ _____    ______ ____
ROOT
ATOM      1  C   UNL     1      47.705   5.638  14.307  0.00  0.00    +0.000 C 
ENDROOT
BRANCH   1   2
ATOM      2  C   UNL     1      46.650   5.242  13.304  0.00  0.00    +0.000 A 
ATOM      3  C   UNL     1      46.207   3.915  13.234  0.00  0.00    +0.000 A 
ATOM      4  C   UNL     1      45.219   3.548  12.320  0.00  0.00    +0.000 A 
ATOM      5  C   UNL     1      44.643   4.505  11.471  0.00  0.00    +0.000 A 
ATOM      6  C   UNL     1      45.094   5.829  11.539  0.00  0.00    +0.000 A 
ATOM      7  C   UNL     1      46.091   6.195  12.444  0.00  0.00    +0.000 A 
BRANCH   5   8
ATOM      8  C   UNL     1      43.549   4.111  10.507  0.00  0.00    +0.000 C 
BRANCH   8   9
ATOM      9  N   UNL     1      44.051   3.152   9.527  0.00  0.00    +0.000 NA
ATOM     10  H   UNL     1      43.270   2.604   9.169  0.00  0.00    +0.000 HD
BRANCH   9  11
ATOM     11  C   UNL     1      44.725   3.815   8.416  0.00  0.00    +0.000 C 
BRANCH  11  12
ATOM     12  C   UNL     1      45.824   2.937   7.873  0.00  0.00    +0.000 A 
ATOM     13  C   UNL     1      46.752   3.428   6.951  0.00  0.00    +0.000 A 
ATOM     14  C   UNL     1      47.722   2.567   6.461  0.00  0.00    +0.000 A 
ATOM     15  N   UNL     1      47.831   1.271   6.823  0.00  0.00    +0.000 NA
ATOM     16  C   UNL     1      46.929   0.815   7.718  0.00  0.00    +0.000 A 
ATOM     17  C   UNL     1      45.928   1.598   8.269  0.00  0.00    +0.000 A 
ENDBRANCH  11  12
ENDBRANCH   9  11
ENDBRANCH   8   9
ENDBRANCH   5   8
ENDBRANCH   1   2
BRANCH   1  18
ATOM     18  C   UNL     1      48.386   6.999  14.021  0.00  0.00    +0.000 C 
BRANCH  18  19
ATOM     19  C   UNL     1      48.669   7.756  15.300  0.00  0.00    +0.000 A 
ATOM     20  C   UNL     1      48.862   7.143  16.529  0.00  0.00    +0.000 A 
ATOM     21  S   UNL     1      49.216   8.249  17.783  0.00  0.00    +0.000 S 
ATOM     22  C   UNL     1      49.114   9.579  16.725  0.00  0.00    +0.000 A 
ATOM     23  N   UNL     1      49.335  10.850  17.159  0.00  0.00    +0.000 NA
ATOM     24  C   UNL     1      49.233  11.750  16.238  0.00  0.00    +0.000 A 
ATOM     25  N   UNL     1      48.925  11.501  14.925  0.00  0.00    +0.000 N 
ATOM     26  C   UNL     1      48.644  10.242  14.449  0.00  0.00    +0.000 A 
ATOM     27  O   UNL     1      48.290  10.066  13.287  0.00  0.00    +0.000 OA
ATOM     28  C   UNL     1      48.794   9.189  15.439  0.00  0.00    +0.000 A 
ATOM     29  H   UNL     1      48.839  12.254  14.260  0.00  0.00    +0.000 HD
ENDBRANCH  18  19
BRANCH  18  30
ATOM     30  N   UNL     1      49.648   6.919  13.281  0.00  0.00    +0.000 NA
ATOM     31  H   UNL     1      49.456   7.116  12.299  0.00  0.00    +0.000 HD
ATOM     32  H   UNL     1      49.956   5.940  13.290  0.00  0.00    +0.000 HD
ENDBRANCH  18  30
ENDBRANCH   1  18
TORSDOF 8
ENDMDL
MODEL 9
REMARK VINA RESULT:    -6.937      4.311      5.800
REMARK INTER + INTRA:         -10.780
REMARK INTER:                  -9.712
REMARK INTRA:                  -1.068
REMARK UNBOUND:                -0.802
REMARK  Name = 
REMARK  8 active torsions:
REMARK  status: ('A' for Active; 'I' for Inactive)
REMARK    1  A    between atoms: N_1  and  C_2
REMARK    2  A    between atoms: C_2  and  C_3
REMARK    3  A    between atoms: C_2  and  C_19
REMARK    4  A    between atoms: C_3  and  C_4
REMARK    5  A    between atoms: C_7  and  C_8
REMARK    6  A    between atoms: C_8  and  N_9
REMARK    7  A    between atoms: N_9  and  C_10
REMARK    8  A    between atoms: C_10  and  C_11
REMARK                            x       y       z     vdW  Elec       q    Type
REMARK                         _______ _______ _______ _____ _____    ______ ____
ROOT
ATOM      1  C   UNL     1      48.069   6.292  13.620  0.00  0.00    +0.000 C 
ENDROOT
BRANCH   1   2
ATOM      2  C   UNL     1      46.889   5.757  12.848  0.00  0.00    +0.000 A 
ATOM      3  C   UNL     1      46.384   6.467  11.751  0.00  0.00    +0.000 A 
ATOM      4  C   UNL     1      45.303   5.967  11.024  0.00  0.00    +0.000 A 
ATOM      5  C   UNL     1      44.719   4.740  11.369  0.00  0.00    +0.000 A 
ATOM      6  C   UNL     1      45.223   4.036  12.470  0.00  0.00    +0.000 A 
ATOM      7  C   UNL     1      46.295   4.541  13.207  0.00  0.00    +0.000 A 
BRANCH   5   8
ATOM      8  C   UNL     1      43.572   4.185  10.557  0.00  0.00    +0.000 C 
BRANCH   8   9
ATOM      9  N   UNL     1      44.055   3.195   9.599  0.00  0.00    +0.000 NA
ATOM     10  H   UNL     1      43.275   2.607   9.309  0.00  0.00    +0.000 HD
BRANCH   9  11
ATOM     11  C   UNL     1      44.649   3.823   8.424  0.00  0.00    +0.000 C 
BRANCH  11  12
ATOM     12  C   UNL     1      45.778   2.974   7.894  0.00  0.00    +0.000 A 
ATOM     13  C   UNL     1      45.868   1.616   8.208  0.00  0.00    +0.000 A 
ATOM     14  C   UNL     1      46.945   0.891   7.719  0.00  0.00    +0.000 A 
ATOM     15  N   UNL     1      47.920   1.417   6.948  0.00  0.00    +0.000 NA
ATOM     16  C   UNL     1      47.813   2.730   6.651  0.00  0.00    +0.000 A 
ATOM     17  C   UNL     1      46.773   3.536   7.086  0.00  0.00    +0.000 A 
ENDBRANCH  11  12
ENDBRANCH   9  11
ENDBRANCH   8   9
ENDBRANCH   5   8
ENDBRANCH   1   2
BRANCH   1  18
ATOM     18  C   UNL     1      48.763   7.514  12.972  0.00  0.00    +0.000 C 
BRANCH  18  19
ATOM     19  C   UNL     1      48.846   8.680  13.933  0.00  0.00    +0.000 A 
ATOM     20  C   UNL     1      48.718   8.551  15.308  0.00  0.00    +0.000 A 
ATOM     21  S   UNL     1      48.909  10.032  16.141  0.00  0.00    +0.000 S 
ATOM     22  C   UNL     1      49.160  10.888  14.691  0.00  0.00    +0.000 A 
ATOM     23  N   UNL     1      49.408  12.226  14.691  0.00  0.00    +0.000 NA
ATOM     24  C   UNL     1      49.587  12.733  13.516  0.00  0.00    +0.000 A 
ATOM     25  N   UNL     1      49.537  12.029  12.340  0.00  0.00    +0.000 N 
ATOM     26  C   UNL     1      49.240  10.687  12.284  0.00  0.00    +0.000 A 
ATOM     27  O   UNL     1      49.120  10.107  11.209  0.00  0.00    +0.000 OA
ATOM     28  C   UNL     1      49.078  10.063  13.586  0.00  0.00    +0.000 A 
ATOM     29  H   UNL     1      49.664  12.490  11.452  0.00  0.00    +0.000 HD
ENDBRANCH  18  19
BRANCH  18  30
ATOM     30  N   UNL     1      50.120   7.268  12.477  0.00  0.00    +0.000 NA
ATOM     31  H   UNL     1      50.739   7.974  12.875  0.00  0.00    +0.000 HD
ATOM     32  H   UNL     1      50.126   7.460  11.469  0.00  0.00    +0.000 HD
ENDBRANCH  18  30
ENDBRANCH   1  18
TORSDOF 8
ENDMDL
