MODEL 1
REMARK VINA RESULT:    -8.079      0.000      0.000
REMARK INTER + INTRA:         -15.076
REMARK INTER:                 -13.275
REMARK INTRA:                  -1.801
REMARK UNBOUND:                -1.801
REMARK  Name = 
REMARK  12 active torsions:
REMARK  status: ('A' for Active; 'I' for Inactive)
REMARK    1  A    between atoms: C_1  and  C_2
REMARK    2  A    between atoms: C_2  and  N_3
REMARK    3  A    between atoms: C_2  and  C_20
REMARK    4  A    between atoms: N_3  and  C_4
REMARK    5  A    between atoms: C_4  and  C_5
REMARK    6  A    between atoms: C_8  and  C_9
REMARK    7  A    between atoms: C_9  and  N_10
REMARK    8  A    between atoms: N_10  and  C_11
REMARK    9  A    between atoms: C_11  and  C_12
REMARK   10  A    between atoms: C_23  and  C_24
REMARK   11  A    between atoms: N_26  and  C_27
REMARK   12  A    between atoms: C_27  and  C_28
REMARK                            x       y       z     vdW  Elec       q    Type
REMARK                         _______ _______ _______ _____ _____    ______ ____
ROOT
ATOM      1  C   UNL     1      43.557   3.648  12.128  0.00  0.00    +0.000 C 
ATOM      2  C   UNL     1      43.511   4.473  10.831  0.00  0.00    +0.000 C 
ENDROOT
BRANCH   2   3
ATOM      3  C   UNL     1      44.395   3.821   9.778  0.00  0.00    +0.000 A 
ATOM      4  C   UNL     1      44.425   2.424   9.685  0.00  0.00    +0.000 A 
ATOM      5  C   UNL     1      45.250   1.784   8.748  0.00  0.00    +0.000 A 
ATOM      6  C   UNL     1      46.053   2.542   7.888  0.00  0.00    +0.000 A 
ATOM      7  C   UNL     1      45.987   3.935   7.948  0.00  0.00    +0.000 A 
ATOM      8  C   UNL     1      45.174   4.574   8.887  0.00  0.00    +0.000 A 
BRANCH   6   9
ATOM      9  C   UNL     1      46.961   1.882   6.913  0.00  0.00    +0.000 C 
ATOM     10  O   UNL     1      47.807   1.096   7.288  0.00  0.00    +0.000 OA
ATOM     11  N   UNL     1      46.790   2.231   5.574  0.00  0.00    +0.000 N 
ATOM     12  H   UNL     1      46.033   2.833   5.284  0.00  0.00    +0.000 HD
BRANCH  11  13
ATOM     13  C   UNL     1      47.592   1.619   4.544  0.00  0.00    +0.000 C 
BRANCH  13  14
ATOM     14  C   UNL     1      46.786   0.647   3.736  0.00  0.00    +0.000 A 
ATOM     15  C   UNL     1      45.849   1.091   2.798  0.00  0.00    +0.000 A 
ATOM     16  C   UNL     1      45.135   0.166   2.043  0.00  0.00    +0.000 A 
ATOM     17  C   UNL     1      45.391  -1.179   2.245  0.00  0.00    +0.000 A 
ATOM     18  N   UNL     1      46.295  -1.649   3.133  0.00  0.00    +0.000 NA
ATOM     19  C   UNL     1      46.971  -0.725   3.854  0.00  0.00    +0.000 A 
ENDBRANCH  13  14
ENDBRANCH  11  13
ENDBRANCH   6   9
ENDBRANCH   2   3
BRANCH   2  20
ATOM     20  N   UNL     1      43.865   5.868  11.104  0.00  0.00    +0.000 NA
ATOM     21  H   UNL     1      43.102   6.482  10.823  0.00  0.00    +0.000 HD
BRANCH  20  22
ATOM     22  C   UNL     1      44.146   6.102  12.522  0.00  0.00    +0.000 C 
BRANCH  22  23
ATOM     23  C   UNL     1      45.530   6.657  12.717  0.00  0.00    +0.000 A 
ATOM     24  C   UNL     1      45.724   8.030  12.917  0.00  0.00    +0.000 A 
ATOM     25  C   UNL     1      47.007   8.532  13.138  0.00  0.00    +0.000 A 
ATOM     26  C   UNL     1      48.117   7.673  13.167  0.00  0.00    +0.000 A 
ATOM     27  C   UNL     1      47.920   6.304  12.939  0.00  0.00    +0.000 A 
ATOM     28  C   UNL     1      46.641   5.806  12.702  0.00  0.00    +0.000 A 
BRANCH  26  29
ATOM     29  C   UNL     1      49.513   8.198  13.424  0.00  0.00    +0.000 C 
BRANCH  29  30
ATOM     30  N   UNL     1      50.316   7.194  14.117  0.00  0.00    +0.000 NA
ATOM     31  H   UNL     1      51.276   7.254  13.771  0.00  0.00    +0.000 HD
BRANCH  30  32
ATOM     32  C   UNL     1      50.348   7.399  15.570  0.00  0.00    +0.000 C 
BRANCH  32  33
ATOM     33  C   UNL     1      49.873   6.165  16.322  0.00  0.00    +0.000 A 
ATOM     34  C   UNL     1      48.513   5.873  16.437  0.00  0.00    +0.000 A 
ATOM     35  C   UNL     1      48.122   4.715  17.109  0.00  0.00    +0.000 A 
ATOM     36  C   UNL     1      49.095   3.892  17.664  0.00  0.00    +0.000 A 
ATOM     37  C   UNL     1      50.420   4.260  17.518  0.00  0.00    +0.000 A 
ATOM     38  N   UNL     1      50.832   5.366  16.859  0.00  0.00    +0.000 NA
ENDBRANCH  32  33
ENDBRANCH  30  32
ENDBRANCH  29  30
ENDBRANCH  26  29
ENDBRANCH  22  23
ENDBRANCH  20  22
ENDBRANCH   2  20
TORSDOF 11
ENDMDL
MODEL 2
REMARK VINA RESULT:    -7.391      2.832      5.816
REMARK INTER + INTRA:         -13.944
REMARK INTER:                 -11.812
REMARK INTRA:                  -2.132
REMARK UNBOUND:                -1.801
REMARK  Name = 
REMARK  12 active torsions:
REMARK  status: ('A' for Active; 'I' for Inactive)
REMARK    1  A    between atoms: C_1  and  C_2
REMARK    2  A    between atoms: C_2  and  N_3
REMARK    3  A    between atoms: C_2  and  C_20
REMARK    4  A    between atoms: N_3  and  C_4
REMARK    5  A    between atoms: C_4  and  C_5
REMARK    6  A    between atoms: C_8  and  C_9
REMARK    7  A    between atoms: C_9  and  N_10
REMARK    8  A    between atoms: N_10  and  C_11
REMARK    9  A    between atoms: C_11  and  C_12
REMARK   10  A    between atoms: C_23  and  C_24
REMARK   11  A    between atoms: N_26  and  C_27
REMARK   12  A    between atoms: C_27  and  C_28
REMARK                            x       y       z     vdW  Elec       q    Type
REMARK                         _______ _______ _______ _____ _____    ______ ____
ROOT
ATOM      1  C   UNL     1      49.279   9.415  13.875  0.00  0.00    +0.000 C 
ATOM      2  C   UNL     1      48.303   8.498  14.629  0.00  0.00    +0.000 C 
ENDROOT
BRANCH   2   3
ATOM      3  C   UNL     1      47.460   7.716  13.632  0.00  0.00    +0.000 A 
ATOM      4  C   UNL     1      46.458   8.384  12.918  0.00  0.00    +0.000 A 
ATOM      5  C   UNL     1      45.639   7.693  12.012  0.00  0.00    +0.000 A 
ATOM      6  C   UNL     1      45.822   6.320  11.808  0.00  0.00    +0.000 A 
ATOM      7  C   UNL     1      46.853   5.664  12.484  0.00  0.00    +0.000 A 
ATOM      8  C   UNL     1      47.662   6.349  13.394  0.00  0.00    +0.000 A 
BRANCH   6   9
ATOM      9  C   UNL     1      44.942   5.564  10.880  0.00  0.00    +0.000 C 
ATOM     10  O   UNL     1      43.745   5.497  11.076  0.00  0.00    +0.000 OA
ATOM     11  N   UNL     1      45.570   4.937   9.805  0.00  0.00    +0.000 N 
ATOM     12  H   UNL     1      46.555   5.068   9.627  0.00  0.00    +0.000 HD
BRANCH  11  13
ATOM     13  C   UNL     1      44.802   4.210   8.823  0.00  0.00    +0.000 C 
BRANCH  13  14
ATOM     14  C   UNL     1      45.631   3.149   8.166  0.00  0.00    +0.000 A 
ATOM     15  C   UNL     1      46.476   3.453   7.094  0.00  0.00    +0.000 A 
ATOM     16  C   UNL     1      47.255   2.452   6.522  0.00  0.00    +0.000 A 
ATOM     17  C   UNL     1      47.170   1.176   7.050  0.00  0.00    +0.000 A 
ATOM     18  N   UNL     1      46.375   0.842   8.090  0.00  0.00    +0.000 NA
ATOM     19  C   UNL     1      45.628   1.837   8.623  0.00  0.00    +0.000 A 
ENDBRANCH  13  14
ENDBRANCH  11  13
ENDBRANCH   6   9
ENDBRANCH   2   3
BRANCH   2  20
ATOM     20  N   UNL     1      47.505   9.277  15.579  0.00  0.00    +0.000 NA
ATOM     21  H   UNL     1      46.826   8.675  16.041  0.00  0.00    +0.000 HD
BRANCH  20  22
ATOM     22  C   UNL     1      48.332   9.913  16.607  0.00  0.00    +0.000 C 
BRANCH  22  23
ATOM     23  C   UNL     1      48.653   8.950  17.718  0.00  0.00    +0.000 A 
ATOM     24  C   UNL     1      47.670   8.578  18.644  0.00  0.00    +0.000 A 
ATOM     25  C   UNL     1      47.964   7.654  19.646  0.00  0.00    +0.000 A 
ATOM     26  C   UNL     1      49.243   7.081  19.739  0.00  0.00    +0.000 A 
ATOM     27  C   UNL     1      50.231   7.478  18.827  0.00  0.00    +0.000 A 
ATOM     28  C   UNL     1      49.941   8.414  17.837  0.00  0.00    +0.000 A 
BRANCH  26  29
ATOM     29  C   UNL     1      49.574   6.062  20.808  0.00  0.00    +0.000 C 
BRANCH  29  30
ATOM     30  N   UNL     1      49.841   4.760  20.206  0.00  0.00    +0.000 NA
ATOM     31  H   UNL     1      50.456   4.235  20.831  0.00  0.00    +0.000 HD
BRANCH  30  32
ATOM     32  C   UNL     1      48.622   3.967  20.006  0.00  0.00    +0.000 C 
BRANCH  32  33
ATOM     33  C   UNL     1      48.343   3.728  18.531  0.00  0.00    +0.000 A 
ATOM     34  C   UNL     1      47.452   4.541  17.827  0.00  0.00    +0.000 A 
ATOM     35  C   UNL     1      47.248   4.305  16.468  0.00  0.00    +0.000 A 
ATOM     36  C   UNL     1      47.921   3.257  15.852  0.00  0.00    +0.000 A 
ATOM     37  C   UNL     1      48.775   2.490  16.623  0.00  0.00    +0.000 A 
ATOM     38  N   UNL     1      49.007   2.702  17.938  0.00  0.00    +0.000 NA
ENDBRANCH  32  33
ENDBRANCH  30  32
ENDBRANCH  29  30
ENDBRANCH  26  29
ENDBRANCH  22  23
ENDBRANCH  20  22
ENDBRANCH   2  20
TORSDOF 11
ENDMDL
MODEL 3
REMARK VINA RESULT:    -7.283      2.809     10.188
REMARK INTER + INTRA:         -13.768
REMARK INTER:                 -12.314
REMARK INTRA:                  -1.454
REMARK UNBOUND:                -1.801
REMARK  Name = 
REMARK  12 active torsions:
REMARK  status: ('A' for Active; 'I' for Inactive)
REMARK    1  A    between atoms: C_1  and  C_2
REMARK    2  A    between atoms: C_2  and  N_3
REMARK    3  A    between atoms: C_2  and  C_20
REMARK    4  A    between atoms: N_3  and  C_4
REMARK    5  A    between atoms: C_4  and  C_5
REMARK    6  A    between atoms: C_8  and  C_9
REMARK    7  A    between atoms: C_9  and  N_10
REMARK    8  A    between atoms: N_10  and  C_11
REMARK    9  A    between atoms: C_11  and  C_12
REMARK   10  A    between atoms: C_23  and  C_24
REMARK   11  A    between atoms: N_26  and  C_27
REMARK   12  A    between atoms: C_27  and  C_28
REMARK                            x       y       z     vdW  Elec       q    Type
REMARK                         _______ _______ _______ _____ _____    ______ ____
ROOT
ATOM      1  C   UNL     1      42.839   4.979  12.489  0.00  0.00    +0.000 C 
ATOM      2  C   UNL     1      44.073   4.285  13.087  0.00  0.00    +0.000 C 
ENDROOT
BRANCH   2   3
ATOM      3  C   UNL     1      45.243   5.257  13.119  0.00  0.00    +0.000 A 
ATOM      4  C   UNL     1      45.036   6.584  12.722  0.00  0.00    +0.000 A 
ATOM      5  C   UNL     1      46.096   7.504  12.709  0.00  0.00    +0.000 A 
ATOM      6  C   UNL     1      47.378   7.101  13.099  0.00  0.00    +0.000 A 
ATOM      7  C   UNL     1      47.574   5.791  13.541  0.00  0.00    +0.000 A 
ATOM      8  C   UNL     1      46.522   4.871  13.545  0.00  0.00    +0.000 A 
BRANCH   6   9
ATOM      9  C   UNL     1      48.520   8.050  13.057  0.00  0.00    +0.000 C 
ATOM     10  O   UNL     1      49.257   8.177  14.015  0.00  0.00    +0.000 OA
ATOM     11  N   UNL     1      48.676   8.780  11.879  0.00  0.00    +0.000 N 
ATOM     12  H   UNL     1      48.093   8.603  11.075  0.00  0.00    +0.000 HD
BRANCH  11  13
ATOM     13  C   UNL     1      49.776   9.699  11.721  0.00  0.00    +0.000 C 
BRANCH  13  14
ATOM     14  C   UNL     1      50.968   9.018  11.119  0.00  0.00    +0.000 A 
ATOM     15  C   UNL     1      52.168   9.708  10.917  0.00  0.00    +0.000 A 
ATOM     16  C   UNL     1      53.266   9.041  10.383  0.00  0.00    +0.000 A 
ATOM     17  C   UNL     1      53.130   7.699  10.075  0.00  0.00    +0.000 A 
ATOM     18  N   UNL     1      51.993   6.994  10.265  0.00  0.00    +0.000 NA
ATOM     19  C   UNL     1      50.942   7.670  10.784  0.00  0.00    +0.000 A 
ENDBRANCH  13  14
ENDBRANCH  11  13
ENDBRANCH   6   9
ENDBRANCH   2   3
BRANCH   2  20
ATOM     20  N   UNL     1      44.364   3.049  12.355  0.00  0.00    +0.000 NA
ATOM     21  H   UNL     1      44.114   2.241  12.923  0.00  0.00    +0.000 HD
BRANCH  20  22
ATOM     22  C   UNL     1      43.631   2.968  11.090  0.00  0.00    +0.000 C 
BRANCH  22  23
ATOM     23  C   UNL     1      44.564   3.075   9.914  0.00  0.00    +0.000 A 
ATOM     24  C   UNL     1      44.995   1.925   9.241  0.00  0.00    +0.000 A 
ATOM     25  C   UNL     1      45.827   2.036   8.128  0.00  0.00    +0.000 A 
ATOM     26  C   UNL     1      46.240   3.295   7.663  0.00  0.00    +0.000 A 
ATOM     27  C   UNL     1      45.828   4.441   8.357  0.00  0.00    +0.000 A 
ATOM     28  C   UNL     1      45.011   4.329   9.480  0.00  0.00    +0.000 A 
BRANCH  26  29
ATOM     29  C   UNL     1      47.127   3.434   6.444  0.00  0.00    +0.000 C 
BRANCH  29  30
ATOM     30  N   UNL     1      46.607   2.633   5.341  0.00  0.00    +0.000 NA
ATOM     31  H   UNL     1      46.529   3.232   4.516  0.00  0.00    +0.000 HD
BRANCH  30  32
ATOM     32  C   UNL     1      47.481   1.505   4.998  0.00  0.00    +0.000 C 
BRANCH  32  33
ATOM     33  C   UNL     1      46.846   0.599   3.954  0.00  0.00    +0.000 A 
ATOM     34  C   UNL     1      45.831   1.067   3.118  0.00  0.00    +0.000 A 
ATOM     35  C   UNL     1      45.297   0.212   2.155  0.00  0.00    +0.000 A 
ATOM     36  C   UNL     1      45.774  -1.090   2.064  0.00  0.00    +0.000 A 
ATOM     37  C   UNL     1      46.771  -1.480   2.939  0.00  0.00    +0.000 A 
ATOM     38  N   UNL     1      47.321  -0.670   3.872  0.00  0.00    +0.000 NA
ENDBRANCH  32  33
ENDBRANCH  30  32
ENDBRANCH  29  30
ENDBRANCH  26  29
ENDBRANCH  22  23
ENDBRANCH  20  22
ENDBRANCH   2  20
TORSDOF 11
ENDMDL
MODEL 4
REMARK VINA RESULT:    -7.201      1.421      2.167
REMARK INTER + INTRA:         -13.633
REMARK INTER:                 -11.948
REMARK INTRA:                  -1.685
REMARK UNBOUND:                -1.801
REMARK  Name = 
REMARK  12 active torsions:
REMARK  status: ('A' for Active; 'I' for Inactive)
REMARK    1  A    between atoms: C_1  and  C_2
REMARK    2  A    between atoms: C_2  and  N_3
REMARK    3  A    between atoms: C_2  and  C_20
REMARK    4  A    between atoms: N_3  and  C_4
REMARK    5  A    between atoms: C_4  and  C_5
REMARK    6  A    between atoms: C_8  and  C_9
REMARK    7  A    between atoms: C_9  and  N_10
REMARK    8  A    between atoms: N_10  and  C_11
REMARK    9  A    between atoms: C_11  and  C_12
REMARK   10  A    between atoms: C_23  and  C_24
REMARK   11  A    between atoms: N_26  and  C_27
REMARK   12  A    between atoms: C_27  and  C_28
REMARK                            x       y       z     vdW  Elec       q    Type
REMARK                         _______ _______ _______ _____ _____    ______ ____
ROOT
ATOM      1  C   UNL     1      43.265   3.710  11.902  0.00  0.00    +0.000 C 
ATOM      2  C   UNL     1      43.457   4.547  10.627  0.00  0.00    +0.000 C 
ENDROOT
BRANCH   2   3
ATOM      3  C   UNL     1      44.412   3.832   9.682  0.00  0.00    +0.000 A 
ATOM      4  C   UNL     1      45.174   4.589   8.785  0.00  0.00    +0.000 A 
ATOM      5  C   UNL     1      46.045   3.966   7.877  0.00  0.00    +0.000 A 
ATOM      6  C   UNL     1      46.162   2.571   7.865  0.00  0.00    +0.000 A 
ATOM      7  C   UNL     1      45.439   1.819   8.793  0.00  0.00    +0.000 A 
ATOM      8  C   UNL     1      44.564   2.438   9.690  0.00  0.00    +0.000 A 
BRANCH   6   9
ATOM      9  C   UNL     1      47.050   1.890   6.888  0.00  0.00    +0.000 C 
ATOM     10  O   UNL     1      47.866   1.069   7.258  0.00  0.00    +0.000 OA
ATOM     11  N   UNL     1      46.900   2.260   5.552  0.00  0.00    +0.000 N 
ATOM     12  H   UNL     1      46.167   2.891   5.264  0.00  0.00    +0.000 HD
BRANCH  11  13
ATOM     13  C   UNL     1      47.686   1.630   4.519  0.00  0.00    +0.000 C 
BRANCH  13  14
ATOM     14  C   UNL     1      46.865   0.650   3.736  0.00  0.00    +0.000 A 
ATOM     15  C   UNL     1      47.087  -0.726   3.845  0.00  0.00    +0.000 A 
ATOM     16  C   UNL     1      46.291  -1.613   3.127  0.00  0.00    +0.000 A 
ATOM     17  C   UNL     1      45.288  -1.092   2.328  0.00  0.00    +0.000 A 
ATOM     18  N   UNL     1      45.034   0.230   2.203  0.00  0.00    +0.000 NA
ATOM     19  C   UNL     1      45.827   1.066   2.912  0.00  0.00    +0.000 A 
ENDBRANCH  13  14
ENDBRANCH  11  13
ENDBRANCH   6   9
ENDBRANCH   2   3
BRANCH   2  20
ATOM     20  N   UNL     1      43.887   5.905  10.971  0.00  0.00    +0.000 NA
ATOM     21  H   UNL     1      43.128   6.563  10.806  0.00  0.00    +0.000 HD
BRANCH  20  22
ATOM     22  C   UNL     1      44.300   6.017  12.372  0.00  0.00    +0.000 C 
BRANCH  22  23
ATOM     23  C   UNL     1      45.728   6.477  12.482  0.00  0.00    +0.000 A 
ATOM     24  C   UNL     1      46.713   5.621  12.992  0.00  0.00    +0.000 A 
ATOM     25  C   UNL     1      48.042   6.041  13.053  0.00  0.00    +0.000 A 
ATOM     26  C   UNL     1      48.412   7.319  12.603  0.00  0.00    +0.000 A 
ATOM     27  C   UNL     1      47.418   8.180  12.119  0.00  0.00    +0.000 A 
ATOM     28  C   UNL     1      46.088   7.767  12.074  0.00  0.00    +0.000 A 
BRANCH  26  29
ATOM     29  C   UNL     1      49.852   7.782  12.644  0.00  0.00    +0.000 C 
BRANCH  29  30
ATOM     30  N   UNL     1      49.966   9.025  13.400  0.00  0.00    +0.000 NA
ATOM     31  H   UNL     1      49.025   9.343  13.641  0.00  0.00    +0.000 HD
BRANCH  30  32
ATOM     32  C   UNL     1      50.720   8.862  14.649  0.00  0.00    +0.000 C 
BRANCH  32  33
ATOM     33  C   UNL     1      49.796   8.756  15.852  0.00  0.00    +0.000 A 
ATOM     34  C   UNL     1      48.782   9.691  16.065  0.00  0.00    +0.000 A 
ATOM     35  C   UNL     1      47.938   9.540  17.164  0.00  0.00    +0.000 A 
ATOM     36  C   UNL     1      48.140   8.473  18.033  0.00  0.00    +0.000 A 
ATOM     37  C   UNL     1      49.177   7.599  17.760  0.00  0.00    +0.000 A 
ATOM     38  N   UNL     1      50.001   7.709  16.693  0.00  0.00    +0.000 NA
ENDBRANCH  32  33
ENDBRANCH  30  32
ENDBRANCH  29  30
ENDBRANCH  26  29
ENDBRANCH  22  23
ENDBRANCH  20  22
ENDBRANCH   2  20
TORSDOF 11
ENDMDL
MODEL 5
REMARK VINA RESULT:    -7.198      2.598      4.176
REMARK INTER + INTRA:         -13.628
REMARK INTER:                 -12.164
REMARK INTRA:                  -1.464
REMARK UNBOUND:                -1.801
REMARK  Name = 
REMARK  12 active torsions:
REMARK  status: ('A' for Active; 'I' for Inactive)
REMARK    1  A    between atoms: C_1  and  C_2
REMARK    2  A    between atoms: C_2  and  N_3
REMARK    3  A    between atoms: C_2  and  C_20
REMARK    4  A    between atoms: N_3  and  C_4
REMARK    5  A    between atoms: C_4  and  C_5
REMARK    6  A    between atoms: C_8  and  C_9
REMARK    7  A    between atoms: C_9  and  N_10
REMARK    8  A    between atoms: N_10  and  C_11
REMARK    9  A    between atoms: C_11  and  C_12
REMARK   10  A    between atoms: C_23  and  C_24
REMARK   11  A    between atoms: N_26  and  C_27
REMARK   12  A    between atoms: C_27  and  C_28
REMARK                            x       y       z     vdW  Elec       q    Type
REMARK                         _______ _______ _______ _____ _____    ______ ____
ROOT
ATOM      1  C   UNL     1      42.841   4.299  11.756  0.00  0.00    +0.000 C 
ATOM      2  C   UNL     1      43.505   5.061  10.598  0.00  0.00    +0.000 C 
ENDROOT
BRANCH   2   3
ATOM      3  C   UNL     1      44.353   4.104   9.774  0.00  0.00    +0.000 A 
ATOM      4  C   UNL     1      45.237   4.626   8.821  0.00  0.00    +0.000 A 
ATOM      5  C   UNL     1      46.014   3.775   8.020  0.00  0.00    +0.000 A 
ATOM      6  C   UNL     1      45.915   2.387   8.170  0.00  0.00    +0.000 A 
ATOM      7  C   UNL     1      45.071   1.868   9.154  0.00  0.00    +0.000 A 
ATOM      8  C   UNL     1      44.289   2.713   9.945  0.00  0.00    +0.000 A 
BRANCH   6   9
ATOM      9  C   UNL     1      46.703   1.469   7.307  0.00  0.00    +0.000 C 
ATOM     10  O   UNL     1      46.971   0.345   7.680  0.00  0.00    +0.000 OA
ATOM     11  N   UNL     1      47.117   1.979   6.077  0.00  0.00    +0.000 N 
ATOM     12  H   UNL     1      46.819   2.892   5.764  0.00  0.00    +0.000 HD
BRANCH  11  13
ATOM     13  C   UNL     1      47.853   1.158   5.147  0.00  0.00    +0.000 C 
BRANCH  13  14
ATOM     14  C   UNL     1      46.942   0.554   4.121  0.00  0.00    +0.000 A 
ATOM     15  C   UNL     1      46.118   1.357   3.326  0.00  0.00    +0.000 A 
ATOM     16  C   UNL     1      45.305   0.770   2.362  0.00  0.00    +0.000 A 
ATOM     17  C   UNL     1      45.349  -0.606   2.218  0.00  0.00    +0.000 A 
ATOM     18  N   UNL     1      46.138  -1.416   2.959  0.00  0.00    +0.000 NA
ATOM     19  C   UNL     1      46.916  -0.815   3.889  0.00  0.00    +0.000 A 
ENDBRANCH  13  14
ENDBRANCH  11  13
ENDBRANCH   6   9
ENDBRANCH   2   3
BRANCH   2  20
ATOM     20  N   UNL     1      44.258   6.209  11.112  0.00  0.00    +0.000 NA
ATOM     21  H   UNL     1      43.624   6.981  11.309  0.00  0.00    +0.000 HD
BRANCH  20  22
ATOM     22  C   UNL     1      44.989   5.888  12.340  0.00  0.00    +0.000 C 
BRANCH  22  23
ATOM     23  C   UNL     1      46.318   6.592  12.380  0.00  0.00    +0.000 A 
ATOM     24  C   UNL     1      46.436   7.915  11.934  0.00  0.00    +0.000 A 
ATOM     25  C   UNL     1      47.662   8.574  12.012  0.00  0.00    +0.000 A 
ATOM     26  C   UNL     1      48.791   7.927  12.541  0.00  0.00    +0.000 A 
ATOM     27  C   UNL     1      48.674   6.595  12.961  0.00  0.00    +0.000 A 
ATOM     28  C   UNL     1      47.453   5.932  12.866  0.00  0.00    +0.000 A 
BRANCH  26  29
ATOM     29  C   UNL     1      50.125   8.634  12.652  0.00  0.00    +0.000 C 
BRANCH  29  30
ATOM     30  N   UNL     1      51.200   7.775  12.164  0.00  0.00    +0.000 NA
ATOM     31  H   UNL     1      50.837   7.213  11.391  0.00  0.00    +0.000 HD
BRANCH  30  32
ATOM     32  C   UNL     1      52.352   8.535  11.666  0.00  0.00    +0.000 C 
BRANCH  32  33
ATOM     33  C   UNL     1      52.580   8.301  10.181  0.00  0.00    +0.000 A 
ATOM     34  C   UNL     1      52.418   7.033   9.621  0.00  0.00    +0.000 A 
ATOM     35  C   UNL     1      52.608   6.868   8.249  0.00  0.00    +0.000 A 
ATOM     36  C   UNL     1      52.974   7.965   7.478  0.00  0.00    +0.000 A 
ATOM     37  C   UNL     1      53.129   9.184   8.112  0.00  0.00    +0.000 A 
ATOM     38  N   UNL     1      52.935   9.380   9.436  0.00  0.00    +0.000 NA
ENDBRANCH  32  33
ENDBRANCH  30  32
ENDBRANCH  29  30
ENDBRANCH  26  29
ENDBRANCH  22  23
ENDBRANCH  20  22
ENDBRANCH   2  20
TORSDOF 11
ENDMDL
MODEL 6
REMARK VINA RESULT:    -7.173      4.664     11.217
REMARK INTER + INTRA:         -13.586
REMARK INTER:                 -12.380
REMARK INTRA:                  -1.206
REMARK UNBOUND:                -1.801
REMARK  Name = 
REMARK  12 active torsions:
REMARK  status: ('A' for Active; 'I' for Inactive)
REMARK    1  A    between atoms: C_1  and  C_2
REMARK    2  A    between atoms: C_2  and  N_3
REMARK    3  A    between atoms: C_2  and  C_20
REMARK    4  A    between atoms: N_3  and  C_4
REMARK    5  A    between atoms: C_4  and  C_5
REMARK    6  A    between atoms: C_8  and  C_9
REMARK    7  A    between atoms: C_9  and  N_10
REMARK    8  A    between atoms: N_10  and  C_11
REMARK    9  A    between atoms: C_11  and  C_12
REMARK   10  A    between atoms: C_23  and  C_24
REMARK   11  A    between atoms: N_26  and  C_27
REMARK   12  A    between atoms: C_27  and  C_28
REMARK                            x       y       z     vdW  Elec       q    Type
REMARK                         _______ _______ _______ _____ _____    ______ ____
ROOT
ATOM      1  C   UNL     1      47.812   5.173  17.286  0.00  0.00    +0.000 C 
ATOM      2  C   UNL     1      47.928   3.725  16.783  0.00  0.00    +0.000 C 
ENDROOT
BRANCH   2   3
ATOM      3  C   UNL     1      49.298   3.166  17.142  0.00  0.00    +0.000 A 
ATOM      4  C   UNL     1      50.201   3.978  17.839  0.00  0.00    +0.000 A 
ATOM      5  C   UNL     1      51.485   3.510  18.162  0.00  0.00    +0.000 A 
ATOM      6  C   UNL     1      51.873   2.217  17.792  0.00  0.00    +0.000 A 
ATOM      7  C   UNL     1      50.955   1.391  17.142  0.00  0.00    +0.000 A 
ATOM      8  C   UNL     1      49.681   1.859  16.810  0.00  0.00    +0.000 A 
BRANCH   6   9
ATOM      9  C   UNL     1      53.240   1.717  18.094  0.00  0.00    +0.000 C 
ATOM     10  O   UNL     1      53.784   1.995  19.143  0.00  0.00    +0.000 OA
ATOM     11  N   UNL     1      53.846   0.940  17.108  0.00  0.00    +0.000 N 
ATOM     12  H   UNL     1      53.343   0.666  16.276  0.00  0.00    +0.000 HD
BRANCH  11  13
ATOM     13  C   UNL     1      55.156   0.372  17.317  0.00  0.00    +0.000 C 
BRANCH  13  14
ATOM     14  C   UNL     1      55.069  -1.094  17.611  0.00  0.00    +0.000 A 
ATOM     15  C   UNL     1      54.862  -1.558  18.915  0.00  0.00    +0.000 A 
ATOM     16  C   UNL     1      54.758  -2.924  19.153  0.00  0.00    +0.000 A 
ATOM     17  C   UNL     1      54.854  -3.786  18.075  0.00  0.00    +0.000 A 
ATOM     18  N   UNL     1      55.043  -3.379  16.800  0.00  0.00    +0.000 NA
ATOM     19  C   UNL     1      55.143  -2.044  16.600  0.00  0.00    +0.000 A 
ENDBRANCH  13  14
ENDBRANCH  11  13
ENDBRANCH   6   9
ENDBRANCH   2   3
BRANCH   2  20
ATOM     20  N   UNL     1      47.632   3.660  15.350  0.00  0.00    +0.000 NA
ATOM     21  H   UNL     1      46.839   3.043  15.186  0.00  0.00    +0.000 HD
BRANCH  20  22
ATOM     22  C   UNL     1      47.317   4.976  14.789  0.00  0.00    +0.000 C 
BRANCH  22  23
ATOM     23  C   UNL     1      46.336   4.862  13.655  0.00  0.00    +0.000 A 
ATOM     24  C   UNL     1      45.697   6.002  13.149  0.00  0.00    +0.000 A 
ATOM     25  C   UNL     1      44.819   5.893  12.071  0.00  0.00    +0.000 A 
ATOM     26  C   UNL     1      44.566   4.647  11.475  0.00  0.00    +0.000 A 
ATOM     27  C   UNL     1      45.187   3.506  12.002  0.00  0.00    +0.000 A 
ATOM     28  C   UNL     1      46.050   3.613  13.090  0.00  0.00    +0.000 A 
BRANCH  26  29
ATOM     29  C   UNL     1      43.631   4.514  10.292  0.00  0.00    +0.000 C 
BRANCH  29  30
ATOM     30  N   UNL     1      44.151   3.538   9.339  0.00  0.00    +0.000 NA
ATOM     31  H   UNL     1      43.369   3.176   8.789  0.00  0.00    +0.000 HD
BRANCH  30  32
ATOM     32  C   UNL     1      45.125   4.118   8.408  0.00  0.00    +0.000 C 
BRANCH  32  33
ATOM     33  C   UNL     1      45.926   3.043   7.691  0.00  0.00    +0.000 A 
ATOM     34  C   UNL     1      46.521   3.295   6.453  0.00  0.00    +0.000 A 
ATOM     35  C   UNL     1      47.272   2.291   5.844  0.00  0.00    +0.000 A 
ATOM     36  C   UNL     1      47.394   1.058   6.474  0.00  0.00    +0.000 A 
ATOM     37  C   UNL     1      46.763   0.884   7.692  0.00  0.00    +0.000 A 
ATOM     38  N   UNL     1      46.041   1.843   8.316  0.00  0.00    +0.000 NA
ENDBRANCH  32  33
ENDBRANCH  30  32
ENDBRANCH  29  30
ENDBRANCH  26  29
ENDBRANCH  22  23
ENDBRANCH  20  22
ENDBRANCH   2  20
TORSDOF 11
ENDMDL
MODEL 7
REMARK VINA RESULT:    -7.159      2.460     11.065
REMARK INTER + INTRA:         -13.564
REMARK INTER:                 -11.909
REMARK INTRA:                  -1.655
REMARK UNBOUND:                -1.801
REMARK  Name = 
REMARK  12 active torsions:
REMARK  status: ('A' for Active; 'I' for Inactive)
REMARK    1  A    between atoms: C_1  and  C_2
REMARK    2  A    between atoms: C_2  and  N_3
REMARK    3  A    between atoms: C_2  and  C_20
REMARK    4  A    between atoms: N_3  and  C_4
REMARK    5  A    between atoms: C_4  and  C_5
REMARK    6  A    between atoms: C_8  and  C_9
REMARK    7  A    between atoms: C_9  and  N_10
REMARK    8  A    between atoms: N_10  and  C_11
REMARK    9  A    between atoms: C_11  and  C_12
REMARK   10  A    between atoms: C_23  and  C_24
REMARK   11  A    between atoms: N_26  and  C_27
REMARK   12  A    between atoms: C_27  and  C_28
REMARK                            x       y       z     vdW  Elec       q    Type
REMARK                         _______ _______ _______ _____ _____    ______ ____
ROOT
ATOM      1  C   UNL     1      42.780   4.931  12.484  0.00  0.00    +0.000 C 
ATOM      2  C   UNL     1      44.052   4.276  13.046  0.00  0.00    +0.000 C 
ENDROOT
BRANCH   2   3
ATOM      3  C   UNL     1      45.215   5.253  12.954  0.00  0.00    +0.000 A 
ATOM      4  C   UNL     1      46.491   4.829  13.342  0.00  0.00    +0.000 A 
ATOM      5  C   UNL     1      47.584   5.709  13.300  0.00  0.00    +0.000 A 
ATOM      6  C   UNL     1      47.407   7.026  12.862  0.00  0.00    +0.000 A 
ATOM      7  C   UNL     1      46.144   7.434  12.428  0.00  0.00    +0.000 A 
ATOM      8  C   UNL     1      45.053   6.563  12.479  0.00  0.00    +0.000 A 
BRANCH   6   9
ATOM      9  C   UNL     1      48.544   7.983  12.844  0.00  0.00    +0.000 C 
ATOM     10  O   UNL     1      48.349   9.175  12.728  0.00  0.00    +0.000 OA
ATOM     11  N   UNL     1      49.820   7.430  12.952  0.00  0.00    +0.000 N 
ATOM     12  H   UNL     1      49.949   6.442  13.119  0.00  0.00    +0.000 HD
BRANCH  11  13
ATOM     13  C   UNL     1      50.989   8.274  12.985  0.00  0.00    +0.000 C 
BRANCH  13  14
ATOM     14  C   UNL     1      51.342   8.654  14.391  0.00  0.00    +0.000 A 
ATOM     15  C   UNL     1      51.581   9.987  14.739  0.00  0.00    +0.000 A 
ATOM     16  C   UNL     1      51.879  10.313  16.059  0.00  0.00    +0.000 A 
ATOM     17  C   UNL     1      51.919   9.292  16.992  0.00  0.00    +0.000 A 
ATOM     18  N   UNL     1      51.685   7.994  16.698  0.00  0.00    +0.000 NA
ATOM     19  C   UNL     1      51.400   7.708  15.407  0.00  0.00    +0.000 A 
ENDBRANCH  13  14
ENDBRANCH  11  13
ENDBRANCH   6   9
ENDBRANCH   2   3
BRANCH   2  20
ATOM     20  N   UNL     1      44.308   3.002  12.370  0.00  0.00    +0.000 NA
ATOM     21  H   UNL     1      44.022   2.228  12.967  0.00  0.00    +0.000 HD
BRANCH  20  22
ATOM     22  C   UNL     1      43.589   2.894  11.099  0.00  0.00    +0.000 C 
BRANCH  22  23
ATOM     23  C   UNL     1      44.530   3.006   9.931  0.00  0.00    +0.000 A 
ATOM     24  C   UNL     1      44.969   1.858   9.258  0.00  0.00    +0.000 A 
ATOM     25  C   UNL     1      45.809   1.974   8.151  0.00  0.00    +0.000 A 
ATOM     26  C   UNL     1      46.223   3.235   7.693  0.00  0.00    +0.000 A 
ATOM     27  C   UNL     1      45.803   4.378   8.387  0.00  0.00    +0.000 A 
ATOM     28  C   UNL     1      44.978   4.262   9.503  0.00  0.00    +0.000 A 
BRANCH  26  29
ATOM     29  C   UNL     1      47.119   3.379   6.482  0.00  0.00    +0.000 C 
BRANCH  29  30
ATOM     30  N   UNL     1      46.600   2.593   5.367  0.00  0.00    +0.000 NA
ATOM     31  H   UNL     1      46.540   3.198   4.546  0.00  0.00    +0.000 HD
BRANCH  30  32
ATOM     32  C   UNL     1      47.461   1.455   5.027  0.00  0.00    +0.000 C 
BRANCH  32  33
ATOM     33  C   UNL     1      46.830   0.571   3.963  0.00  0.00    +0.000 A 
ATOM     34  C   UNL     1      45.847   1.069   3.105  0.00  0.00    +0.000 A 
ATOM     35  C   UNL     1      45.316   0.233   2.123  0.00  0.00    +0.000 A 
ATOM     36  C   UNL     1      45.763  -1.081   2.036  0.00  0.00    +0.000 A 
ATOM     37  C   UNL     1      46.728  -1.500   2.933  0.00  0.00    +0.000 A 
ATOM     38  N   UNL     1      47.275  -0.710   3.885  0.00  0.00    +0.000 NA
ENDBRANCH  32  33
ENDBRANCH  30  32
ENDBRANCH  29  30
ENDBRANCH  26  29
ENDBRANCH  22  23
ENDBRANCH  20  22
ENDBRANCH   2  20
TORSDOF 11
ENDMDL
MODEL 8
REMARK VINA RESULT:    -7.057      2.724      5.927
REMARK INTER + INTRA:         -13.396
REMARK INTER:                 -10.553
REMARK INTRA:                  -2.843
REMARK UNBOUND:                -1.801
REMARK  Name = 
REMARK  12 active torsions:
REMARK  status: ('A' for Active; 'I' for Inactive)
REMARK    1  A    between atoms: C_1  and  C_2
REMARK    2  A    between atoms: C_2  and  N_3
REMARK    3  A    between atoms: C_2  and  C_20
REMARK    4  A    between atoms: N_3  and  C_4
REMARK    5  A    between atoms: C_4  and  C_5
REMARK    6  A    between atoms: C_8  and  C_9
REMARK    7  A    between atoms: C_9  and  N_10
REMARK    8  A    between atoms: N_10  and  C_11
REMARK    9  A    between atoms: C_11  and  C_12
REMARK   10  A    between atoms: C_23  and  C_24
REMARK   11  A    between atoms: N_26  and  C_27
REMARK   12  A    between atoms: C_27  and  C_28
REMARK                            x       y       z     vdW  Elec       q    Type
REMARK                         _______ _______ _______ _____ _____    ______ ____
ROOT
ATOM      1  C   UNL     1      47.556   3.345  17.339  0.00  0.00    +0.000 C 
ATOM      2  C   UNL     1      47.920   4.675  16.660  0.00  0.00    +0.000 C 
ENDROOT
BRANCH   2   3
ATOM      3  C   UNL     1      47.363   4.697  15.244  0.00  0.00    +0.000 A 
ATOM      4  C   UNL     1      47.251   5.923  14.576  0.00  0.00    +0.000 A 
ATOM      5  C   UNL     1      46.714   5.989  13.281  0.00  0.00    +0.000 A 
ATOM      6  C   UNL     1      46.288   4.821  12.639  0.00  0.00    +0.000 A 
ATOM      7  C   UNL     1      46.445   3.593  13.285  0.00  0.00    +0.000 A 
ATOM      8  C   UNL     1      46.969   3.527  14.579  0.00  0.00    +0.000 A 
BRANCH   6   9
ATOM      9  C   UNL     1      45.684   4.875  11.282  0.00  0.00    +0.000 C 
ATOM     10  O   UNL     1      45.820   5.857  10.582  0.00  0.00    +0.000 OA
ATOM     11  N   UNL     1      44.954   3.755  10.885  0.00  0.00    +0.000 N 
ATOM     12  H   UNL     1      44.917   2.925  11.458  0.00  0.00    +0.000 HD
BRANCH  11  13
ATOM     13  C   UNL     1      44.361   3.689   9.571  0.00  0.00    +0.000 C 
BRANCH  13  14
ATOM     14  C   UNL     1      45.268   2.994   8.602  0.00  0.00    +0.000 A 
ATOM     15  C   UNL     1      45.816   3.675   7.510  0.00  0.00    +0.000 A 
ATOM     16  C   UNL     1      46.677   3.010   6.643  0.00  0.00    +0.000 A 
ATOM     17  C   UNL     1      46.971   1.683   6.903  0.00  0.00    +0.000 A 
ATOM     18  N   UNL     1      46.471   0.992   7.951  0.00  0.00    +0.000 NA
ATOM     19  C   UNL     1      45.635   1.665   8.775  0.00  0.00    +0.000 A 
ENDBRANCH  13  14
ENDBRANCH  11  13
ENDBRANCH   6   9
ENDBRANCH   2   3
BRANCH   2  20
ATOM     20  N   UNL     1      49.367   4.897  16.719  0.00  0.00    +0.000 NA
ATOM     21  H   UNL     1      49.732   5.061  15.783  0.00  0.00    +0.000 HD
BRANCH  20  22
ATOM     22  C   UNL     1      49.718   6.044  17.559  0.00  0.00    +0.000 C 
BRANCH  22  23
ATOM     23  C   UNL     1      49.579   7.336  16.800  0.00  0.00    +0.000 A 
ATOM     24  C   UNL     1      48.579   8.256  17.140  0.00  0.00    +0.000 A 
ATOM     25  C   UNL     1      48.482   9.468  16.458  0.00  0.00    +0.000 A 
ATOM     26  C   UNL     1      49.384   9.787  15.430  0.00  0.00    +0.000 A 
ATOM     27  C   UNL     1      50.365   8.852  15.077  0.00  0.00    +0.000 A 
ATOM     28  C   UNL     1      50.451   7.633  15.746  0.00  0.00    +0.000 A 
BRANCH  26  29
ATOM     29  C   UNL     1      49.305  11.107  14.694  0.00  0.00    +0.000 C 
BRANCH  29  30
ATOM     30  N   UNL     1      48.176  11.108  13.768  0.00  0.00    +0.000 NA
ATOM     31  H   UNL     1      47.589  11.919  13.977  0.00  0.00    +0.000 HD
BRANCH  30  32
ATOM     32  C   UNL     1      48.594  11.205  12.365  0.00  0.00    +0.000 C 
BRANCH  32  33
ATOM     33  C   UNL     1      49.339   9.959  11.913  0.00  0.00    +0.000 A 
ATOM     34  C   UNL     1      48.697   8.722  11.848  0.00  0.00    +0.000 A 
ATOM     35  C   UNL     1      49.409   7.610  11.399  0.00  0.00    +0.000 A 
ATOM     36  C   UNL     1      50.746   7.757  11.048  0.00  0.00    +0.000 A 
ATOM     37  C   UNL     1      51.313   9.014  11.156  0.00  0.00    +0.000 A 
ATOM     38  N   UNL     1      50.645  10.115  11.571  0.00  0.00    +0.000 NA
ENDBRANCH  32  33
ENDBRANCH  30  32
ENDBRANCH  29  30
ENDBRANCH  26  29
ENDBRANCH  22  23
ENDBRANCH  20  22
ENDBRANCH   2  20
TORSDOF 11
ENDMDL
MODEL 9
REMARK VINA RESULT:    -6.898      3.348      6.944
REMARK INTER + INTRA:         -13.135
REMARK INTER:                 -10.172
REMARK INTRA:                  -2.963
REMARK UNBOUND:                -1.801
REMARK  Name = 
REMARK  12 active torsions:
REMARK  status: ('A' for Active; 'I' for Inactive)
REMARK    1  A    between atoms: C_1  and  C_2
REMARK    2  A    between atoms: C_2  and  N_3
REMARK    3  A    between atoms: C_2  and  C_20
REMARK    4  A    between atoms: N_3  and  C_4
REMARK    5  A    between atoms: C_4  and  C_5
REMARK    6  A    between atoms: C_8  and  C_9
REMARK    7  A    between atoms: C_9  and  N_10
REMARK    8  A    between atoms: N_10  and  C_11
REMARK    9  A    between atoms: C_11  and  C_12
REMARK   10  A    between atoms: C_23  and  C_24
REMARK   11  A    between atoms: N_26  and  C_27
REMARK   12  A    between atoms: C_27  and  C_28
REMARK                            x       y       z     vdW  Elec       q    Type
REMARK                         _______ _______ _______ _____ _____    ______ ____
ROOT
ATOM      1  C   UNL     1      52.116   8.518  13.590  0.00  0.00    +0.000 C 
ATOM      2  C   UNL     1      51.124   8.408  14.758  0.00  0.00    +0.000 C 
ENDROOT
BRANCH   2   3
ATOM      3  C   UNL     1      49.910   7.599  14.325  0.00  0.00    +0.000 A 
ATOM      4  C   UNL     1      49.204   6.865  15.287  0.00  0.00    +0.000 A 
ATOM      5  C   UNL     1      48.098   6.081  14.923  0.00  0.00    +0.000 A 
ATOM      6  C   UNL     1      47.684   6.031  13.586  0.00  0.00    +0.000 A 
ATOM      7  C   UNL     1      48.358   6.801  12.637  0.00  0.00    +0.000 A 
ATOM      8  C   UNL     1      49.466   7.573  12.995  0.00  0.00    +0.000 A 
BRANCH   6   9
ATOM      9  C   UNL     1      46.538   5.180  13.176  0.00  0.00    +0.000 C 
ATOM     10  O   UNL     1      46.240   4.190  13.814  0.00  0.00    +0.000 OA
ATOM     11  N   UNL     1      45.854   5.575  12.027  0.00  0.00    +0.000 N 
ATOM     12  H   UNL     1      46.078   6.439  11.557  0.00  0.00    +0.000 HD
BRANCH  11  13
ATOM     13  C   UNL     1      44.702   4.840  11.564  0.00  0.00    +0.000 C 
BRANCH  13  14
ATOM     14  C   UNL     1      44.979   4.167  10.254  0.00  0.00    +0.000 A 
ATOM     15  C   UNL     1      44.704   2.809  10.067  0.00  0.00    +0.000 A 
ATOM     16  C   UNL     1      44.946   2.219   8.831  0.00  0.00    +0.000 A 
ATOM     17  C   UNL     1      45.448   3.013   7.814  0.00  0.00    +0.000 A 
ATOM     18  N   UNL     1      45.717   4.330   7.950  0.00  0.00    +0.000 NA
ATOM     19  C   UNL     1      45.474   4.874   9.165  0.00  0.00    +0.000 A 
ENDBRANCH  13  14
ENDBRANCH  11  13
ENDBRANCH   6   9
ENDBRANCH   2   3
BRANCH   2  20
ATOM     20  N   UNL     1      50.783   9.741  15.262  0.00  0.00    +0.000 NA
ATOM     21  H   UNL     1      49.774   9.871  15.249  0.00  0.00    +0.000 HD
BRANCH  20  22
ATOM     22  C   UNL     1      51.259   9.955  16.630  0.00  0.00    +0.000 C 
BRANCH  22  23
ATOM     23  C   UNL     1      50.316   9.349  17.634  0.00  0.00    +0.000 A 
ATOM     24  C   UNL     1      48.949   9.655  17.600  0.00  0.00    +0.000 A 
ATOM     25  C   UNL     1      48.076   9.057  18.509  0.00  0.00    +0.000 A 
ATOM     26  C   UNL     1      48.549   8.142  19.463  0.00  0.00    +0.000 A 
ATOM     27  C   UNL     1      49.921   7.861  19.509  0.00  0.00    +0.000 A 
ATOM     28  C   UNL     1      50.796   8.471  18.613  0.00  0.00    +0.000 A 
BRANCH  26  29
ATOM     29  C   UNL     1      47.611   7.470  20.443  0.00  0.00    +0.000 C 
BRANCH  29  30
ATOM     30  N   UNL     1      47.562   6.032  20.197  0.00  0.00    +0.000 NA
ATOM     31  H   UNL     1      46.995   5.599  20.929  0.00  0.00    +0.000 HD
BRANCH  30  32
ATOM     32  C   UNL     1      46.958   5.698  18.903  0.00  0.00    +0.000 C 
BRANCH  32  33
ATOM     33  C   UNL     1      47.739   4.611  18.181  0.00  0.00    +0.000 A 
ATOM     34  C   UNL     1      49.130   4.540  18.279  0.00  0.00    +0.000 A 
ATOM     35  C   UNL     1      49.804   3.509  17.626  0.00  0.00    +0.000 A 
ATOM     36  C   UNL     1      49.078   2.590  16.878  0.00  0.00    +0.000 A 
ATOM     37  C   UNL     1      47.705   2.739  16.819  0.00  0.00    +0.000 A 
ATOM     38  N   UNL     1      47.019   3.717  17.454  0.00  0.00    +0.000 NA
ENDBRANCH  32  33
ENDBRANCH  30  32
ENDBRANCH  29  30
ENDBRANCH  26  29
ENDBRANCH  22  23
ENDBRANCH  20  22
ENDBRANCH   2  20
TORSDOF 11
ENDMDL
