MODEL 1
REMARK VINA RESULT:    -7.598      0.000      0.000
REMARK INTER + INTRA:         -10.729
REMARK INTER:                 -10.263
REMARK INTRA:                  -0.466
REMARK UNBOUND:                -0.466
REMARK  Name = 
REMARK  7 active torsions:
REMARK  status: ('A' for Active; 'I' for Inactive)
REMARK    1  A    between atoms: C_1  and  S_2
REMARK    2  A    between atoms: S_2  and  C_5
REMARK    3  A    between atoms: C_7  and  C_8
REMARK    4  A    between atoms: C_13  and  O_14
REMARK    5  A    between atoms: O_14  and  C_15
REMARK    6  A    between atoms: C_15  and  C_16
REMARK    7  A    between atoms: C_20  and  C_21
REMARK                            x       y       z     vdW  Elec       q    Type
REMARK                         _______ _______ _______ _____ _____    ______ ____
ROOT
ATOM      1  C   UNL     1      47.995   5.035  17.177  0.00  0.00    +0.000 A 
ATOM      2  C   UNL     1      47.604   5.231  18.527  0.00  0.00    +0.000 A 
ATOM      3  C   UNL     1      47.792   6.454  19.169  0.00  0.00    +0.000 A 
ATOM      4  C   UNL     1      48.351   7.503  18.464  0.00  0.00    +0.000 A 
ATOM      5  C   UNL     1      48.713   7.321  17.134  0.00  0.00    +0.000 A 
ATOM      6  C   UNL     1      48.562   6.086  16.451  0.00  0.00    +0.000 A 
ENDROOT
BRANCH   3   7
ATOM      7  C   UNL     1      47.456   6.692  20.590  0.00  0.00    +0.000 C 
ATOM      8  N   UNL     1      47.096   5.610  21.336  0.00  0.00    +0.000 N 
ATOM      9  O   UNL     1      47.461   7.820  21.066  0.00  0.00    +0.000 OA
ATOM     10  H   UNL     1      46.845   4.722  20.924  0.00  0.00    +0.000 HD
ATOM     11  H   UNL     1      46.767   5.808  22.272  0.00  0.00    +0.000 HD
ENDBRANCH   3   7
BRANCH   1  13
ATOM     12  C   UNL     1      49.054   2.313  16.759  0.00  0.00    +0.000 C 
ATOM     13  S   UNL     1      47.679   3.385  16.613  0.00  0.00    +0.000 S 
ATOM     14  O   UNL     1      47.395   3.521  15.190  0.00  0.00    +0.000 OA
ATOM     15  O   UNL     1      46.645   2.859  17.496  0.00  0.00    +0.000 OA
ENDBRANCH   1  13
BRANCH   6  16
ATOM     16  O   UNL     1      48.975   5.936  15.135  0.00  0.00    +0.000 OA
BRANCH  16  17
ATOM     17  C   UNL     1      48.664   7.101  14.345  0.00  0.00    +0.000 C 
BRANCH  17  18
ATOM     18  C   UNL     1      47.405   7.180  13.531  0.00  0.00    +0.000 A 
ATOM     19  C   UNL     1      46.699   8.339  13.258  0.00  0.00    +0.000 A 
ATOM     20  C   UNL     1      45.534   8.257  12.496  0.00  0.00    +0.000 A 
ATOM     21  C   UNL     1      45.107   7.033  11.956  0.00  0.00    +0.000 A 
ATOM     22  C   UNL     1      45.857   5.868  12.128  0.00  0.00    +0.000 A 
ATOM     23  C   UNL     1      46.955   5.952  12.990  0.00  0.00    +0.000 A 
BRANCH  22  24
ATOM     24  C   UNL     1      45.609   4.555  11.381  0.00  0.00    +0.000 C 
ATOM     25  C   UNL     1      44.585   4.750  10.234  0.00  0.00    +0.000 C 
ATOM     26  C   UNL     1      43.186   5.015  10.795  0.00  0.00    +0.000 C 
ATOM     27  N   UNL     1      42.716   3.901  11.613  0.00  0.00    +0.000 NA
ATOM     28  C   UNL     1      43.643   3.568  12.691  0.00  0.00    +0.000 C 
ATOM     29  C   UNL     1      45.092   3.371  12.220  0.00  0.00    +0.000 C 
ATOM     30  H   UNL     1      42.585   3.089  11.017  0.00  0.00    +0.000 HD
ENDBRANCH  22  24
ENDBRANCH  17  18
ENDBRANCH  16  17
ENDBRANCH   6  16
TORSDOF 6
ENDMDL
MODEL 2
REMARK VINA RESULT:    -7.391      2.637      4.141
REMARK INTER + INTRA:         -10.449
REMARK INTER:                 -10.077
REMARK INTRA:                  -0.371
REMARK UNBOUND:                -0.466
REMARK  Name = 
REMARK  7 active torsions:
REMARK  status: ('A' for Active; 'I' for Inactive)
REMARK    1  A    between atoms: C_1  and  S_2
REMARK    2  A    between atoms: S_2  and  C_5
REMARK    3  A    between atoms: C_7  and  C_8
REMARK    4  A    between atoms: C_13  and  O_14
REMARK    5  A    between atoms: O_14  and  C_15
REMARK    6  A    between atoms: C_15  and  C_16
REMARK    7  A    between atoms: C_20  and  C_21
REMARK                            x       y       z     vdW  Elec       q    Type
REMARK                         _______ _______ _______ _____ _____    ______ ____
ROOT
ATOM      1  C   UNL     1      49.613   4.677  17.247  0.00  0.00    +0.000 A 
ATOM      2  C   UNL     1      50.757   3.914  17.598  0.00  0.00    +0.000 A 
ATOM      3  C   UNL     1      50.804   2.536  17.391  0.00  0.00    +0.000 A 
ATOM      4  C   UNL     1      49.718   1.907  16.810  0.00  0.00    +0.000 A 
ATOM      5  C   UNL     1      48.606   2.656  16.444  0.00  0.00    +0.000 A 
ATOM      6  C   UNL     1      48.507   4.056  16.660  0.00  0.00    +0.000 A 
ENDROOT
BRANCH   3   7
ATOM      7  C   UNL     1      51.948   1.687  17.792  0.00  0.00    +0.000 C 
ATOM      8  N   UNL     1      51.691   0.372  18.042  0.00  0.00    +0.000 N 
ATOM      9  O   UNL     1      53.070   2.155  17.934  0.00  0.00    +0.000 OA
ATOM     10  H   UNL     1      50.756   0.014  18.175  0.00  0.00    +0.000 HD
ATOM     11  H   UNL     1      52.462  -0.165  18.417  0.00  0.00    +0.000 HD
ENDBRANCH   3   7
BRANCH   1  13
ATOM     12  C   UNL     1      49.465   7.470  16.306  0.00  0.00    +0.000 C 
ATOM     13  S   UNL     1      49.796   6.394  17.645  0.00  0.00    +0.000 S 
ATOM     14  O   UNL     1      51.206   6.554  17.980  0.00  0.00    +0.000 OA
ATOM     15  O   UNL     1      48.789   6.672  18.662  0.00  0.00    +0.000 OA
ENDBRANCH   1  13
BRANCH   6  16
ATOM     16  O   UNL     1      47.361   4.757  16.317  0.00  0.00    +0.000 OA
BRANCH  16  17
ATOM     17  C   UNL     1      46.756   4.233  15.118  0.00  0.00    +0.000 C 
BRANCH  17  18
ATOM     18  C   UNL     1      46.665   5.055  13.865  0.00  0.00    +0.000 A 
ATOM     19  C   UNL     1      47.690   5.816  13.330  0.00  0.00    +0.000 A 
ATOM     20  C   UNL     1      47.454   6.541  12.162  0.00  0.00    +0.000 A 
ATOM     21  C   UNL     1      46.221   6.458  11.496  0.00  0.00    +0.000 A 
ATOM     22  C   UNL     1      45.207   5.616  11.955  0.00  0.00    +0.000 A 
ATOM     23  C   UNL     1      45.424   4.991  13.188  0.00  0.00    +0.000 A 
BRANCH  22  24
ATOM     24  C   UNL     1      43.938   5.273  11.171  0.00  0.00    +0.000 C 
ATOM     25  C   UNL     1      42.975   4.404  12.019  0.00  0.00    +0.000 C 
ATOM     26  C   UNL     1      43.553   3.003  12.232  0.00  0.00    +0.000 C 
ATOM     27  N   UNL     1      43.761   2.310  10.965  0.00  0.00    +0.000 NA
ATOM     28  C   UNL     1      44.597   3.072  10.042  0.00  0.00    +0.000 C 
ATOM     29  C   UNL     1      44.132   4.522   9.841  0.00  0.00    +0.000 C 
ATOM     30  H   UNL     1      42.858   2.133  10.536  0.00  0.00    +0.000 HD
ENDBRANCH  22  24
ENDBRANCH  17  18
ENDBRANCH  16  17
ENDBRANCH   6  16
TORSDOF 6
ENDMDL
MODEL 3
REMARK VINA RESULT:    -7.036      4.490      8.377
REMARK INTER + INTRA:          -9.969
REMARK INTER:                  -9.282
REMARK INTRA:                  -0.687
REMARK UNBOUND:                -0.466
REMARK  Name = 
REMARK  7 active torsions:
REMARK  status: ('A' for Active; 'I' for Inactive)
REMARK    1  A    between atoms: C_1  and  S_2
REMARK    2  A    between atoms: S_2  and  C_5
REMARK    3  A    between atoms: C_7  and  C_8
REMARK    4  A    between atoms: C_13  and  O_14
REMARK    5  A    between atoms: O_14  and  C_15
REMARK    6  A    between atoms: C_15  and  C_16
REMARK    7  A    between atoms: C_20  and  C_21
REMARK                            x       y       z     vdW  Elec       q    Type
REMARK                         _______ _______ _______ _____ _____    ______ ____
ROOT
ATOM      1  C   UNL     1      44.776   3.592  10.431  0.00  0.00    +0.000 A 
ATOM      2  C   UNL     1      45.261   2.468   9.715  0.00  0.00    +0.000 A 
ATOM      3  C   UNL     1      45.956   2.613   8.516  0.00  0.00    +0.000 A 
ATOM      4  C   UNL     1      46.196   3.885   8.029  0.00  0.00    +0.000 A 
ATOM      5  C   UNL     1      45.742   4.989   8.741  0.00  0.00    +0.000 A 
ATOM      6  C   UNL     1      45.008   4.884   9.952  0.00  0.00    +0.000 A 
ENDROOT
BRANCH   3   7
ATOM      7  C   UNL     1      46.433   1.473   7.702  0.00  0.00    +0.000 C 
ATOM      8  N   UNL     1      46.974   1.759   6.484  0.00  0.00    +0.000 N 
ATOM      9  O   UNL     1      46.307   0.318   8.088  0.00  0.00    +0.000 OA
ATOM     10  H   UNL     1      46.868   2.658   6.037  0.00  0.00    +0.000 HD
ATOM     11  H   UNL     1      47.194   0.962   5.900  0.00  0.00    +0.000 HD
ENDBRANCH   3   7
BRANCH   1  13
ATOM     12  C   UNL     1      42.967   4.434  12.606  0.00  0.00    +0.000 C 
ATOM     13  S   UNL     1      43.898   3.132  11.900  0.00  0.00    +0.000 S 
ATOM     14  O   UNL     1      44.934   2.780  12.864  0.00  0.00    +0.000 OA
ATOM     15  O   UNL     1      42.941   2.113  11.484  0.00  0.00    +0.000 OA
ENDBRANCH   1  13
BRANCH   6  16
ATOM     16  O   UNL     1      44.538   6.012  10.608  0.00  0.00    +0.000 OA
BRANCH  16  17
ATOM     17  C   UNL     1      45.602   6.941  10.896  0.00  0.00    +0.000 C 
BRANCH  17  18
ATOM     18  C   UNL     1      46.565   6.702  12.023  0.00  0.00    +0.000 A 
ATOM     19  C   UNL     1      46.340   5.868  13.105  0.00  0.00    +0.000 A 
ATOM     20  C   UNL     1      47.325   5.755  14.086  0.00  0.00    +0.000 A 
ATOM     21  C   UNL     1      48.554   6.421  13.958  0.00  0.00    +0.000 A 
ATOM     22  C   UNL     1      48.847   7.183  12.826  0.00  0.00    +0.000 A 
ATOM     23  C   UNL     1      47.804   7.376  11.914  0.00  0.00    +0.000 A 
BRANCH  22  24
ATOM     24  C   UNL     1      50.233   7.737  12.484  0.00  0.00    +0.000 C 
ATOM     25  C   UNL     1      50.868   8.448  13.706  0.00  0.00    +0.000 C 
ATOM     26  C   UNL     1      50.124   9.747  14.025  0.00  0.00    +0.000 C 
ATOM     27  N   UNL     1      50.173  10.682  12.905  0.00  0.00    +0.000 NA
ATOM     28  C   UNL     1      49.669  10.097  11.666  0.00  0.00    +0.000 C 
ATOM     29  C   UNL     1      50.305   8.742  11.319  0.00  0.00    +0.000 C 
ATOM     30  H   UNL     1      51.133  10.983  12.771  0.00  0.00    +0.000 HD
ENDBRANCH  22  24
ENDBRANCH  17  18
ENDBRANCH  16  17
ENDBRANCH   6  16
TORSDOF 6
ENDMDL
MODEL 4
REMARK VINA RESULT:    -6.852      3.240      7.350
REMARK INTER + INTRA:          -9.721
REMARK INTER:                  -8.706
REMARK INTRA:                  -1.016
REMARK UNBOUND:                -0.466
REMARK  Name = 
REMARK  7 active torsions:
REMARK  status: ('A' for Active; 'I' for Inactive)
REMARK    1  A    between atoms: C_1  and  S_2
REMARK    2  A    between atoms: S_2  and  C_5
REMARK    3  A    between atoms: C_7  and  C_8
REMARK    4  A    between atoms: C_13  and  O_14
REMARK    5  A    between atoms: O_14  and  C_15
REMARK    6  A    between atoms: C_15  and  C_16
REMARK    7  A    between atoms: C_20  and  C_21
REMARK                            x       y       z     vdW  Elec       q    Type
REMARK                         _______ _______ _______ _____ _____    ______ ____
ROOT
ATOM      1  C   UNL     1      45.576   5.788  12.652  0.00  0.00    +0.000 A 
ATOM      2  C   UNL     1      45.181   7.092  12.255  0.00  0.00    +0.000 A 
ATOM      3  C   UNL     1      45.946   8.213  12.574  0.00  0.00    +0.000 A 
ATOM      4  C   UNL     1      47.127   8.043  13.273  0.00  0.00    +0.000 A 
ATOM      5  C   UNL     1      47.528   6.764  13.643  0.00  0.00    +0.000 A 
ATOM      6  C   UNL     1      46.766   5.600  13.360  0.00  0.00    +0.000 A 
ENDROOT
BRANCH   3   7
ATOM      7  C   UNL     1      45.550   9.598  12.234  0.00  0.00    +0.000 C 
ATOM      8  N   UNL     1      44.286   9.983  12.564  0.00  0.00    +0.000 N 
ATOM      9  O   UNL     1      46.312  10.351  11.643  0.00  0.00    +0.000 OA
ATOM     10  H   UNL     1      43.563   9.326  12.821  0.00  0.00    +0.000 HD
ATOM     11  H   UNL     1      43.999  10.894  12.228  0.00  0.00    +0.000 HD
ENDBRANCH   3   7
BRANCH   1  13
ATOM     12  C   UNL     1      43.012   5.184  11.323  0.00  0.00    +0.000 C 
ATOM     13  S   UNL     1      44.413   4.547  12.153  0.00  0.00    +0.000 S 
ATOM     14  O   UNL     1      43.937   3.955  13.398  0.00  0.00    +0.000 OA
ATOM     15  O   UNL     1      45.121   3.708  11.194  0.00  0.00    +0.000 OA
ENDBRANCH   1  13
BRANCH   6  16
ATOM     16  O   UNL     1      47.183   4.347  13.785  0.00  0.00    +0.000 OA
BRANCH  16  17
ATOM     17  C   UNL     1      46.899   4.138  15.183  0.00  0.00    +0.000 C 
BRANCH  17  18
ATOM     18  C   UNL     1      48.000   3.930  16.182  0.00  0.00    +0.000 A 
ATOM     19  C   UNL     1      48.507   2.702  16.571  0.00  0.00    +0.000 A 
ATOM     20  C   UNL     1      49.526   2.663  17.523  0.00  0.00    +0.000 A 
ATOM     21  C   UNL     1      50.078   3.846  18.040  0.00  0.00    +0.000 A 
ATOM     22  C   UNL     1      49.658   5.098  17.587  0.00  0.00    +0.000 A 
ATOM     23  C   UNL     1      48.559   5.113  16.721  0.00  0.00    +0.000 A 
BRANCH  22  24
ATOM     24  C   UNL     1      50.363   6.419  17.903  0.00  0.00    +0.000 C 
ATOM     25  C   UNL     1      50.055   7.488  16.824  0.00  0.00    +0.000 C 
ATOM     26  C   UNL     1      50.726   7.129  15.496  0.00  0.00    +0.000 C 
ATOM     27  N   UNL     1      52.178   7.055  15.632  0.00  0.00    +0.000 NA
ATOM     28  C   UNL     1      52.595   6.129  16.682  0.00  0.00    +0.000 C 
ATOM     29  C   UNL     1      51.897   6.369  18.029  0.00  0.00    +0.000 C 
ATOM     30  H   UNL     1      52.536   7.983  15.838  0.00  0.00    +0.000 HD
ENDBRANCH  22  24
ENDBRANCH  17  18
ENDBRANCH  16  17
ENDBRANCH   6  16
TORSDOF 6
ENDMDL
MODEL 5
REMARK VINA RESULT:    -6.785      1.656      2.729
REMARK INTER + INTRA:          -9.630
REMARK INTER:                  -9.149
REMARK INTRA:                  -0.481
REMARK UNBOUND:                -0.466
REMARK  Name = 
REMARK  7 active torsions:
REMARK  status: ('A' for Active; 'I' for Inactive)
REMARK    1  A    between atoms: C_1  and  S_2
REMARK    2  A    between atoms: S_2  and  C_5
REMARK    3  A    between atoms: C_7  and  C_8
REMARK    4  A    between atoms: C_13  and  O_14
REMARK    5  A    between atoms: O_14  and  C_15
REMARK    6  A    between atoms: C_15  and  C_16
REMARK    7  A    between atoms: C_20  and  C_21
REMARK                            x       y       z     vdW  Elec       q    Type
REMARK                         _______ _______ _______ _____ _____    ______ ____
ROOT
ATOM      1  C   UNL     1      49.195   5.900  17.528  0.00  0.00    +0.000 A 
ATOM      2  C   UNL     1      49.023   6.584  18.760  0.00  0.00    +0.000 A 
ATOM      3  C   UNL     1      47.854   6.452  19.508  0.00  0.00    +0.000 A 
ATOM      4  C   UNL     1      46.853   5.617  19.048  0.00  0.00    +0.000 A 
ATOM      5  C   UNL     1      47.029   4.927  17.853  0.00  0.00    +0.000 A 
ATOM      6  C   UNL     1      48.191   5.054  17.049  0.00  0.00    +0.000 A 
ENDROOT
BRANCH   3   7
ATOM      7  C   UNL     1      47.601   7.186  20.768  0.00  0.00    +0.000 C 
ATOM      8  N   UNL     1      47.562   6.456  21.918  0.00  0.00    +0.000 N 
ATOM      9  O   UNL     1      47.395   8.393  20.772  0.00  0.00    +0.000 OA
ATOM     10  H   UNL     1      47.481   5.449  21.924  0.00  0.00    +0.000 HD
ATOM     11  H   UNL     1      47.282   6.958  22.751  0.00  0.00    +0.000 HD
ENDBRANCH   3   7
BRANCH   1  13
ATOM     12  C   UNL     1      51.646   7.543  17.555  0.00  0.00    +0.000 C 
ATOM     13  S   UNL     1      50.750   6.267  16.762  0.00  0.00    +0.000 S 
ATOM     14  O   UNL     1      50.408   6.753  15.430  0.00  0.00    +0.000 OA
ATOM     15  O   UNL     1      51.548   5.054  16.891  0.00  0.00    +0.000 OA
ENDBRANCH   1  13
BRANCH   6  16
ATOM     16  O   UNL     1      48.308   4.379  15.843  0.00  0.00    +0.000 OA
BRANCH  16  17
ATOM     17  C   UNL     1      47.051   4.330  15.138  0.00  0.00    +0.000 C 
BRANCH  17  18
ATOM     18  C   UNL     1      46.820   5.141  13.895  0.00  0.00    +0.000 A 
ATOM     19  C   UNL     1      47.787   5.867  13.221  0.00  0.00    +0.000 A 
ATOM     20  C   UNL     1      47.421   6.585  12.083  0.00  0.00    +0.000 A 
ATOM     21  C   UNL     1      46.110   6.530  11.583  0.00  0.00    +0.000 A 
ATOM     22  C   UNL     1      45.142   5.723  12.183  0.00  0.00    +0.000 A 
ATOM     23  C   UNL     1      45.500   5.105  13.386  0.00  0.00    +0.000 A 
BRANCH  22  24
ATOM     24  C   UNL     1      43.773   5.407  11.574  0.00  0.00    +0.000 C 
ATOM     25  C   UNL     1      42.990   4.400  12.453  0.00  0.00    +0.000 C 
ATOM     26  C   UNL     1      43.639   3.015  12.401  0.00  0.00    +0.000 C 
ATOM     27  N   UNL     1      43.658   2.482  11.042  0.00  0.00    +0.000 NA
ATOM     28  C   UNL     1      44.308   3.385  10.097  0.00  0.00    +0.000 C 
ATOM     29  C   UNL     1      43.770   4.824  10.149  0.00  0.00    +0.000 C 
ATOM     30  H   UNL     1      42.703   2.310  10.744  0.00  0.00    +0.000 HD
ENDBRANCH  22  24
ENDBRANCH  17  18
ENDBRANCH  16  17
ENDBRANCH   6  16
TORSDOF 6
ENDMDL
MODEL 6
REMARK VINA RESULT:    -6.765      2.743      7.439
REMARK INTER + INTRA:          -9.603
REMARK INTER:                  -8.592
REMARK INTRA:                  -1.011
REMARK UNBOUND:                -0.466
REMARK  Name = 
REMARK  7 active torsions:
REMARK  status: ('A' for Active; 'I' for Inactive)
REMARK    1  A    between atoms: C_1  and  S_2
REMARK    2  A    between atoms: S_2  and  C_5
REMARK    3  A    between atoms: C_7  and  C_8
REMARK    4  A    between atoms: C_13  and  O_14
REMARK    5  A    between atoms: O_14  and  C_15
REMARK    6  A    between atoms: C_15  and  C_16
REMARK    7  A    between atoms: C_20  and  C_21
REMARK                            x       y       z     vdW  Elec       q    Type
REMARK                         _______ _______ _______ _____ _____    ______ ____
ROOT
ATOM      1  C   UNL     1      45.609   5.730  12.659  0.00  0.00    +0.000 A 
ATOM      2  C   UNL     1      45.217   7.039  12.276  0.00  0.00    +0.000 A 
ATOM      3  C   UNL     1      45.982   8.155  12.613  0.00  0.00    +0.000 A 
ATOM      4  C   UNL     1      47.160   7.975  13.314  0.00  0.00    +0.000 A 
ATOM      5  C   UNL     1      47.558   6.691  13.670  0.00  0.00    +0.000 A 
ATOM      6  C   UNL     1      46.796   5.532  13.369  0.00  0.00    +0.000 A 
ENDROOT
BRANCH   3   7
ATOM      7  C   UNL     1      45.589   9.544  12.289  0.00  0.00    +0.000 C 
ATOM      8  N   UNL     1      44.303   9.908  12.560  0.00  0.00    +0.000 N 
ATOM      9  O   UNL     1      46.372  10.321  11.760  0.00  0.00    +0.000 OA
ATOM     10  H   UNL     1      43.576   9.236  12.760  0.00  0.00    +0.000 HD
ATOM     11  H   UNL     1      44.025  10.824  12.234  0.00  0.00    +0.000 HD
ENDBRANCH   3   7
BRANCH   1  13
ATOM     12  C   UNL     1      43.032   5.147  11.346  0.00  0.00    +0.000 C 
ATOM     13  S   UNL     1      44.447   4.496  12.140  0.00  0.00    +0.000 S 
ATOM     14  O   UNL     1      43.991   3.866  13.373  0.00  0.00    +0.000 OA
ATOM     15  O   UNL     1      45.148   3.689  11.148  0.00  0.00    +0.000 OA
ENDBRANCH   1  13
BRANCH   6  16
ATOM     16  O   UNL     1      47.210   4.273  13.780  0.00  0.00    +0.000 OA
BRANCH  16  17
ATOM     17  C   UNL     1      46.871   4.025  15.159  0.00  0.00    +0.000 C 
BRANCH  17  18
ATOM     18  C   UNL     1      47.932   3.891  16.213  0.00  0.00    +0.000 A 
ATOM     19  C   UNL     1      48.521   2.702  16.609  0.00  0.00    +0.000 A 
ATOM     20  C   UNL     1      49.487   2.730  17.615  0.00  0.00    +0.000 A 
ATOM     21  C   UNL     1      49.909   3.945  18.179  0.00  0.00    +0.000 A 
ATOM     22  C   UNL     1      49.408   5.165  17.723  0.00  0.00    +0.000 A 
ATOM     23  C   UNL     1      48.360   5.105  16.800  0.00  0.00    +0.000 A 
BRANCH  22  24
ATOM     24  C   UNL     1      49.981   6.535  18.097  0.00  0.00    +0.000 C 
ATOM     25  C   UNL     1      50.367   6.589  19.596  0.00  0.00    +0.000 C 
ATOM     26  C   UNL     1      49.119   6.562  20.481  0.00  0.00    +0.000 C 
ATOM     27  N   UNL     1      48.249   7.704  20.215  0.00  0.00    +0.000 NA
ATOM     28  C   UNL     1      47.875   7.808  18.808  0.00  0.00    +0.000 C 
ATOM     29  C   UNL     1      49.072   7.753  17.846  0.00  0.00    +0.000 C 
ATOM     30  H   UNL     1      48.727   8.554  20.501  0.00  0.00    +0.000 HD
ENDBRANCH  22  24
ENDBRANCH  17  18
ENDBRANCH  16  17
ENDBRANCH   6  16
TORSDOF 6
ENDMDL
MODEL 7
REMARK VINA RESULT:    -6.489      4.085      6.152
REMARK INTER + INTRA:          -9.230
REMARK INTER:                  -8.781
REMARK INTRA:                  -0.450
REMARK UNBOUND:                -0.466
REMARK  Name = 
REMARK  7 active torsions:
REMARK  status: ('A' for Active; 'I' for Inactive)
REMARK    1  A    between atoms: C_1  and  S_2
REMARK    2  A    between atoms: S_2  and  C_5
REMARK    3  A    between atoms: C_7  and  C_8
REMARK    4  A    between atoms: C_13  and  O_14
REMARK    5  A    between atoms: O_14  and  C_15
REMARK    6  A    between atoms: C_15  and  C_16
REMARK    7  A    between atoms: C_20  and  C_21
REMARK                            x       y       z     vdW  Elec       q    Type
REMARK                         _______ _______ _______ _____ _____    ______ ____
ROOT
ATOM      1  C   UNL     1      45.288   4.922  12.628  0.00  0.00    +0.000 A 
ATOM      2  C   UNL     1      45.808   4.267  13.774  0.00  0.00    +0.000 A 
ATOM      3  C   UNL     1      46.923   4.758  14.450  0.00  0.00    +0.000 A 
ATOM      4  C   UNL     1      47.519   5.923  14.003  0.00  0.00    +0.000 A 
ATOM      5  C   UNL     1      46.997   6.580  12.895  0.00  0.00    +0.000 A 
ATOM      6  C   UNL     1      45.880   6.100  12.163  0.00  0.00    +0.000 A 
ENDROOT
BRANCH   3   7
ATOM      7  C   UNL     1      47.539   4.081  15.613  0.00  0.00    +0.000 C 
ATOM      8  N   UNL     1      47.512   4.743  16.804  0.00  0.00    +0.000 N 
ATOM      9  O   UNL     1      48.086   2.993  15.501  0.00  0.00    +0.000 OA
ATOM     10  H   UNL     1      47.296   5.727  16.879  0.00  0.00    +0.000 HD
ATOM     11  H   UNL     1      48.031   4.314  17.560  0.00  0.00    +0.000 HD
ENDBRANCH   3   7
BRANCH   1  13
ATOM     12  C   UNL     1      44.008   3.807  10.213  0.00  0.00    +0.000 C 
ATOM     13  S   UNL     1      43.892   4.075  11.938  0.00  0.00    +0.000 S 
ATOM     14  O   UNL     1      42.763   4.973  12.153  0.00  0.00    +0.000 OA
ATOM     15  O   UNL     1      43.882   2.759  12.565  0.00  0.00    +0.000 OA
ENDBRANCH   1  13
BRANCH   6  16
ATOM     16  O   UNL     1      45.417   6.765  11.038  0.00  0.00    +0.000 OA
BRANCH  16  17
ATOM     17  C   UNL     1      44.328   7.654  11.356  0.00  0.00    +0.000 C 
BRANCH  17  18
ATOM     18  C   UNL     1      44.521   9.142  11.406  0.00  0.00    +0.000 A 
ATOM     19  C   UNL     1      45.719   9.785  11.671  0.00  0.00    +0.000 A 
ATOM     20  C   UNL     1      45.745  11.179  11.698  0.00  0.00    +0.000 A 
ATOM     21  C   UNL     1      44.596  11.930  11.401  0.00  0.00    +0.000 A 
ATOM     22  C   UNL     1      43.403  11.308  11.028  0.00  0.00    +0.000 A 
ATOM     23  C   UNL     1      43.370   9.913  11.121  0.00  0.00    +0.000 A 
BRANCH  22  24
ATOM     24  C   UNL     1      42.185  12.035  10.453  0.00  0.00    +0.000 C 
ATOM     25  C   UNL     1      41.492  12.904  11.533  0.00  0.00    +0.000 C 
ATOM     26  C   UNL     1      40.815  12.024  12.586  0.00  0.00    +0.000 C 
ATOM     27  N   UNL     1      39.790  11.170  11.994  0.00  0.00    +0.000 NA
ATOM     28  C   UNL     1      40.308  10.351  10.901  0.00  0.00    +0.000 C 
ATOM     29  C   UNL     1      41.080  11.152   9.842  0.00  0.00    +0.000 C 
ATOM     30  H   UNL     1      39.035  11.755  11.649  0.00  0.00    +0.000 HD
ENDBRANCH  22  24
ENDBRANCH  17  18
ENDBRANCH  16  17
ENDBRANCH   6  16
TORSDOF 6
ENDMDL
MODEL 8
REMARK VINA RESULT:    -6.399      3.176      8.358
REMARK INTER + INTRA:          -9.109
REMARK INTER:                  -8.520
REMARK INTRA:                  -0.589
REMARK UNBOUND:                -0.466
REMARK  Name = 
REMARK  7 active torsions:
REMARK  status: ('A' for Active; 'I' for Inactive)
REMARK    1  A    between atoms: C_1  and  S_2
REMARK    2  A    between atoms: S_2  and  C_5
REMARK    3  A    between atoms: C_7  and  C_8
REMARK    4  A    between atoms: C_13  and  O_14
REMARK    5  A    between atoms: O_14  and  C_15
REMARK    6  A    between atoms: C_15  and  C_16
REMARK    7  A    between atoms: C_20  and  C_21
REMARK                            x       y       z     vdW  Elec       q    Type
REMARK                         _______ _______ _______ _____ _____    ______ ____
ROOT
ATOM      1  C   UNL     1      46.521   6.081  12.610  0.00  0.00    +0.000 A 
ATOM      2  C   UNL     1      45.567   5.730  11.620  0.00  0.00    +0.000 A 
ATOM      3  C   UNL     1      45.026   4.447  11.554  0.00  0.00    +0.000 A 
ATOM      4  C   UNL     1      45.412   3.506  12.490  0.00  0.00    +0.000 A 
ATOM      5  C   UNL     1      46.328   3.855  13.476  0.00  0.00    +0.000 A 
ATOM      6  C   UNL     1      46.923   5.141  13.562  0.00  0.00    +0.000 A 
ENDROOT
BRANCH   3   7
ATOM      7  C   UNL     1      44.073   4.014  10.507  0.00  0.00    +0.000 C 
ATOM      8  N   UNL     1      44.109   4.678   9.318  0.00  0.00    +0.000 N 
ATOM      9  O   UNL     1      43.258   3.125  10.716  0.00  0.00    +0.000 OA
ATOM     10  H   UNL     1      44.586   5.560   9.198  0.00  0.00    +0.000 HD
ATOM     11  H   UNL     1      43.381   4.440   8.656  0.00  0.00    +0.000 HD
ENDBRANCH   3   7
BRANCH   1  13
ATOM     12  C   UNL     1      47.423   8.535  13.979  0.00  0.00    +0.000 C 
ATOM     13  S   UNL     1      47.076   7.757  12.451  0.00  0.00    +0.000 S 
ATOM     14  O   UNL     1      45.952   8.471  11.857  0.00  0.00    +0.000 OA
ATOM     15  O   UNL     1      48.337   7.686  11.723  0.00  0.00    +0.000 OA
ENDBRANCH   1  13
BRANCH   6  16
ATOM     16  O   UNL     1      47.864   5.434  14.538  0.00  0.00    +0.000 OA
BRANCH  16  17
ATOM     17  C   UNL     1      47.663   4.641  15.725  0.00  0.00    +0.000 C 
BRANCH  17  18
ATOM     18  C   UNL     1      48.141   5.111  17.069  0.00  0.00    +0.000 A 
ATOM     19  C   UNL     1      47.371   5.162  18.219  0.00  0.00    +0.000 A 
ATOM     20  C   UNL     1      47.949   5.636  19.397  0.00  0.00    +0.000 A 
ATOM     21  C   UNL     1      49.305   5.998  19.443  0.00  0.00    +0.000 A 
ATOM     22  C   UNL     1      50.129   5.856  18.325  0.00  0.00    +0.000 A 
ATOM     23  C   UNL     1      49.502   5.491  17.129  0.00  0.00    +0.000 A 
BRANCH  22  24
ATOM     24  C   UNL     1      51.654   5.987  18.346  0.00  0.00    +0.000 C 
ATOM     25  C   UNL     1      52.323   4.850  17.534  0.00  0.00    +0.000 C 
ATOM     26  C   UNL     1      52.153   3.503  18.242  0.00  0.00    +0.000 C 
ATOM     27  N   UNL     1      52.769   3.512  19.565  0.00  0.00    +0.000 NA
ATOM     28  C   UNL     1      52.272   4.597  20.406  0.00  0.00    +0.000 C 
ATOM     29  C   UNL     1      52.328   5.976  19.731  0.00  0.00    +0.000 C 
ATOM     30  H   UNL     1      53.775   3.601  19.458  0.00  0.00    +0.000 HD
ENDBRANCH  22  24
ENDBRANCH  17  18
ENDBRANCH  16  17
ENDBRANCH   6  16
TORSDOF 6
ENDMDL
MODEL 9
REMARK VINA RESULT:    -6.277      2.463      7.985
REMARK INTER + INTRA:          -8.944
REMARK INTER:                  -8.075
REMARK INTRA:                  -0.869
REMARK UNBOUND:                -0.466
REMARK  Name = 
REMARK  7 active torsions:
REMARK  status: ('A' for Active; 'I' for Inactive)
REMARK    1  A    between atoms: C_1  and  S_2
REMARK    2  A    between atoms: S_2  and  C_5
REMARK    3  A    between atoms: C_7  and  C_8
REMARK    4  A    between atoms: C_13  and  O_14
REMARK    5  A    between atoms: O_14  and  C_15
REMARK    6  A    between atoms: C_15  and  C_16
REMARK    7  A    between atoms: C_20  and  C_21
REMARK                            x       y       z     vdW  Elec       q    Type
REMARK                         _______ _______ _______ _____ _____    ______ ____
ROOT
ATOM      1  C   UNL     1      46.753   6.376  13.112  0.00  0.00    +0.000 A 
ATOM      2  C   UNL     1      45.659   6.642  12.248  0.00  0.00    +0.000 A 
ATOM      3  C   UNL     1      44.635   5.715  12.065  0.00  0.00    +0.000 A 
ATOM      4  C   UNL     1      44.678   4.521  12.761  0.00  0.00    +0.000 A 
ATOM      5  C   UNL     1      45.736   4.268  13.626  0.00  0.00    +0.000 A 
ATOM      6  C   UNL     1      46.812   5.174  13.821  0.00  0.00    +0.000 A 
ENDROOT
BRANCH   3   7
ATOM      7  C   UNL     1      43.504   5.919  11.132  0.00  0.00    +0.000 C 
ATOM      8  N   UNL     1      42.861   7.119  11.186  0.00  0.00    +0.000 N 
ATOM      9  O   UNL     1      43.135   5.031  10.375  0.00  0.00    +0.000 OA
ATOM     10  H   UNL     1      42.975   7.767  11.953  0.00  0.00    +0.000 HD
ATOM     11  H   UNL     1      42.026   7.199  10.619  0.00  0.00    +0.000 HD
ENDBRANCH   3   7
BRANCH   1  13
ATOM     12  C   UNL     1      47.461   9.086  12.183  0.00  0.00    +0.000 C 
ATOM     13  S   UNL     1      47.933   7.699  13.138  0.00  0.00    +0.000 S 
ATOM     14  O   UNL     1      49.132   7.146  12.521  0.00  0.00    +0.000 OA
ATOM     15  O   UNL     1      47.990   8.147  14.525  0.00  0.00    +0.000 OA
ENDBRANCH   1  13
BRANCH   6  16
ATOM     16  O   UNL     1      47.869   4.863  14.663  0.00  0.00    +0.000 OA
BRANCH  16  17
ATOM     17  C   UNL     1      47.424   4.146  15.832  0.00  0.00    +0.000 C 
BRANCH  17  18
ATOM     18  C   UNL     1      48.085   4.339  17.167  0.00  0.00    +0.000 A 
ATOM     19  C   UNL     1      49.210   3.663  17.609  0.00  0.00    +0.000 A 
ATOM     20  C   UNL     1      49.706   3.939  18.883  0.00  0.00    +0.000 A 
ATOM     21  C   UNL     1      49.121   4.929  19.688  0.00  0.00    +0.000 A 
ATOM     22  C   UNL     1      48.052   5.698  19.225  0.00  0.00    +0.000 A 
ATOM     23  C   UNL     1      47.500   5.325  17.995  0.00  0.00    +0.000 A 
BRANCH  22  24
ATOM     24  C   UNL     1      47.515   6.951  19.922  0.00  0.00    +0.000 C 
ATOM     25  C   UNL     1      47.380   8.130  18.927  0.00  0.00    +0.000 C 
ATOM     26  C   UNL     1      48.759   8.630  18.488  0.00  0.00    +0.000 C 
ATOM     27  N   UNL     1      49.542   9.107  19.624  0.00  0.00    +0.000 NA
ATOM     28  C   UNL     1      49.675   8.102  20.674  0.00  0.00    +0.000 C 
ATOM     29  C   UNL     1      48.337   7.485  21.110  0.00  0.00    +0.000 C 
ATOM     30  H   UNL     1      49.097   9.937  20.004  0.00  0.00    +0.000 HD
ENDBRANCH  22  24
ENDBRANCH  17  18
ENDBRANCH  16  17
ENDBRANCH   6  16
TORSDOF 6
ENDMDL
