MODEL 1
REMARK VINA RESULT:    -8.909      0.000      0.000
REMARK INTER + INTRA:         -13.878
REMARK INTER:                 -12.554
REMARK INTRA:                  -1.324
REMARK UNBOUND:                -1.324
REMARK  Name = 
REMARK  7 active torsions:
REMARK  status: ('A' for Active; 'I' for Inactive)
REMARK    1  A    between atoms: C_2  and  C_4
REMARK    2  A    between atoms: C_4  and  N_5
REMARK    3  A    between atoms: C_4  and  C_18
REMARK    4  A    between atoms: C_6  and  C_8
REMARK    5  A    between atoms: C_21  and  C_22
REMARK    6  A    between atoms: C_22  and  N_23
REMARK    7  A    between atoms: C_24  and  C_26
REMARK                            x       y       z     vdW  Elec       q    Type
REMARK                         _______ _______ _______ _____ _____    ______ ____
ROOT
ATOM      1  C   UNL     1      44.151   3.923  10.300  0.00  0.00    +0.000 C 
ENDROOT
BRANCH   1   2
ATOM      2  C   UNL     1      44.993   3.373   9.150  0.00  0.00    +0.000 A 
ATOM      3  C   UNL     1      45.297   2.004   9.093  0.00  0.00    +0.000 A 
ATOM      4  C   UNL     1      46.124   1.488   8.087  0.00  0.00    +0.000 A 
ATOM      5  C   UNL     1      46.675   2.328   7.111  0.00  0.00    +0.000 A 
ATOM      6  C   UNL     1      46.329   3.684   7.127  0.00  0.00    +0.000 A 
ATOM      7  C   UNL     1      45.499   4.201   8.133  0.00  0.00    +0.000 A 
BRANCH   5   8
ATOM      8  C   UNL     1      47.649   1.792   6.090  0.00  0.00    +0.000 C 
BRANCH   8   9
ATOM      9  N   UNL     1      47.296   0.467   5.632  0.00  0.00    +0.000 N 
ATOM     10  C   UNL     1      47.130   0.219   4.282  0.00  0.00    +0.000 C 
ATOM     11  O   UNL     1      47.265   1.073   3.414  0.00  0.00    +0.000 OA
ATOM     12  H   UNL     1      47.422  -0.303   6.272  0.00  0.00    +0.000 HD
BRANCH  10  13
ATOM     13  C   UNL     1      46.796  -1.174   3.908  0.00  0.00    +0.000 A 
ATOM     14  C   UNL     1      46.644  -2.189   4.856  0.00  0.00    +0.000 A 
ATOM     15  C   UNL     1      46.319  -3.477   4.433  0.00  0.00    +0.000 A 
ATOM     16  C   UNL     1      46.153  -3.704   3.076  0.00  0.00    +0.000 A 
ATOM     17  N   UNL     1      46.277  -2.744   2.135  0.00  0.00    +0.000 NA
ATOM     18  C   UNL     1      46.584  -1.492   2.574  0.00  0.00    +0.000 A 
ENDBRANCH  10  13
ENDBRANCH   8   9
ENDBRANCH   5   8
ENDBRANCH   1   2
BRANCH   1  20
ATOM     19  N   UNL     1      44.854   2.722  12.346  0.00  0.00    +0.000 N 
ATOM     20  C   UNL     1      43.872   2.845  11.391  0.00  0.00    +0.000 C 
ATOM     21  O   UNL     1      42.922   2.067  11.400  0.00  0.00    +0.000 OA
ATOM     22  H   UNL     1      44.757   1.902  12.931  0.00  0.00    +0.000 HD
ATOM     23  H   UNL     1      45.807   2.900  12.029  0.00  0.00    +0.000 HD
ENDBRANCH   1  20
BRANCH   1  24
ATOM     24  N   UNL     1      44.788   5.097  10.890  0.00  0.00    +0.000 N 
ATOM     25  C   UNL     1      44.051   6.171  11.335  0.00  0.00    +0.000 C 
ATOM     26  O   UNL     1      42.823   6.153  11.363  0.00  0.00    +0.000 OA
ATOM     27  H   UNL     1      45.728   5.286  10.559  0.00  0.00    +0.000 HD
BRANCH  25  28
ATOM     28  C   UNL     1      44.816   7.321  11.833  0.00  0.00    +0.000 A 
ATOM     29  C   UNL     1      44.522   8.603  11.390  0.00  0.00    +0.000 A 
ATOM     30  S   UNL     1      45.514   9.810  12.079  0.00  0.00    +0.000 S 
ATOM     31  C   UNL     1      46.400   8.656  12.962  0.00  0.00    +0.000 A 
ATOM     32  N   UNL     1      47.451   9.022  13.743  0.00  0.00    +0.000 NA
ATOM     33  C   UNL     1      48.044   8.039  14.335  0.00  0.00    +0.000 A 
ATOM     34  N   UNL     1      47.673   6.725  14.227  0.00  0.00    +0.000 N 
ATOM     35  C   UNL     1      46.602   6.312  13.473  0.00  0.00    +0.000 A 
ATOM     36  O   UNL     1      46.260   5.135  13.434  0.00  0.00    +0.000 OA
ATOM     37  C   UNL     1      45.919   7.374  12.763  0.00  0.00    +0.000 A 
ATOM     38  H   UNL     1      48.168   6.005  14.733  0.00  0.00    +0.000 HD
ENDBRANCH  25  28
ENDBRANCH   1  24
TORSDOF 7
ENDMDL
MODEL 2
REMARK VINA RESULT:    -8.491      3.877      6.691
REMARK INTER + INTRA:         -13.289
REMARK INTER:                 -11.785
REMARK INTRA:                  -1.504
REMARK UNBOUND:                -1.324
REMARK  Name = 
REMARK  7 active torsions:
REMARK  status: ('A' for Active; 'I' for Inactive)
REMARK    1  A    between atoms: C_2  and  C_4
REMARK    2  A    between atoms: C_4  and  N_5
REMARK    3  A    between atoms: C_4  and  C_18
REMARK    4  A    between atoms: C_6  and  C_8
REMARK    5  A    between atoms: C_21  and  C_22
REMARK    6  A    between atoms: C_22  and  N_23
REMARK    7  A    between atoms: C_24  and  C_26
REMARK                            x       y       z     vdW  Elec       q    Type
REMARK                         _______ _______ _______ _____ _____    ______ ____
ROOT
ATOM      1  C   UNL     1      48.158   6.777  14.238  0.00  0.00    +0.000 C 
ENDROOT
BRANCH   1   2
ATOM      2  C   UNL     1      47.138   5.910  13.502  0.00  0.00    +0.000 A 
ATOM      3  C   UNL     1      47.030   4.544  13.803  0.00  0.00    +0.000 A 
ATOM      4  C   UNL     1      46.151   3.715  13.094  0.00  0.00    +0.000 A 
ATOM      5  C   UNL     1      45.359   4.228  12.059  0.00  0.00    +0.000 A 
ATOM      6  C   UNL     1      45.420   5.601  11.792  0.00  0.00    +0.000 A 
ATOM      7  C   UNL     1      46.298   6.431  12.504  0.00  0.00    +0.000 A 
BRANCH   5   8
ATOM      8  C   UNL     1      44.490   3.317  11.226  0.00  0.00    +0.000 C 
BRANCH   8   9
ATOM      9  N   UNL     1      45.211   2.719  10.125  0.00  0.00    +0.000 N 
ATOM     10  C   UNL     1      45.137   3.275   8.861  0.00  0.00    +0.000 C 
ATOM     11  O   UNL     1      44.478   4.272   8.597  0.00  0.00    +0.000 OA
ATOM     12  H   UNL     1      45.949   2.065  10.344  0.00  0.00    +0.000 HD
BRANCH  10  13
ATOM     13  C   UNL     1      45.931   2.607   7.805  0.00  0.00    +0.000 A 
ATOM     14  C   UNL     1      46.311   3.255   6.627  0.00  0.00    +0.000 A 
ATOM     15  C   UNL     1      47.066   2.567   5.680  0.00  0.00    +0.000 A 
ATOM     16  C   UNL     1      47.423   1.255   5.946  0.00  0.00    +0.000 A 
ATOM     17  N   UNL     1      47.087   0.603   7.080  0.00  0.00    +0.000 NA
ATOM     18  C   UNL     1      46.357   1.300   7.994  0.00  0.00    +0.000 A 
ENDBRANCH  10  13
ENDBRANCH   8   9
ENDBRANCH   5   8
ENDBRANCH   1   2
BRANCH   1  20
ATOM     19  N   UNL     1      47.263   9.025  14.760  0.00  0.00    +0.000 N 
ATOM     20  C   UNL     1      48.014   8.287  13.875  0.00  0.00    +0.000 C 
ATOM     21  O   UNL     1      48.428   8.817  12.848  0.00  0.00    +0.000 OA
ATOM     22  H   UNL     1      47.018   9.947  14.421  0.00  0.00    +0.000 HD
ATOM     23  H   UNL     1      46.496   8.528  15.213  0.00  0.00    +0.000 HD
ENDBRANCH   1  20
BRANCH   1  24
ATOM     24  N   UNL     1      48.054   6.585  15.681  0.00  0.00    +0.000 N 
ATOM     25  C   UNL     1      49.143   6.225  16.442  0.00  0.00    +0.000 C 
ATOM     26  O   UNL     1      50.276   6.157  15.970  0.00  0.00    +0.000 OA
ATOM     27  H   UNL     1      47.142   6.286  16.008  0.00  0.00    +0.000 HD
BRANCH  25  28
ATOM     28  C   UNL     1      48.888   5.985  17.867  0.00  0.00    +0.000 A 
ATOM     29  C   UNL     1      49.149   4.740  18.425  0.00  0.00    +0.000 A 
ATOM     30  S   UNL     1      48.791   4.649  20.093  0.00  0.00    +0.000 S 
ATOM     31  C   UNL     1      48.235   6.258  20.117  0.00  0.00    +0.000 A 
ATOM     32  N   UNL     1      47.733   6.812  21.254  0.00  0.00    +0.000 NA
ATOM     33  C   UNL     1      47.327   8.030  21.119  0.00  0.00    +0.000 A 
ATOM     34  N   UNL     1      47.390   8.750  19.955  0.00  0.00    +0.000 N 
ATOM     35  C   UNL     1      47.915   8.242  18.792  0.00  0.00    +0.000 A 
ATOM     36  O   UNL     1      48.007   8.924  17.776  0.00  0.00    +0.000 OA
ATOM     37  C   UNL     1      48.358   6.865  18.881  0.00  0.00    +0.000 A 
ATOM     38  H   UNL     1      47.074   9.707  19.922  0.00  0.00    +0.000 HD
ENDBRANCH  25  28
ENDBRANCH   1  24
TORSDOF 7
ENDMDL
MODEL 3
REMARK VINA RESULT:    -8.223      3.291      5.555
REMARK INTER + INTRA:         -12.912
REMARK INTER:                 -11.749
REMARK INTRA:                  -1.163
REMARK UNBOUND:                -1.324
REMARK  Name = 
REMARK  7 active torsions:
REMARK  status: ('A' for Active; 'I' for Inactive)
REMARK    1  A    between atoms: C_2  and  C_4
REMARK    2  A    between atoms: C_4  and  N_5
REMARK    3  A    between atoms: C_4  and  C_18
REMARK    4  A    between atoms: C_6  and  C_8
REMARK    5  A    between atoms: C_21  and  C_22
REMARK    6  A    between atoms: C_22  and  N_23
REMARK    7  A    between atoms: C_24  and  C_26
REMARK                            x       y       z     vdW  Elec       q    Type
REMARK                         _______ _______ _______ _____ _____    ______ ____
ROOT
ATOM      1  C   UNL     1      46.984   5.208  14.760  0.00  0.00    +0.000 C 
ENDROOT
BRANCH   1   2
ATOM      2  C   UNL     1      46.076   5.021  13.545  0.00  0.00    +0.000 A 
ATOM      3  C   UNL     1      45.777   3.731  13.083  0.00  0.00    +0.000 A 
ATOM      4  C   UNL     1      45.004   3.537  11.931  0.00  0.00    +0.000 A 
ATOM      5  C   UNL     1      44.513   4.629  11.204  0.00  0.00    +0.000 A 
ATOM      6  C   UNL     1      44.759   5.918  11.692  0.00  0.00    +0.000 A 
ATOM      7  C   UNL     1      45.530   6.112  12.848  0.00  0.00    +0.000 A 
BRANCH   5   8
ATOM      8  C   UNL     1      43.769   4.425   9.907  0.00  0.00    +0.000 C 
BRANCH   8   9
ATOM      9  N   UNL     1      44.456   3.520   9.013  0.00  0.00    +0.000 N 
ATOM     10  C   UNL     1      45.537   3.962   8.272  0.00  0.00    +0.000 C 
ATOM     11  O   UNL     1      45.968   5.107   8.319  0.00  0.00    +0.000 OA
ATOM     12  H   UNL     1      44.300   2.530   9.131  0.00  0.00    +0.000 HD
BRANCH  10  13
ATOM     13  C   UNL     1      46.192   2.956   7.405  0.00  0.00    +0.000 A 
ATOM     14  C   UNL     1      46.627   3.249   6.111  0.00  0.00    +0.000 A 
ATOM     15  C   UNL     1      47.244   2.254   5.355  0.00  0.00    +0.000 A 
ATOM     16  C   UNL     1      47.409   1.000   5.921  0.00  0.00    +0.000 A 
ATOM     17  N   UNL     1      47.014   0.687   7.174  0.00  0.00    +0.000 NA
ATOM     18  C   UNL     1      46.424   1.679   7.896  0.00  0.00    +0.000 A 
ENDBRANCH  10  13
ENDBRANCH   8   9
ENDBRANCH   5   8
ENDBRANCH   1   2
BRANCH   1  20
ATOM     19  N   UNL     1      46.837   3.738  16.745  0.00  0.00    +0.000 N 
ATOM     20  C   UNL     1      47.312   3.854  15.460  0.00  0.00    +0.000 C 
ATOM     21  O   UNL     1      48.016   2.961  14.995  0.00  0.00    +0.000 OA
ATOM     22  H   UNL     1      47.212   2.946  17.252  0.00  0.00    +0.000 HD
ATOM     23  H   UNL     1      46.802   4.602  17.286  0.00  0.00    +0.000 HD
ENDBRANCH   1  20
BRANCH   1  24
ATOM     24  N   UNL     1      48.212   5.902  14.385  0.00  0.00    +0.000 N 
ATOM     25  C   UNL     1      48.826   6.793  15.236  0.00  0.00    +0.000 C 
ATOM     26  O   UNL     1      48.440   6.966  16.389  0.00  0.00    +0.000 OA
ATOM     27  H   UNL     1      48.330   6.057  13.390  0.00  0.00    +0.000 HD
BRANCH  25  28
ATOM     28  C   UNL     1      50.009   7.484  14.708  0.00  0.00    +0.000 A 
ATOM     29  C   UNL     1      51.223   7.406  15.379  0.00  0.00    +0.000 A 
ATOM     30  S   UNL     1      52.482   8.271  14.617  0.00  0.00    +0.000 S 
ATOM     31  C   UNL     1      51.439   8.814  13.386  0.00  0.00    +0.000 A 
ATOM     32  N   UNL     1      51.880   9.651  12.409  0.00  0.00    +0.000 NA
ATOM     33  C   UNL     1      50.974   9.999  11.557  0.00  0.00    +0.000 A 
ATOM     34  N   UNL     1      49.671   9.576  11.585  0.00  0.00    +0.000 N 
ATOM     35  C   UNL     1      49.190   8.709  12.535  0.00  0.00    +0.000 A 
ATOM     36  O   UNL     1      48.032   8.305  12.508  0.00  0.00    +0.000 OA
ATOM     37  C   UNL     1      50.160   8.310  13.535  0.00  0.00    +0.000 A 
ATOM     38  H   UNL     1      49.017   9.871  10.876  0.00  0.00    +0.000 HD
ENDBRANCH  25  28
ENDBRANCH   1  24
TORSDOF 7
ENDMDL
MODEL 4
REMARK VINA RESULT:    -7.980      3.574      6.361
REMARK INTER + INTRA:         -12.569
REMARK INTER:                 -11.507
REMARK INTRA:                  -1.062
REMARK UNBOUND:                -1.324
REMARK  Name = 
REMARK  7 active torsions:
REMARK  status: ('A' for Active; 'I' for Inactive)
REMARK    1  A    between atoms: C_2  and  C_4
REMARK    2  A    between atoms: C_4  and  N_5
REMARK    3  A    between atoms: C_4  and  C_18
REMARK    4  A    between atoms: C_6  and  C_8
REMARK    5  A    between atoms: C_21  and  C_22
REMARK    6  A    between atoms: C_22  and  N_23
REMARK    7  A    between atoms: C_24  and  C_26
REMARK                            x       y       z     vdW  Elec       q    Type
REMARK                         _______ _______ _______ _____ _____    ______ ____
ROOT
ATOM      1  C   UNL     1      47.982   7.072  13.668  0.00  0.00    +0.000 C 
ENDROOT
BRANCH   1   2
ATOM      2  C   UNL     1      46.981   6.106  13.036  0.00  0.00    +0.000 A 
ATOM      3  C   UNL     1      46.904   4.780  13.487  0.00  0.00    +0.000 A 
ATOM      4  C   UNL     1      46.043   3.858  12.878  0.00  0.00    +0.000 A 
ATOM      5  C   UNL     1      45.238   4.236  11.795  0.00  0.00    +0.000 A 
ATOM      6  C   UNL     1      45.268   5.572  11.378  0.00  0.00    +0.000 A 
ATOM      7  C   UNL     1      46.128   6.495  11.990  0.00  0.00    +0.000 A 
BRANCH   5   8
ATOM      8  C   UNL     1      44.388   3.220  11.071  0.00  0.00    +0.000 C 
BRANCH   8   9
ATOM      9  N   UNL     1      45.100   2.571   9.993  0.00  0.00    +0.000 N 
ATOM     10  C   UNL     1      45.163   3.164   8.745  0.00  0.00    +0.000 C 
ATOM     11  O   UNL     1      44.637   4.237   8.478  0.00  0.00    +0.000 OA
ATOM     12  H   UNL     1      45.745   1.832  10.230  0.00  0.00    +0.000 HD
BRANCH  10  13
ATOM     13  C   UNL     1      45.937   2.437   7.713  0.00  0.00    +0.000 A 
ATOM     14  C   UNL     1      46.299   3.020   6.497  0.00  0.00    +0.000 A 
ATOM     15  C   UNL     1      47.036   2.279   5.575  0.00  0.00    +0.000 A 
ATOM     16  C   UNL     1      47.391   0.981   5.905  0.00  0.00    +0.000 A 
ATOM     17  N   UNL     1      47.071   0.392   7.077  0.00  0.00    +0.000 NA
ATOM     18  C   UNL     1      46.360   1.140   7.964  0.00  0.00    +0.000 A 
ENDBRANCH  10  13
ENDBRANCH   8   9
ENDBRANCH   5   8
ENDBRANCH   1   2
BRANCH   1  20
ATOM     19  N   UNL     1      46.658   9.125  14.058  0.00  0.00    +0.000 N 
ATOM     20  C   UNL     1      47.666   8.558  13.315  0.00  0.00    +0.000 C 
ATOM     21  O   UNL     1      48.170   9.196  12.395  0.00  0.00    +0.000 OA
ATOM     22  H   UNL     1      46.334  10.015  13.698  0.00  0.00    +0.000 HD
ATOM     23  H   UNL     1      45.910   8.495  14.349  0.00  0.00    +0.000 HD
ENDBRANCH   1  20
BRANCH   1  24
ATOM     24  N   UNL     1      48.034   6.888  15.115  0.00  0.00    +0.000 N 
ATOM     25  C   UNL     1      49.229   6.874  15.798  0.00  0.00    +0.000 C 
ATOM     26  O   UNL     1      50.299   7.125  15.249  0.00  0.00    +0.000 OA
ATOM     27  H   UNL     1      47.272   6.347  15.506  0.00  0.00    +0.000 HD
BRANCH  25  28
ATOM     28  C   UNL     1      49.150   6.601  17.239  0.00  0.00    +0.000 A 
ATOM     29  C   UNL     1      49.440   7.600  18.158  0.00  0.00    +0.000 A 
ATOM     30  S   UNL     1      49.293   7.098  19.783  0.00  0.00    +0.000 S 
ATOM     31  C   UNL     1      48.877   5.515  19.315  0.00  0.00    +0.000 A 
ATOM     32  N   UNL     1      48.656   4.542  20.240  0.00  0.00    +0.000 NA
ATOM     33  C   UNL     1      48.373   3.386  19.740  0.00  0.00    +0.000 A 
ATOM     34  N   UNL     1      48.277   3.116  18.400  0.00  0.00    +0.000 N 
ATOM     35  C   UNL     1      48.463   4.073  17.432  0.00  0.00    +0.000 A 
ATOM     36  O   UNL     1      48.321   3.818  16.241  0.00  0.00    +0.000 OA
ATOM     37  C   UNL     1      48.814   5.385  17.940  0.00  0.00    +0.000 A 
ATOM     38  H   UNL     1      48.032   2.193  18.074  0.00  0.00    +0.000 HD
ENDBRANCH  25  28
ENDBRANCH   1  24
TORSDOF 7
ENDMDL
MODEL 5
REMARK VINA RESULT:    -7.931      3.460      5.891
REMARK INTER + INTRA:         -12.500
REMARK INTER:                 -11.518
REMARK INTRA:                  -0.982
REMARK UNBOUND:                -1.324
REMARK  Name = 
REMARK  7 active torsions:
REMARK  status: ('A' for Active; 'I' for Inactive)
REMARK    1  A    between atoms: C_2  and  C_4
REMARK    2  A    between atoms: C_4  and  N_5
REMARK    3  A    between atoms: C_4  and  C_18
REMARK    4  A    between atoms: C_6  and  C_8
REMARK    5  A    between atoms: C_21  and  C_22
REMARK    6  A    between atoms: C_22  and  N_23
REMARK    7  A    between atoms: C_24  and  C_26
REMARK                            x       y       z     vdW  Elec       q    Type
REMARK                         _______ _______ _______ _____ _____    ______ ____
ROOT
ATOM      1  C   UNL     1      47.069   5.021  14.963  0.00  0.00    +0.000 C 
ENDROOT
BRANCH   1   2
ATOM      2  C   UNL     1      46.390   4.818  13.610  0.00  0.00    +0.000 A 
ATOM      3  C   UNL     1      46.352   5.866  12.678  0.00  0.00    +0.000 A 
ATOM      4  C   UNL     1      45.675   5.726  11.460  0.00  0.00    +0.000 A 
ATOM      5  C   UNL     1      45.011   4.535  11.141  0.00  0.00    +0.000 A 
ATOM      6  C   UNL     1      45.094   3.465  12.041  0.00  0.00    +0.000 A 
ATOM      7  C   UNL     1      45.774   3.605  13.260  0.00  0.00    +0.000 A 
BRANCH   5   8
ATOM      8  C   UNL     1      44.195   4.418   9.877  0.00  0.00    +0.000 C 
BRANCH   8   9
ATOM      9  N   UNL     1      44.778   3.499   8.926  0.00  0.00    +0.000 N 
ATOM     10  C   UNL     1      45.807   3.913   8.101  0.00  0.00    +0.000 C 
ATOM     11  O   UNL     1      46.276   5.044   8.117  0.00  0.00    +0.000 OA
ATOM     12  H   UNL     1      44.601   2.513   9.052  0.00  0.00    +0.000 HD
BRANCH  10  13
ATOM     13  C   UNL     1      46.357   2.893   7.179  0.00  0.00    +0.000 A 
ATOM     14  C   UNL     1      46.646   3.169   5.840  0.00  0.00    +0.000 A 
ATOM     15  C   UNL     1      47.170   2.162   5.032  0.00  0.00    +0.000 A 
ATOM     16  C   UNL     1      47.394   0.915   5.592  0.00  0.00    +0.000 A 
ATOM     17  N   UNL     1      47.141   0.618   6.885  0.00  0.00    +0.000 NA
ATOM     18  C   UNL     1      46.639   1.621   7.656  0.00  0.00    +0.000 A 
ENDBRANCH  10  13
ENDBRANCH   8   9
ENDBRANCH   5   8
ENDBRANCH   1   2
BRANCH   1  20
ATOM     19  N   UNL     1      46.919   3.540  16.940  0.00  0.00    +0.000 N 
ATOM     20  C   UNL     1      47.404   3.667  15.660  0.00  0.00    +0.000 C 
ATOM     21  O   UNL     1      48.121   2.784  15.197  0.00  0.00    +0.000 OA
ATOM     22  H   UNL     1      47.297   2.749  17.447  0.00  0.00    +0.000 HD
ATOM     23  H   UNL     1      46.871   4.402  17.485  0.00  0.00    +0.000 HD
ENDBRANCH   1  20
BRANCH   1  24
ATOM     24  N   UNL     1      48.273   5.835  14.819  0.00  0.00    +0.000 N 
ATOM     25  C   UNL     1      48.837   6.486  15.893  0.00  0.00    +0.000 C 
ATOM     26  O   UNL     1      48.427   6.328  17.041  0.00  0.00    +0.000 OA
ATOM     27  H   UNL     1      48.399   6.255  13.906  0.00  0.00    +0.000 HD
BRANCH  25  28
ATOM     28  C   UNL     1      49.997   7.336  15.600  0.00  0.00    +0.000 A 
ATOM     29  C   UNL     1      49.831   8.541  14.931  0.00  0.00    +0.000 A 
ATOM     30  S   UNL     1      51.291   9.391  14.680  0.00  0.00    +0.000 S 
ATOM     31  C   UNL     1      52.201   8.157  15.420  0.00  0.00    +0.000 A 
ATOM     32  N   UNL     1      53.557   8.234  15.501  0.00  0.00    +0.000 NA
ATOM     33  C   UNL     1      54.116   7.217  16.067  0.00  0.00    +0.000 A 
ATOM     34  N   UNL     1      53.442   6.136  16.572  0.00  0.00    +0.000 N 
ATOM     35  C   UNL     1      52.073   6.029  16.539  0.00  0.00    +0.000 A 
ATOM     36  O   UNL     1      51.491   5.075  17.043  0.00  0.00    +0.000 OA
ATOM     37  C   UNL     1      51.397   7.132  15.886  0.00  0.00    +0.000 A 
ATOM     38  H   UNL     1      53.939   5.381  17.021  0.00  0.00    +0.000 HD
ENDBRANCH  25  28
ENDBRANCH   1  24
TORSDOF 7
ENDMDL
MODEL 6
REMARK VINA RESULT:    -7.315      3.493      6.073
REMARK INTER + INTRA:         -11.633
REMARK INTER:                 -10.355
REMARK INTRA:                  -1.278
REMARK UNBOUND:                -1.324
REMARK  Name = 
REMARK  7 active torsions:
REMARK  status: ('A' for Active; 'I' for Inactive)
REMARK    1  A    between atoms: C_2  and  C_4
REMARK    2  A    between atoms: C_4  and  N_5
REMARK    3  A    between atoms: C_4  and  C_18
REMARK    4  A    between atoms: C_6  and  C_8
REMARK    5  A    between atoms: C_21  and  C_22
REMARK    6  A    between atoms: C_22  and  N_23
REMARK    7  A    between atoms: C_24  and  C_26
REMARK                            x       y       z     vdW  Elec       q    Type
REMARK                         _______ _______ _______ _____ _____    ______ ____
ROOT
ATOM      1  C   UNL     1      47.516   7.734  13.663  0.00  0.00    +0.000 C 
ENDROOT
BRANCH   1   2
ATOM      2  C   UNL     1      46.619   6.666  13.041  0.00  0.00    +0.000 A 
ATOM      3  C   UNL     1      46.629   5.357  13.547  0.00  0.00    +0.000 A 
ATOM      4  C   UNL     1      45.867   4.345  12.950  0.00  0.00    +0.000 A 
ATOM      5  C   UNL     1      45.077   4.612  11.825  0.00  0.00    +0.000 A 
ATOM      6  C   UNL     1      45.016   5.928  11.351  0.00  0.00    +0.000 A 
ATOM      7  C   UNL     1      45.777   6.942  11.951  0.00  0.00    +0.000 A 
BRANCH   5   8
ATOM      8  C   UNL     1      44.337   3.502  11.118  0.00  0.00    +0.000 C 
BRANCH   8   9
ATOM      9  N   UNL     1      45.139   2.867  10.097  0.00  0.00    +0.000 N 
ATOM     10  C   UNL     1      45.062   3.298   8.785  0.00  0.00    +0.000 C 
ATOM     11  O   UNL     1      44.336   4.211   8.413  0.00  0.00    +0.000 OA
ATOM     12  H   UNL     1      45.918   2.298  10.394  0.00  0.00    +0.000 HD
BRANCH  10  13
ATOM     13  C   UNL     1      45.941   2.604   7.816  0.00  0.00    +0.000 A 
ATOM     14  C   UNL     1      46.448   3.234   6.678  0.00  0.00    +0.000 A 
ATOM     15  C   UNL     1      47.277   2.522   5.813  0.00  0.00    +0.000 A 
ATOM     16  C   UNL     1      47.575   1.204   6.120  0.00  0.00    +0.000 A 
ATOM     17  N   UNL     1      47.114   0.568   7.219  0.00  0.00    +0.000 NA
ATOM     18  C   UNL     1      46.315   1.289   8.053  0.00  0.00    +0.000 A 
ENDBRANCH  10  13
ENDBRANCH   8   9
ENDBRANCH   5   8
ENDBRANCH   1   2
BRANCH   1  20
ATOM     19  N   UNL     1      48.216   7.355  16.006  0.00  0.00    +0.000 N 
ATOM     20  C   UNL     1      48.526   7.129  14.686  0.00  0.00    +0.000 C 
ATOM     21  O   UNL     1      49.582   6.571  14.402  0.00  0.00    +0.000 OA
ATOM     22  H   UNL     1      48.966   7.129  16.648  0.00  0.00    +0.000 HD
ATOM     23  H   UNL     1      47.746   8.238  16.208  0.00  0.00    +0.000 HD
ENDBRANCH   1  20
BRANCH   1  24
ATOM     24  N   UNL     1      48.222   8.482  12.627  0.00  0.00    +0.000 N 
ATOM     25  C   UNL     1      48.565   9.805  12.798  0.00  0.00    +0.000 C 
ATOM     26  O   UNL     1      48.396  10.390  13.865  0.00  0.00    +0.000 OA
ATOM     27  H   UNL     1      48.050   8.168  11.679  0.00  0.00    +0.000 HD
BRANCH  25  28
ATOM     28  C   UNL     1      49.200  10.464  11.650  0.00  0.00    +0.000 A 
ATOM     29  C   UNL     1      48.532  11.468  10.961  0.00  0.00    +0.000 A 
ATOM     30  S   UNL     1      49.427  12.115   9.659  0.00  0.00    +0.000 S 
ATOM     31  C   UNL     1      50.721  11.047   9.944  0.00  0.00    +0.000 A 
ATOM     32  N   UNL     1      51.819  11.041   9.141  0.00  0.00    +0.000 NA
ATOM     33  C   UNL     1      52.709  10.163   9.462  0.00  0.00    +0.000 A 
ATOM     34  N   UNL     1      52.609   9.299  10.521  0.00  0.00    +0.000 N 
ATOM     35  C   UNL     1      51.533   9.289  11.375  0.00  0.00    +0.000 A 
ATOM     36  O   UNL     1      51.490   8.541  12.345  0.00  0.00    +0.000 OA
ATOM     37  C   UNL     1      50.488  10.237  11.041  0.00  0.00    +0.000 A 
ATOM     38  H   UNL     1      53.351   8.649  10.730  0.00  0.00    +0.000 HD
ENDBRANCH  25  28
ENDBRANCH   1  24
TORSDOF 7
ENDMDL
MODEL 7
REMARK VINA RESULT:    -7.274      5.401     10.176
REMARK INTER + INTRA:         -11.574
REMARK INTER:                 -10.302
REMARK INTRA:                  -1.272
REMARK UNBOUND:                -1.324
REMARK  Name = 
REMARK  7 active torsions:
REMARK  status: ('A' for Active; 'I' for Inactive)
REMARK    1  A    between atoms: C_2  and  C_4
REMARK    2  A    between atoms: C_4  and  N_5
REMARK    3  A    between atoms: C_4  and  C_18
REMARK    4  A    between atoms: C_6  and  C_8
REMARK    5  A    between atoms: C_21  and  C_22
REMARK    6  A    between atoms: C_22  and  N_23
REMARK    7  A    between atoms: C_24  and  C_26
REMARK                            x       y       z     vdW  Elec       q    Type
REMARK                         _______ _______ _______ _____ _____    ______ ____
ROOT
ATOM      1  C   UNL     1      48.215   7.943  12.516  0.00  0.00    +0.000 C 
ENDROOT
BRANCH   1   2
ATOM      2  C   UNL     1      48.450   7.537  13.969  0.00  0.00    +0.000 A 
ATOM      3  C   UNL     1      49.064   8.431  14.859  0.00  0.00    +0.000 A 
ATOM      4  C   UNL     1      49.352   8.056  16.178  0.00  0.00    +0.000 A 
ATOM      5  C   UNL     1      49.038   6.772  16.643  0.00  0.00    +0.000 A 
ATOM      6  C   UNL     1      48.372   5.895  15.779  0.00  0.00    +0.000 A 
ATOM      7  C   UNL     1      48.082   6.272  14.459  0.00  0.00    +0.000 A 
BRANCH   5   8
ATOM      8  C   UNL     1      49.441   6.332  18.029  0.00  0.00    +0.000 C 
BRANCH   8   9
ATOM      9  N   UNL     1      49.989   4.995  18.047  0.00  0.00    +0.000 N 
ATOM     10  C   UNL     1      51.287   4.770  17.627  0.00  0.00    +0.000 C 
ATOM     11  O   UNL     1      52.032   5.654  17.225  0.00  0.00    +0.000 OA
ATOM     12  H   UNL     1      49.511   4.296  18.596  0.00  0.00    +0.000 HD
BRANCH  10  13
ATOM     13  C   UNL     1      51.768   3.372  17.707  0.00  0.00    +0.000 A 
ATOM     14  C   UNL     1      53.039   3.041  18.182  0.00  0.00    +0.000 A 
ATOM     15  C   UNL     1      53.422   1.702  18.238  0.00  0.00    +0.000 A 
ATOM     16  C   UNL     1      52.517   0.739  17.822  0.00  0.00    +0.000 A 
ATOM     17  N   UNL     1      51.276   1.022  17.373  0.00  0.00    +0.000 NA
ATOM     18  C   UNL     1      50.922   2.336  17.337  0.00  0.00    +0.000 A 
ENDBRANCH  10  13
ENDBRANCH   8   9
ENDBRANCH   5   8
ENDBRANCH   1   2
BRANCH   1  20
ATOM     19  N   UNL     1      50.465   7.343  11.677  0.00  0.00    +0.000 N 
ATOM     20  C   UNL     1      49.539   8.352  11.800  0.00  0.00    +0.000 C 
ATOM     21  O   UNL     1      49.834   9.488  11.440  0.00  0.00    +0.000 OA
ATOM     22  H   UNL     1      51.382   7.660  11.388  0.00  0.00    +0.000 HD
ATOM     23  H   UNL     1      50.478   6.657  12.432  0.00  0.00    +0.000 HD
ENDBRANCH   1  20
BRANCH   1  24
ATOM     24  N   UNL     1      47.545   6.873  11.783  0.00  0.00    +0.000 N 
ATOM     25  C   UNL     1      46.189   6.898  11.547  0.00  0.00    +0.000 C 
ATOM     26  O   UNL     1      45.494   7.867  11.840  0.00  0.00    +0.000 OA
ATOM     27  H   UNL     1      47.984   5.962  11.857  0.00  0.00    +0.000 HD
BRANCH  25  28
ATOM     28  C   UNL     1      45.627   5.724  10.869  0.00  0.00    +0.000 A 
ATOM     29  C   UNL     1      45.791   5.560   9.500  0.00  0.00    +0.000 A 
ATOM     30  S   UNL     1      45.070   4.137   8.890  0.00  0.00    +0.000 S 
ATOM     31  C   UNL     1      44.476   3.712  10.427  0.00  0.00    +0.000 A 
ATOM     32  N   UNL     1      43.715   2.599  10.605  0.00  0.00    +0.000 NA
ATOM     33  C   UNL     1      43.315   2.415  11.819  0.00  0.00    +0.000 A 
ATOM     34  N   UNL     1      43.618   3.235  12.874  0.00  0.00    +0.000 N 
ATOM     35  C   UNL     1      44.405   4.353  12.747  0.00  0.00    +0.000 A 
ATOM     36  O   UNL     1      44.703   5.043  13.717  0.00  0.00    +0.000 OA
ATOM     37  C   UNL     1      44.857   4.623  11.397  0.00  0.00    +0.000 A 
ATOM     38  H   UNL     1      43.289   3.024  13.804  0.00  0.00    +0.000 HD
ENDBRANCH  25  28
ENDBRANCH   1  24
TORSDOF 7
ENDMDL
MODEL 8
REMARK VINA RESULT:    -6.978      3.979      7.216
REMARK INTER + INTRA:         -11.158
REMARK INTER:                  -9.593
REMARK INTRA:                  -1.565
REMARK UNBOUND:                -1.324
REMARK  Name = 
REMARK  7 active torsions:
REMARK  status: ('A' for Active; 'I' for Inactive)
REMARK    1  A    between atoms: C_2  and  C_4
REMARK    2  A    between atoms: C_4  and  N_5
REMARK    3  A    between atoms: C_4  and  C_18
REMARK    4  A    between atoms: C_6  and  C_8
REMARK    5  A    between atoms: C_21  and  C_22
REMARK    6  A    between atoms: C_22  and  N_23
REMARK    7  A    between atoms: C_24  and  C_26
REMARK                            x       y       z     vdW  Elec       q    Type
REMARK                         _______ _______ _______ _____ _____    ______ ____
ROOT
ATOM      1  C   UNL     1      48.974   7.632  14.900  0.00  0.00    +0.000 C 
ENDROOT
BRANCH   1   2
ATOM      2  C   UNL     1      47.874   7.278  13.902  0.00  0.00    +0.000 A 
ATOM      3  C   UNL     1      47.693   5.947  13.497  0.00  0.00    +0.000 A 
ATOM      4  C   UNL     1      46.737   5.608  12.531  0.00  0.00    +0.000 A 
ATOM      5  C   UNL     1      45.936   6.593  11.939  0.00  0.00    +0.000 A 
ATOM      6  C   UNL     1      46.070   7.915  12.381  0.00  0.00    +0.000 A 
ATOM      7  C   UNL     1      47.026   8.253  13.350  0.00  0.00    +0.000 A 
BRANCH   5   8
ATOM      8  C   UNL     1      44.979   6.245  10.825  0.00  0.00    +0.000 C 
BRANCH   8   9
ATOM      9  N   UNL     1      45.570   5.365   9.843  0.00  0.00    +0.000 N 
ATOM     10  C   UNL     1      44.999   4.133   9.580  0.00  0.00    +0.000 C 
ATOM     11  O   UNL     1      43.994   3.718  10.143  0.00  0.00    +0.000 OA
ATOM     12  H   UNL     1      46.231   5.761   9.191  0.00  0.00    +0.000 HD
BRANCH  10  13
ATOM     13  C   UNL     1      45.661   3.313   8.540  0.00  0.00    +0.000 A 
ATOM     14  C   UNL     1      46.181   3.866   7.367  0.00  0.00    +0.000 A 
ATOM     15  C   UNL     1      46.799   3.036   6.434  0.00  0.00    +0.000 A 
ATOM     16  C   UNL     1      46.880   1.680   6.709  0.00  0.00    +0.000 A 
ATOM     17  N   UNL     1      46.402   1.115   7.838  0.00  0.00    +0.000 NA
ATOM     18  C   UNL     1      45.812   1.948   8.738  0.00  0.00    +0.000 A 
ENDBRANCH  10  13
ENDBRANCH   8   9
ENDBRANCH   5   8
ENDBRANCH   1   2
BRANCH   1  20
ATOM     19  N   UNL     1      48.092   6.846  17.075  0.00  0.00    +0.000 N 
ATOM     20  C   UNL     1      49.029   6.628  16.093  0.00  0.00    +0.000 C 
ATOM     21  O   UNL     1      49.876   5.754  16.251  0.00  0.00    +0.000 OA
ATOM     22  H   UNL     1      48.255   6.318  17.923  0.00  0.00    +0.000 HD
ATOM     23  H   UNL     1      47.832   7.820  17.233  0.00  0.00    +0.000 HD
ENDBRANCH   1  20
BRANCH   1  24
ATOM     24  N   UNL     1      50.271   7.708  14.234  0.00  0.00    +0.000 N 
ATOM     25  C   UNL     1      50.842   8.915  13.901  0.00  0.00    +0.000 C 
ATOM     26  O   UNL     1      50.350   9.987  14.245  0.00  0.00    +0.000 OA
ATOM     27  H   UNL     1      50.499   6.912  13.649  0.00  0.00    +0.000 HD
BRANCH  25  28
ATOM     28  C   UNL     1      52.109   8.852  13.163  0.00  0.00    +0.000 A 
ATOM     29  C   UNL     1      53.272   9.366  13.721  0.00  0.00    +0.000 A 
ATOM     30  S   UNL     1      54.644   9.202  12.717  0.00  0.00    +0.000 S 
ATOM     31  C   UNL     1      53.723   8.476  11.484  0.00  0.00    +0.000 A 
ATOM     32  N   UNL     1      54.290   8.119  10.300  0.00  0.00    +0.000 NA
ATOM     33  C   UNL     1      53.467   7.601   9.450  0.00  0.00    +0.000 A 
ATOM     34  N   UNL     1      52.132   7.395   9.680  0.00  0.00    +0.000 N 
ATOM     35  C   UNL     1      51.524   7.712  10.870  0.00  0.00    +0.000 A 
ATOM     36  O   UNL     1      50.338   7.471  11.070  0.00  0.00    +0.000 OA
ATOM     37  C   UNL     1      52.398   8.326  11.850  0.00  0.00    +0.000 A 
ATOM     38  H   UNL     1      51.547   6.966   8.979  0.00  0.00    +0.000 HD
ENDBRANCH  25  28
ENDBRANCH   1  24
TORSDOF 7
ENDMDL
MODEL 9
REMARK VINA RESULT:    -6.941      3.645      6.541
REMARK INTER + INTRA:         -11.105
REMARK INTER:                  -9.852
REMARK INTRA:                  -1.253
REMARK UNBOUND:                -1.324
REMARK  Name = 
REMARK  7 active torsions:
REMARK  status: ('A' for Active; 'I' for Inactive)
REMARK    1  A    between atoms: C_2  and  C_4
REMARK    2  A    between atoms: C_4  and  N_5
REMARK    3  A    between atoms: C_4  and  C_18
REMARK    4  A    between atoms: C_6  and  C_8
REMARK    5  A    between atoms: C_21  and  C_22
REMARK    6  A    between atoms: C_22  and  N_23
REMARK    7  A    between atoms: C_24  and  C_26
REMARK                            x       y       z     vdW  Elec       q    Type
REMARK                         _______ _______ _______ _____ _____    ______ ____
ROOT
ATOM      1  C   UNL     1      47.473   5.151  15.651  0.00  0.00    +0.000 C 
ENDROOT
BRANCH   1   2
ATOM      2  C   UNL     1      46.808   5.406  14.299  0.00  0.00    +0.000 A 
ATOM      3  C   UNL     1      45.705   4.636  13.902  0.00  0.00    +0.000 A 
ATOM      4  C   UNL     1      45.122   4.804  12.639  0.00  0.00    +0.000 A 
ATOM      5  C   UNL     1      45.631   5.746  11.735  0.00  0.00    +0.000 A 
ATOM      6  C   UNL     1      46.694   6.558  12.147  0.00  0.00    +0.000 A 
ATOM      7  C   UNL     1      47.276   6.391  13.412  0.00  0.00    +0.000 A 
BRANCH   5   8
ATOM      8  C   UNL     1      45.071   5.857  10.337  0.00  0.00    +0.000 C 
BRANCH   8   9
ATOM      9  N   UNL     1      45.743   4.983   9.402  0.00  0.00    +0.000 N 
ATOM     10  C   UNL     1      45.145   3.801   9.002  0.00  0.00    +0.000 C 
ATOM     11  O   UNL     1      44.049   3.428   9.400  0.00  0.00    +0.000 OA
ATOM     12  H   UNL     1      46.510   5.363   8.868  0.00  0.00    +0.000 HD
BRANCH  10  13
ATOM     13  C   UNL     1      45.898   2.987   8.022  0.00  0.00    +0.000 A 
ATOM     14  C   UNL     1      46.416   3.522   6.841  0.00  0.00    +0.000 A 
ATOM     15  C   UNL     1      47.123   2.698   5.967  0.00  0.00    +0.000 A 
ATOM     16  C   UNL     1      47.292   1.365   6.308  0.00  0.00    +0.000 A 
ATOM     17  N   UNL     1      46.818   0.818   7.448  0.00  0.00    +0.000 NA
ATOM     18  C   UNL     1      46.140   1.647   8.289  0.00  0.00    +0.000 A 
ENDBRANCH  10  13
ENDBRANCH   8   9
ENDBRANCH   5   8
ENDBRANCH   1   2
BRANCH   1  20
ATOM     19  N   UNL     1      47.905   2.726  15.418  0.00  0.00    +0.000 N 
ATOM     20  C   UNL     1      47.251   3.690  16.147  0.00  0.00    +0.000 C 
ATOM     21  O   UNL     1      46.489   3.350  17.048  0.00  0.00    +0.000 OA
ATOM     22  H   UNL     1      47.607   1.781  15.625  0.00  0.00    +0.000 HD
ATOM     23  H   UNL     1      48.016   2.920  14.422  0.00  0.00    +0.000 HD
ENDBRANCH   1  20
BRANCH   1  24
ATOM     24  N   UNL     1      48.898   5.461  15.591  0.00  0.00    +0.000 N 
ATOM     25  C   UNL     1      49.557   6.036  16.655  0.00  0.00    +0.000 C 
ATOM     26  O   UNL     1      49.012   6.214  17.742  0.00  0.00    +0.000 OA
ATOM     27  H   UNL     1      49.255   5.662  14.664  0.00  0.00    +0.000 HD
BRANCH  25  28
ATOM     28  C   UNL     1      50.970   6.371  16.439  0.00  0.00    +0.000 A 
ATOM     29  C   UNL     1      51.965   5.682  17.121  0.00  0.00    +0.000 A 
ATOM     30  S   UNL     1      53.544   6.209  16.740  0.00  0.00    +0.000 S 
ATOM     31  C   UNL     1      52.951   7.404  15.683  0.00  0.00    +0.000 A 
ATOM     32  N   UNL     1      53.794   8.259  15.043  0.00  0.00    +0.000 NA
ATOM     33  C   UNL     1      53.203   9.127  14.292  0.00  0.00    +0.000 A 
ATOM     34  N   UNL     1      51.847   9.210  14.111  0.00  0.00    +0.000 N 
ATOM     35  C   UNL     1      50.961   8.351  14.713  0.00  0.00    +0.000 A 
ATOM     36  O   UNL     1      49.756   8.414  14.495  0.00  0.00    +0.000 OA
ATOM     37  C   UNL     1      51.571   7.374  15.593  0.00  0.00    +0.000 A 
ATOM     38  H   UNL     1      51.450   9.901  13.493  0.00  0.00    +0.000 HD
ENDBRANCH  25  28
ENDBRANCH   1  24
TORSDOF 7
ENDMDL
