MODEL 1
REMARK VINA RESULT:    -6.307      0.000      0.000
REMARK INTER + INTRA:          -9.272
REMARK INTER:                  -8.335
REMARK INTRA:                  -0.937
REMARK UNBOUND:                -0.937
REMARK  Name = 
REMARK  6 active torsions:
REMARK  status: ('A' for Active; 'I' for Inactive)
REMARK    1  A    between atoms: N_1  and  C_2
REMARK    2  A    between atoms: C_3  and  C_4
REMARK    3  A    between atoms: C_8  and  O_9
REMARK    4  A    between atoms: O_9  and  C_10
REMARK    5  A    between atoms: C_10  and  C_11
REMARK    6  A    between atoms: C_15  and  C_16
REMARK                            x       y       z     vdW  Elec       q    Type
REMARK                         _______ _______ _______ _____ _____    ______ ____
ROOT
ATOM      1  C   UNL     1      48.963   7.648  12.753  0.00  0.00    +0.000 C 
ATOM      2  C   UNL     1      49.877   7.395  11.554  0.00  0.00    +0.000 C 
ATOM      3  C   UNL     1      49.686   8.780  12.060  0.00  0.00    +0.000 C 
ENDROOT
BRANCH   1   4
ATOM      4  C   UNL     1      47.464   7.528  12.559  0.00  0.00    +0.000 A 
ATOM      5  C   UNL     1      46.638   8.597  12.193  0.00  0.00    +0.000 A 
ATOM      6  C   UNL     1      45.260   8.426  12.050  0.00  0.00    +0.000 A 
ATOM      7  C   UNL     1      44.669   7.190  12.333  0.00  0.00    +0.000 A 
ATOM      8  C   UNL     1      45.454   6.104  12.735  0.00  0.00    +0.000 A 
ATOM      9  C   UNL     1      46.841   6.294  12.781  0.00  0.00    +0.000 A 
BRANCH   8  10
ATOM     10  C   UNL     1      44.815   4.790  13.166  0.00  0.00    +0.000 C 
ATOM     11  C   UNL     1      45.423   3.565  12.454  0.00  0.00    +0.000 C 
ATOM     12  C   UNL     1      44.899   3.350  11.033  0.00  0.00    +0.000 C 
ATOM     13  N   UNL     1      43.438   3.372  10.943  0.00  0.00    +0.000 NA
ATOM     14  C   UNL     1      42.815   4.530  11.588  0.00  0.00    +0.000 C 
ATOM     15  C   UNL     1      43.287   4.756  13.024  0.00  0.00    +0.000 C 
ATOM     16  H   UNL     1      43.074   2.523  11.371  0.00  0.00    +0.000 HD
ENDBRANCH   8  10
ENDBRANCH   1   4
BRANCH   1  17
ATOM     17  O   UNL     1      49.520   6.938  13.892  0.00  0.00    +0.000 OA
BRANCH  17  22
ATOM     18  C   UNL     1      48.688   6.462  17.382  0.00  0.00    +0.000 A 
ATOM     19  C   UNL     1      48.788   7.763  17.835  0.00  0.00    +0.000 A 
ATOM     20  N   UNL     1      49.059   8.826  17.034  0.00  0.00    +0.000 NA
ATOM     21  C   UNL     1      49.290   8.556  15.719  0.00  0.00    +0.000 A 
ATOM     22  C   UNL     1      49.220   7.288  15.176  0.00  0.00    +0.000 A 
ATOM     23  C   UNL     1      48.871   6.227  16.026  0.00  0.00    +0.000 A 
BRANCH  18  25
ATOM     24  C   UNL     1      48.449   4.421  19.026  0.00  0.00    +0.000 C 
ATOM     25  C   UNL     1      48.518   5.395  18.317  0.00  0.00    +0.000 C 
BRANCH  24  26
ATOM     26  N   UNL     1      48.431   3.203  19.814  0.00  0.00    +0.000 N 
ATOM     27  H   UNL     1      48.407   2.355  19.268  0.00  0.00    +0.000 HD
ATOM     28  H   UNL     1      47.771   3.208  20.576  0.00  0.00    +0.000 HD
ENDBRANCH  24  26
ENDBRANCH  18  25
ENDBRANCH  17  22
ENDBRANCH   1  17
TORSDOF 6
ENDMDL
MODEL 2
REMARK VINA RESULT:    -6.253      3.503      5.679
REMARK INTER + INTRA:          -9.201
REMARK INTER:                  -8.900
REMARK INTRA:                  -0.300
REMARK UNBOUND:                -0.937
REMARK  Name = 
REMARK  6 active torsions:
REMARK  status: ('A' for Active; 'I' for Inactive)
REMARK    1  A    between atoms: N_1  and  C_2
REMARK    2  A    between atoms: C_3  and  C_4
REMARK    3  A    between atoms: C_8  and  O_9
REMARK    4  A    between atoms: O_9  and  C_10
REMARK    5  A    between atoms: C_10  and  C_11
REMARK    6  A    between atoms: C_15  and  C_16
REMARK                            x       y       z     vdW  Elec       q    Type
REMARK                         _______ _______ _______ _____ _____    ______ ____
ROOT
ATOM      1  C   UNL     1      48.098   7.917  12.475  0.00  0.00    +0.000 C 
ATOM      2  C   UNL     1      49.582   7.830  12.834  0.00  0.00    +0.000 C 
ATOM      3  C   UNL     1      49.164   7.839  11.407  0.00  0.00    +0.000 C 
ENDROOT
BRANCH   1   4
ATOM      4  C   UNL     1      47.224   6.699  12.708  0.00  0.00    +0.000 A 
ATOM      5  C   UNL     1      47.456   5.757  13.717  0.00  0.00    +0.000 A 
ATOM      6  C   UNL     1      46.626   4.645  13.867  0.00  0.00    +0.000 A 
ATOM      7  C   UNL     1      45.579   4.418  12.966  0.00  0.00    +0.000 A 
ATOM      8  C   UNL     1      45.335   5.318  11.923  0.00  0.00    +0.000 A 
ATOM      9  C   UNL     1      46.135   6.465  11.861  0.00  0.00    +0.000 A 
BRANCH   8  10
ATOM     10  C   UNL     1      44.281   5.023  10.863  0.00  0.00    +0.000 C 
ATOM     11  C   UNL     1      43.066   4.255  11.420  0.00  0.00    +0.000 C 
ATOM     12  C   UNL     1      43.307   2.754  11.594  0.00  0.00    +0.000 C 
ATOM     13  N   UNL     1      43.865   2.114  10.401  0.00  0.00    +0.000 NA
ATOM     14  C   UNL     1      45.035   2.797   9.846  0.00  0.00    +0.000 C 
ATOM     15  C   UNL     1      44.820   4.294   9.624  0.00  0.00    +0.000 C 
ATOM     16  H   UNL     1      43.141   2.072   9.687  0.00  0.00    +0.000 HD
ENDBRANCH   8  10
ENDBRANCH   1   4
BRANCH   1  17
ATOM     17  O   UNL     1      47.591   9.176  12.992  0.00  0.00    +0.000 OA
BRANCH  17  22
ATOM     18  C   UNL     1      44.776  10.624  11.238  0.00  0.00    +0.000 A 
ATOM     19  C   UNL     1      45.343  11.808  10.805  0.00  0.00    +0.000 A 
ATOM     20  N   UNL     1      46.643  12.143  11.005  0.00  0.00    +0.000 NA
ATOM     21  C   UNL     1      47.397  11.264  11.720  0.00  0.00    +0.000 A 
ATOM     22  C   UNL     1      46.917  10.061  12.201  0.00  0.00    +0.000 A 
ATOM     23  C   UNL     1      45.586   9.722  11.914  0.00  0.00    +0.000 A 
BRANCH  18  25
ATOM     24  C   UNL     1      42.195  10.145  11.057  0.00  0.00    +0.000 C 
ATOM     25  C   UNL     1      43.371  10.412  11.087  0.00  0.00    +0.000 C 
BRANCH  24  26
ATOM     26  N   UNL     1      40.796   9.766  11.105  0.00  0.00    +0.000 N 
ATOM     27  H   UNL     1      40.627   8.843  11.477  0.00  0.00    +0.000 HD
ATOM     28  H   UNL     1      40.282   9.957  10.259  0.00  0.00    +0.000 HD
ENDBRANCH  24  26
ENDBRANCH  18  25
ENDBRANCH  17  22
ENDBRANCH   1  17
TORSDOF 6
ENDMDL
MODEL 3
REMARK VINA RESULT:    -5.976      1.899      6.658
REMARK INTER + INTRA:          -8.835
REMARK INTER:                  -7.987
REMARK INTRA:                  -0.848
REMARK UNBOUND:                -0.937
REMARK  Name = 
REMARK  6 active torsions:
REMARK  status: ('A' for Active; 'I' for Inactive)
REMARK    1  A    between atoms: N_1  and  C_2
REMARK    2  A    between atoms: C_3  and  C_4
REMARK    3  A    between atoms: C_8  and  O_9
REMARK    4  A    between atoms: O_9  and  C_10
REMARK    5  A    between atoms: C_10  and  C_11
REMARK    6  A    between atoms: C_15  and  C_16
REMARK                            x       y       z     vdW  Elec       q    Type
REMARK                         _______ _______ _______ _____ _____    ______ ____
ROOT
ATOM      1  C   UNL     1      48.048   7.828  12.760  0.00  0.00    +0.000 C 
ATOM      2  C   UNL     1      48.820   8.683  11.754  0.00  0.00    +0.000 C 
ATOM      3  C   UNL     1      49.178   7.252  11.939  0.00  0.00    +0.000 C 
ENDROOT
BRANCH   1   4
ATOM      4  C   UNL     1      48.282   8.062  14.240  0.00  0.00    +0.000 A 
ATOM      5  C   UNL     1      48.345   9.331  14.826  0.00  0.00    +0.000 A 
ATOM      6  C   UNL     1      48.584   9.481  16.194  0.00  0.00    +0.000 A 
ATOM      7  C   UNL     1      48.831   8.359  16.994  0.00  0.00    +0.000 A 
ATOM      8  C   UNL     1      48.811   7.075  16.440  0.00  0.00    +0.000 A 
ATOM      9  C   UNL     1      48.480   6.963  15.084  0.00  0.00    +0.000 A 
BRANCH   8  10
ATOM     10  C   UNL     1      49.198   5.856  17.269  0.00  0.00    +0.000 C 
ATOM     11  C   UNL     1      48.694   4.532  16.663  0.00  0.00    +0.000 C 
ATOM     12  C   UNL     1      47.217   4.246  16.938  0.00  0.00    +0.000 C 
ATOM     13  N   UNL     1      46.852   4.380  18.350  0.00  0.00    +0.000 NA
ATOM     14  C   UNL     1      47.293   5.634  18.965  0.00  0.00    +0.000 C 
ATOM     15  C   UNL     1      48.774   5.936  18.742  0.00  0.00    +0.000 C 
ATOM     16  H   UNL     1      47.259   3.602  18.864  0.00  0.00    +0.000 HD
ENDBRANCH   8  10
ENDBRANCH   1   4
BRANCH   1  17
ATOM     17  O   UNL     1      46.660   7.784  12.331  0.00  0.00    +0.000 OA
BRANCH  17  22
ATOM     18  C   UNL     1      45.303   4.921  10.581  0.00  0.00    +0.000 A 
ATOM     19  C   UNL     1      44.866   4.167  11.653  0.00  0.00    +0.000 A 
ATOM     20  N   UNL     1      44.934   4.577  12.946  0.00  0.00    +0.000 NA
ATOM     21  C   UNL     1      45.518   5.785  13.174  0.00  0.00    +0.000 A 
ATOM     22  C   UNL     1      45.993   6.605  12.168  0.00  0.00    +0.000 A 
ATOM     23  C   UNL     1      45.841   6.175  10.842  0.00  0.00    +0.000 A 
BRANCH  18  25
ATOM     24  C   UNL     1      45.421   3.842   8.184  0.00  0.00    +0.000 C 
ATOM     25  C   UNL     1      45.301   4.358   9.268  0.00  0.00    +0.000 C 
BRANCH  24  26
ATOM     26  N   UNL     1      45.657   3.185   6.913  0.00  0.00    +0.000 N 
ATOM     27  H   UNL     1      46.266   3.693   6.289  0.00  0.00    +0.000 HD
ATOM     28  H   UNL     1      44.826   2.834   6.463  0.00  0.00    +0.000 HD
ENDBRANCH  24  26
ENDBRANCH  18  25
ENDBRANCH  17  22
ENDBRANCH   1  17
TORSDOF 6
ENDMDL
MODEL 4
REMARK VINA RESULT:    -5.880      1.752      2.541
REMARK INTER + INTRA:          -8.708
REMARK INTER:                  -8.176
REMARK INTRA:                  -0.532
REMARK UNBOUND:                -0.937
REMARK  Name = 
REMARK  6 active torsions:
REMARK  status: ('A' for Active; 'I' for Inactive)
REMARK    1  A    between atoms: N_1  and  C_2
REMARK    2  A    between atoms: C_3  and  C_4
REMARK    3  A    between atoms: C_8  and  O_9
REMARK    4  A    between atoms: O_9  and  C_10
REMARK    5  A    between atoms: C_10  and  C_11
REMARK    6  A    between atoms: C_15  and  C_16
REMARK                            x       y       z     vdW  Elec       q    Type
REMARK                         _______ _______ _______ _____ _____    ______ ____
ROOT
ATOM      1  C   UNL     1      48.987   7.313  14.574  0.00  0.00    +0.000 C 
ATOM      2  C   UNL     1      50.264   7.641  13.798  0.00  0.00    +0.000 C 
ATOM      3  C   UNL     1      49.785   8.563  14.862  0.00  0.00    +0.000 C 
ENDROOT
BRANCH   1   4
ATOM      4  C   UNL     1      47.653   7.459  13.867  0.00  0.00    +0.000 A 
ATOM      5  C   UNL     1      47.063   8.692  13.568  0.00  0.00    +0.000 A 
ATOM      6  C   UNL     1      45.821   8.761  12.934  0.00  0.00    +0.000 A 
ATOM      7  C   UNL     1      45.112   7.589  12.642  0.00  0.00    +0.000 A 
ATOM      8  C   UNL     1      45.652   6.338  12.956  0.00  0.00    +0.000 A 
ATOM      9  C   UNL     1      46.937   6.311  13.511  0.00  0.00    +0.000 A 
BRANCH   8  10
ATOM     10  C   UNL     1      44.842   5.062  12.759  0.00  0.00    +0.000 C 
ATOM     11  C   UNL     1      45.284   4.255  11.522  0.00  0.00    +0.000 C 
ATOM     12  C   UNL     1      44.743   4.799  10.199  0.00  0.00    +0.000 C 
ATOM     13  N   UNL     1      43.297   5.035  10.216  0.00  0.00    +0.000 NA
ATOM     14  C   UNL     1      42.832   5.817  11.364  0.00  0.00    +0.000 C 
ATOM     15  C   UNL     1      43.324   5.281  12.708  0.00  0.00    +0.000 C 
ATOM     16  H   UNL     1      42.823   4.135  10.219  0.00  0.00    +0.000 HD
ENDBRANCH   8  10
ENDBRANCH   1   4
BRANCH   1  17
ATOM     17  O   UNL     1      49.206   6.060  15.275  0.00  0.00    +0.000 OA
BRANCH  17  22
ATOM     18  C   UNL     1      47.833   6.526  18.592  0.00  0.00    +0.000 A 
ATOM     19  C   UNL     1      47.061   5.386  18.697  0.00  0.00    +0.000 A 
ATOM     20  N   UNL     1      47.007   4.416  17.748  0.00  0.00    +0.000 NA
ATOM     21  C   UNL     1      47.730   4.631  16.615  0.00  0.00    +0.000 A 
ATOM     22  C   UNL     1      48.525   5.743  16.415  0.00  0.00    +0.000 A 
ATOM     23  C   UNL     1      48.605   6.688  17.448  0.00  0.00    +0.000 A 
BRANCH  18  25
ATOM     24  C   UNL     1      47.598   8.318  20.505  0.00  0.00    +0.000 C 
ATOM     25  C   UNL     1      47.733   7.548  19.586  0.00  0.00    +0.000 C 
BRANCH  24  26
ATOM     26  N   UNL     1      47.405   9.164  21.667  0.00  0.00    +0.000 N 
ATOM     27  H   UNL     1      46.652   8.874  22.272  0.00  0.00    +0.000 HD
ATOM     28  H   UNL     1      47.402  10.152  21.469  0.00  0.00    +0.000 HD
ENDBRANCH  24  26
ENDBRANCH  18  25
ENDBRANCH  17  22
ENDBRANCH   1  17
TORSDOF 6
ENDMDL
MODEL 5
REMARK VINA RESULT:    -5.832      2.059      5.981
REMARK INTER + INTRA:          -8.643
REMARK INTER:                  -7.944
REMARK INTRA:                  -0.699
REMARK UNBOUND:                -0.937
REMARK  Name = 
REMARK  6 active torsions:
REMARK  status: ('A' for Active; 'I' for Inactive)
REMARK    1  A    between atoms: N_1  and  C_2
REMARK    2  A    between atoms: C_3  and  C_4
REMARK    3  A    between atoms: C_8  and  O_9
REMARK    4  A    between atoms: O_9  and  C_10
REMARK    5  A    between atoms: C_10  and  C_11
REMARK    6  A    between atoms: C_15  and  C_16
REMARK                            x       y       z     vdW  Elec       q    Type
REMARK                         _______ _______ _______ _____ _____    ______ ____
ROOT
ATOM      1  C   UNL     1      48.838   8.041  13.758  0.00  0.00    +0.000 C 
ATOM      2  C   UNL     1      49.451   9.302  13.148  0.00  0.00    +0.000 C 
ATOM      3  C   UNL     1      49.475   8.025  12.388  0.00  0.00    +0.000 C 
ENDROOT
BRANCH   1   4
ATOM      4  C   UNL     1      49.570   7.359  14.898  0.00  0.00    +0.000 A 
ATOM      5  C   UNL     1      50.934   7.531  15.160  0.00  0.00    +0.000 A 
ATOM      6  C   UNL     1      51.555   6.858  16.213  0.00  0.00    +0.000 A 
ATOM      7  C   UNL     1      50.833   5.946  16.992  0.00  0.00    +0.000 A 
ATOM      8  C   UNL     1      49.475   5.721  16.743  0.00  0.00    +0.000 A 
ATOM      9  C   UNL     1      48.870   6.481  15.734  0.00  0.00    +0.000 A 
BRANCH   8  10
ATOM     10  C   UNL     1      48.706   4.644  17.498  0.00  0.00    +0.000 C 
ATOM     11  C   UNL     1      49.615   3.521  18.034  0.00  0.00    +0.000 C 
ATOM     12  C   UNL     1      50.015   2.489  16.977  0.00  0.00    +0.000 C 
ATOM     13  N   UNL     1      48.878   1.965  16.218  0.00  0.00    +0.000 NA
ATOM     14  C   UNL     1      47.995   2.997  15.671  0.00  0.00    +0.000 C 
ATOM     15  C   UNL     1      47.545   4.026  16.707  0.00  0.00    +0.000 C 
ATOM     16  H   UNL     1      48.334   1.358  16.828  0.00  0.00    +0.000 HD
ENDBRANCH   8  10
ENDBRANCH   1   4
BRANCH   1  17
ATOM     17  O   UNL     1      47.422   8.293  13.967  0.00  0.00    +0.000 OA
BRANCH  17  22
ATOM     18  C   UNL     1      45.209   6.009  12.240  0.00  0.00    +0.000 A 
ATOM     19  C   UNL     1      44.481   6.904  11.481  0.00  0.00    +0.000 A 
ATOM     20  N   UNL     1      44.717   8.241  11.452  0.00  0.00    +0.000 NA
ATOM     21  C   UNL     1      45.703   8.704  12.268  0.00  0.00    +0.000 A 
ATOM     22  C   UNL     1      46.478   7.888  13.069  0.00  0.00    +0.000 A 
ATOM     23  C   UNL     1      46.247   6.506  13.017  0.00  0.00    +0.000 A 
BRANCH  18  25
ATOM     24  C   UNL     1      44.351   3.523  12.344  0.00  0.00    +0.000 C 
ATOM     25  C   UNL     1      44.811   4.638  12.298  0.00  0.00    +0.000 C 
BRANCH  24  26
ATOM     26  N   UNL     1      43.705   2.226  12.387  0.00  0.00    +0.000 N 
ATOM     27  H   UNL     1      43.530   1.817  11.481  0.00  0.00    +0.000 HD
ATOM     28  H   UNL     1      42.913   2.173  13.009  0.00  0.00    +0.000 HD
ENDBRANCH  24  26
ENDBRANCH  18  25
ENDBRANCH  17  22
ENDBRANCH   1  17
TORSDOF 6
ENDMDL
MODEL 6
REMARK VINA RESULT:    -5.818      1.331      2.728
REMARK INTER + INTRA:          -8.625
REMARK INTER:                  -7.833
REMARK INTRA:                  -0.792
REMARK UNBOUND:                -0.937
REMARK  Name = 
REMARK  6 active torsions:
REMARK  status: ('A' for Active; 'I' for Inactive)
REMARK    1  A    between atoms: N_1  and  C_2
REMARK    2  A    between atoms: C_3  and  C_4
REMARK    3  A    between atoms: C_8  and  O_9
REMARK    4  A    between atoms: O_9  and  C_10
REMARK    5  A    between atoms: C_10  and  C_11
REMARK    6  A    between atoms: C_15  and  C_16
REMARK                            x       y       z     vdW  Elec       q    Type
REMARK                         _______ _______ _______ _____ _____    ______ ____
ROOT
ATOM      1  C   UNL     1      48.992   7.678  12.986  0.00  0.00    +0.000 C 
ATOM      2  C   UNL     1      49.948   7.588  11.796  0.00  0.00    +0.000 C 
ATOM      3  C   UNL     1      49.709   8.898  12.457  0.00  0.00    +0.000 C 
ENDROOT
BRANCH   1   4
ATOM      4  C   UNL     1      47.503   7.552  12.729  0.00  0.00    +0.000 A 
ATOM      5  C   UNL     1      46.682   8.628  12.374  0.00  0.00    +0.000 A 
ATOM      6  C   UNL     1      45.312   8.452  12.172  0.00  0.00    +0.000 A 
ATOM      7  C   UNL     1      44.722   7.200  12.382  0.00  0.00    +0.000 A 
ATOM      8  C   UNL     1      45.503   6.106  12.770  0.00  0.00    +0.000 A 
ATOM      9  C   UNL     1      46.885   6.305  12.877  0.00  0.00    +0.000 A 
BRANCH   8  10
ATOM     10  C   UNL     1      44.861   4.770  13.124  0.00  0.00    +0.000 C 
ATOM     11  C   UNL     1      45.470   3.586  12.346  0.00  0.00    +0.000 C 
ATOM     12  C   UNL     1      44.951   3.453  10.913  0.00  0.00    +0.000 C 
ATOM     13  N   UNL     1      43.490   3.482  10.818  0.00  0.00    +0.000 NA
ATOM     14  C   UNL     1      42.867   4.602  11.526  0.00  0.00    +0.000 C 
ATOM     15  C   UNL     1      43.334   4.745  12.974  0.00  0.00    +0.000 C 
ATOM     16  H   UNL     1      43.124   2.611  11.197  0.00  0.00    +0.000 HD
ENDBRANCH   8  10
ENDBRANCH   1   4
BRANCH   1  17
ATOM     17  O   UNL     1      49.530   6.846  14.049  0.00  0.00    +0.000 OA
BRANCH  17  22
ATOM     18  C   UNL     1      48.528   8.666  17.013  0.00  0.00    +0.000 A 
ATOM     19  C   UNL     1      48.305   7.613  17.880  0.00  0.00    +0.000 A 
ATOM     20  N   UNL     1      48.527   6.311  17.564  0.00  0.00    +0.000 NA
ATOM     21  C   UNL     1      48.947   6.054  16.295  0.00  0.00    +0.000 A 
ATOM     22  C   UNL     1      49.190   7.038  15.357  0.00  0.00    +0.000 A 
ATOM     23  C   UNL     1      49.013   8.374  15.745  0.00  0.00    +0.000 A 
BRANCH  18  25
ATOM     24  C   UNL     1      47.817  11.134  17.585  0.00  0.00    +0.000 C 
ATOM     25  C   UNL     1      48.152   9.991  17.393  0.00  0.00    +0.000 C 
BRANCH  24  26
ATOM     26  N   UNL     1      47.392  12.514  17.716  0.00  0.00    +0.000 N 
ATOM     27  H   UNL     1      46.391  12.644  17.716  0.00  0.00    +0.000 HD
ATOM     28  H   UNL     1      47.879  13.160  17.114  0.00  0.00    +0.000 HD
ENDBRANCH  24  26
ENDBRANCH  18  25
ENDBRANCH  17  22
ENDBRANCH   1  17
TORSDOF 6
ENDMDL
MODEL 7
REMARK VINA RESULT:    -5.680      3.710      5.885
REMARK INTER + INTRA:          -8.443
REMARK INTER:                  -8.466
REMARK INTRA:                   0.022
REMARK UNBOUND:                -0.937
REMARK  Name = 
REMARK  6 active torsions:
REMARK  status: ('A' for Active; 'I' for Inactive)
REMARK    1  A    between atoms: N_1  and  C_2
REMARK    2  A    between atoms: C_3  and  C_4
REMARK    3  A    between atoms: C_8  and  O_9
REMARK    4  A    between atoms: O_9  and  C_10
REMARK    5  A    between atoms: C_10  and  C_11
REMARK    6  A    between atoms: C_15  and  C_16
REMARK                            x       y       z     vdW  Elec       q    Type
REMARK                         _______ _______ _______ _____ _____    ______ ____
ROOT
ATOM      1  C   UNL     1      44.414   5.041  10.931  0.00  0.00    +0.000 C 
ATOM      2  C   UNL     1      42.979   5.562  11.021  0.00  0.00    +0.000 C 
ATOM      3  C   UNL     1      43.521   4.693  12.099  0.00  0.00    +0.000 C 
ENDROOT
BRANCH   1   4
ATOM      4  C   UNL     1      44.729   3.957   9.919  0.00  0.00    +0.000 A 
ATOM      5  C   UNL     1      44.354   2.617  10.073  0.00  0.00    +0.000 A 
ATOM      6  C   UNL     1      44.693   1.661   9.114  0.00  0.00    +0.000 A 
ATOM      7  C   UNL     1      45.472   2.016   8.007  0.00  0.00    +0.000 A 
ATOM      8  C   UNL     1      45.896   3.338   7.833  0.00  0.00    +0.000 A 
ATOM      9  C   UNL     1      45.461   4.283   8.771  0.00  0.00    +0.000 A 
BRANCH   8  10
ATOM     10  C   UNL     1      46.846   3.717   6.704  0.00  0.00    +0.000 C 
ATOM     11  C   UNL     1      46.364   3.227   5.324  0.00  0.00    +0.000 C 
ATOM     12  C   UNL     1      46.643   1.746   5.059  0.00  0.00    +0.000 C 
ATOM     13  N   UNL     1      48.030   1.359   5.329  0.00  0.00    +0.000 NA
ATOM     14  C   UNL     1      48.527   1.786   6.639  0.00  0.00    +0.000 C 
ATOM     15  C   UNL     1      48.297   3.269   6.924  0.00  0.00    +0.000 C 
ATOM     16  H   UNL     1      48.624   1.760   4.606  0.00  0.00    +0.000 HD
ENDBRANCH   8  10
ENDBRANCH   1   4
BRANCH   1  17
ATOM     17  O   UNL     1      45.302   6.191  10.935  0.00  0.00    +0.000 OA
BRANCH  17  22
ATOM     18  C   UNL     1      47.189   5.525  13.950  0.00  0.00    +0.000 A 
ATOM     19  C   UNL     1      48.305   6.303  13.715  0.00  0.00    +0.000 A 
ATOM     20  N   UNL     1      48.456   7.104  12.628  0.00  0.00    +0.000 NA
ATOM     21  C   UNL     1      47.453   7.079  11.708  0.00  0.00    +0.000 A 
ATOM     22  C   UNL     1      46.303   6.326  11.852  0.00  0.00    +0.000 A 
ATOM     23  C   UNL     1      46.158   5.566  13.022  0.00  0.00    +0.000 A 
BRANCH  18  25
ATOM     24  C   UNL     1      47.084   3.954  16.059  0.00  0.00    +0.000 C 
ATOM     25  C   UNL     1      47.171   4.624  15.060  0.00  0.00    +0.000 C 
BRANCH  24  26
ATOM     26  N   UNL     1      46.916   3.220  17.298  0.00  0.00    +0.000 N 
ATOM     27  H   UNL     1      47.775   2.869  17.694  0.00  0.00    +0.000 HD
ATOM     28  H   UNL     1      46.175   2.537  17.282  0.00  0.00    +0.000 HD
ENDBRANCH  24  26
ENDBRANCH  18  25
ENDBRANCH  17  22
ENDBRANCH   1  17
TORSDOF 6
ENDMDL
MODEL 8
REMARK VINA RESULT:    -5.585      2.772      3.765
REMARK INTER + INTRA:          -8.318
REMARK INTER:                  -8.389
REMARK INTRA:                   0.071
REMARK UNBOUND:                -0.937
REMARK  Name = 
REMARK  6 active torsions:
REMARK  status: ('A' for Active; 'I' for Inactive)
REMARK    1  A    between atoms: N_1  and  C_2
REMARK    2  A    between atoms: C_3  and  C_4
REMARK    3  A    between atoms: C_8  and  O_9
REMARK    4  A    between atoms: O_9  and  C_10
REMARK    5  A    between atoms: C_10  and  C_11
REMARK    6  A    between atoms: C_15  and  C_16
REMARK                            x       y       z     vdW  Elec       q    Type
REMARK                         _______ _______ _______ _____ _____    ______ ____
ROOT
ATOM      1  C   UNL     1      47.936   4.629  16.209  0.00  0.00    +0.000 C 
ATOM      2  C   UNL     1      46.973   3.917  17.160  0.00  0.00    +0.000 C 
ATOM      3  C   UNL     1      48.066   3.153  16.503  0.00  0.00    +0.000 C 
ENDROOT
BRANCH   1   4
ATOM      4  C   UNL     1      47.427   5.048  14.843  0.00  0.00    +0.000 A 
ATOM      5  C   UNL     1      47.750   6.265  14.233  0.00  0.00    +0.000 A 
ATOM      6  C   UNL     1      47.232   6.601  12.980  0.00  0.00    +0.000 A 
ATOM      7  C   UNL     1      46.326   5.749  12.339  0.00  0.00    +0.000 A 
ATOM      8  C   UNL     1      45.951   4.539  12.931  0.00  0.00    +0.000 A 
ATOM      9  C   UNL     1      46.560   4.199  14.145  0.00  0.00    +0.000 A 
BRANCH   8  10
ATOM     10  C   UNL     1      44.874   3.660  12.307  0.00  0.00    +0.000 C 
ATOM     11  C   UNL     1      45.061   3.466  10.790  0.00  0.00    +0.000 C 
ATOM     12  C   UNL     1      44.579   4.650   9.949  0.00  0.00    +0.000 C 
ATOM     13  N   UNL     1      43.223   5.088  10.286  0.00  0.00    +0.000 NA
ATOM     14  C   UNL     1      43.002   5.304  11.717  0.00  0.00    +0.000 C 
ATOM     15  C   UNL     1      43.439   4.127  12.587  0.00  0.00    +0.000 C 
ATOM     16  H   UNL     1      42.564   4.385   9.955  0.00  0.00    +0.000 HD
ENDBRANCH   8  10
ENDBRANCH   1   4
BRANCH   1  17
ATOM     17  O   UNL     1      48.637   5.649  16.971  0.00  0.00    +0.000 OA
BRANCH  17  22
ATOM     18  C   UNL     1      52.012   4.611  17.766  0.00  0.00    +0.000 A 
ATOM     19  C   UNL     1      52.729   5.543  17.040  0.00  0.00    +0.000 A 
ATOM     20  N   UNL     1      52.162   6.556  16.337  0.00  0.00    +0.000 NA
ATOM     21  C   UNL     1      50.801   6.602  16.323  0.00  0.00    +0.000 A 
ATOM     22  C   UNL     1      50.000   5.710  17.009  0.00  0.00    +0.000 A 
ATOM     23  C   UNL     1      50.628   4.720  17.779  0.00  0.00    +0.000 A 
BRANCH  18  25
ATOM     24  C   UNL     1      53.366   2.615  18.819  0.00  0.00    +0.000 C 
ATOM     25  C   UNL     1      52.690   3.511  18.376  0.00  0.00    +0.000 C 
BRANCH  24  26
ATOM     26  N   UNL     1      54.258   1.578  19.299  0.00  0.00    +0.000 N 
ATOM     27  H   UNL     1      54.401   1.581  20.299  0.00  0.00    +0.000 HD
ATOM     28  H   UNL     1      55.113   1.486  18.774  0.00  0.00    +0.000 HD
ENDBRANCH  24  26
ENDBRANCH  18  25
ENDBRANCH  17  22
ENDBRANCH   1  17
TORSDOF 6
ENDMDL
MODEL 9
REMARK VINA RESULT:    -5.462      3.625      7.871
REMARK INTER + INTRA:          -8.155
REMARK INTER:                  -7.546
REMARK INTRA:                  -0.609
REMARK UNBOUND:                -0.937
REMARK  Name = 
REMARK  6 active torsions:
REMARK  status: ('A' for Active; 'I' for Inactive)
REMARK    1  A    between atoms: N_1  and  C_2
REMARK    2  A    between atoms: C_3  and  C_4
REMARK    3  A    between atoms: C_8  and  O_9
REMARK    4  A    between atoms: O_9  and  C_10
REMARK    5  A    between atoms: C_10  and  C_11
REMARK    6  A    between atoms: C_15  and  C_16
REMARK                            x       y       z     vdW  Elec       q    Type
REMARK                         _______ _______ _______ _____ _____    ______ ____
ROOT
ATOM      1  C   UNL     1      45.846   7.742  12.272  0.00  0.00    +0.000 C 
ATOM      2  C   UNL     1      45.093   8.906  12.918  0.00  0.00    +0.000 C 
ATOM      3  C   UNL     1      45.005   8.690  11.449  0.00  0.00    +0.000 C 
ENDROOT
BRANCH   1   4
ATOM      4  C   UNL     1      47.355   7.833  12.153  0.00  0.00    +0.000 A 
ATOM      5  C   UNL     1      48.233   6.847  12.618  0.00  0.00    +0.000 A 
ATOM      6  C   UNL     1      49.615   7.000  12.498  0.00  0.00    +0.000 A 
ATOM      7  C   UNL     1      50.152   8.178  11.964  0.00  0.00    +0.000 A 
ATOM      8  C   UNL     1      49.309   9.202  11.519  0.00  0.00    +0.000 A 
ATOM      9  C   UNL     1      47.929   8.972  11.576  0.00  0.00    +0.000 A 
BRANCH   8  10
ATOM     10  C   UNL     1      49.876  10.537  11.051  0.00  0.00    +0.000 C 
ATOM     11  C   UNL     1      51.155  10.945  11.808  0.00  0.00    +0.000 C 
ATOM     12  C   UNL     1      50.892  11.545  13.191  0.00  0.00    +0.000 C 
ATOM     13  N   UNL     1      49.891  12.614  13.180  0.00  0.00    +0.000 NA
ATOM     14  C   UNL     1      48.649  12.265  12.488  0.00  0.00    +0.000 C 
ATOM     15  C   UNL     1      48.870  11.696  11.087  0.00  0.00    +0.000 C 
ATOM     16  H   UNL     1      50.298  13.433  12.732  0.00  0.00    +0.000 HD
ENDBRANCH   8  10
ENDBRANCH   1   4
BRANCH   1  17
ATOM     17  O   UNL     1      45.322   6.509  12.835  0.00  0.00    +0.000 OA
BRANCH  17  22
ATOM     18  C   UNL     1      44.821   4.379   9.951  0.00  0.00    +0.000 A 
ATOM     19  C   UNL     1      43.812   3.563  10.426  0.00  0.00    +0.000 A 
ATOM     20  N   UNL     1      43.227   3.709  11.642  0.00  0.00    +0.000 NA
ATOM     21  C   UNL     1      43.718   4.697  12.440  0.00  0.00    +0.000 A 
ATOM     22  C   UNL     1      44.729   5.557  12.058  0.00  0.00    +0.000 A 
ATOM     23  C   UNL     1      45.259   5.414  10.767  0.00  0.00    +0.000 A 
BRANCH  18  25
ATOM     24  C   UNL     1      46.096   3.890   7.702  0.00  0.00    +0.000 C 
ATOM     25  C   UNL     1      45.457   4.075   8.709  0.00  0.00    +0.000 C 
BRANCH  24  26
ATOM     26  N   UNL     1      46.943   3.716   6.538  0.00  0.00    +0.000 N 
ATOM     27  H   UNL     1      46.623   4.205   5.714  0.00  0.00    +0.000 HD
ATOM     28  H   UNL     1      47.214   2.762   6.357  0.00  0.00    +0.000 HD
ENDBRANCH  24  26
ENDBRANCH  18  25
ENDBRANCH  17  22
ENDBRANCH   1  17
TORSDOF 6
ENDMDL
