MODEL 1
REMARK VINA RESULT:    -8.189      0.000      0.000
REMARK INTER + INTRA:         -13.661
REMARK INTER:                 -12.497
REMARK INTRA:                  -1.164
REMARK UNBOUND:                -1.164
REMARK  Name = 
REMARK  9 active torsions:
REMARK  status: ('A' for Active; 'I' for Inactive)
REMARK    1  A    between atoms: C_2  and  C_3
REMARK    2  A    between atoms: C_3  and  C_4
REMARK    3  A    between atoms: C_4  and  N_5
REMARK    4  A    between atoms: C_4  and  C_13
REMARK    5  A    between atoms: N_5  and  C_6
REMARK    6  A    between atoms: C_6  and  C_7
REMARK    7  A    between atoms: C_16  and  C_17
REMARK    8  A    between atoms: C_17  and  N_18
REMARK    9  A    between atoms: C_19  and  C_21
REMARK                            x       y       z     vdW  Elec       q    Type
REMARK                         _______ _______ _______ _____ _____    ______ ____
ROOT
ATOM      1  C   UNL     1      45.612   4.477  11.941  0.00  0.00    +0.000 A 
ATOM      2  C   UNL     1      45.899   5.632  11.190  0.00  0.00    +0.000 A 
ATOM      3  C   UNL     1      46.684   6.654  11.722  0.00  0.00    +0.000 A 
ATOM      4  C   UNL     1      47.259   6.510  12.987  0.00  0.00    +0.000 A 
ATOM      5  C   UNL     1      46.996   5.354  13.731  0.00  0.00    +0.000 A 
ATOM      6  C   UNL     1      46.168   4.356  13.221  0.00  0.00    +0.000 A 
ENDROOT
BRANCH   1   7
ATOM      7  C   UNL     1      44.650   3.433  11.376  0.00  0.00    +0.000 C 
BRANCH   7   8
ATOM      8  N   UNL     1      44.504   3.579   9.904  0.00  0.00    +0.000 NA
ATOM      9  H   UNL     1      45.211   4.229   9.561  0.00  0.00    +0.000 HD
BRANCH   8  10
ATOM     10  C   UNL     1      44.703   2.299   9.202  0.00  0.00    +0.000 C 
BRANCH  10  11
ATOM     11  C   UNL     1      45.771   2.329   8.134  0.00  0.00    +0.000 A 
ATOM     12  C   UNL     1      46.552   1.181   7.908  0.00  0.00    +0.000 A 
ATOM     13  C   UNL     1      47.476   1.140   6.864  0.00  0.00    +0.000 A 
ATOM     14  C   UNL     1      47.625   2.245   6.030  0.00  0.00    +0.000 A 
ATOM     15  C   UNL     1      46.857   3.389   6.244  0.00  0.00    +0.000 A 
ATOM     16  C   UNL     1      45.931   3.431   7.288  0.00  0.00    +0.000 A 
ENDBRANCH  10  11
ENDBRANCH   8  10
ENDBRANCH   7   8
BRANCH   7  17
ATOM     17  C   UNL     1      43.257   3.450  12.069  0.00  0.00    +0.000 C 
BRANCH  17  19
ATOM     18  N   UNL     1      42.127   5.974  11.781  0.00  0.00    +0.000 NA
ATOM     19  C   UNL     1      42.639   4.830  11.913  0.00  0.00    +0.000 C 
ENDBRANCH  17  19
ENDBRANCH   7  17
ENDBRANCH   1   7
BRANCH   4  20
ATOM     20  C   UNL     1      48.086   7.610  13.590  0.00  0.00    +0.000 C 
BRANCH  20  21
ATOM     21  N   UNL     1      48.046   7.530  15.027  0.00  0.00    +0.000 N 
ATOM     22  C   UNL     1      49.136   7.117  15.743  0.00  0.00    +0.000 C 
ATOM     23  O   UNL     1      50.199   6.828  15.200  0.00  0.00    +0.000 OA
ATOM     24  H   UNL     1      47.130   7.541  15.467  0.00  0.00    +0.000 HD
BRANCH  22  25
ATOM     25  C   UNL     1      48.991   7.109  17.202  0.00  0.00    +0.000 A 
ATOM     26  C   UNL     1      48.844   8.310  17.880  0.00  0.00    +0.000 A 
ATOM     27  S   UNL     1      48.611   8.124  19.559  0.00  0.00    +0.000 S 
ATOM     28  C   UNL     1      48.755   6.432  19.445  0.00  0.00    +0.000 A 
ATOM     29  N   UNL     1      48.670   5.648  20.554  0.00  0.00    +0.000 NA
ATOM     30  C   UNL     1      48.829   4.389  20.331  0.00  0.00    +0.000 A 
ATOM     31  N   UNL     1      49.060   3.838  19.096  0.00  0.00    +0.000 N 
ATOM     32  C   UNL     1      49.131   4.585  17.943  0.00  0.00    +0.000 A 
ATOM     33  O   UNL     1      49.296   4.057  16.851  0.00  0.00    +0.000 OA
ATOM     34  C   UNL     1      48.964   6.014  18.142  0.00  0.00    +0.000 A 
ATOM     35  H   UNL     1      49.174   2.840  18.989  0.00  0.00    +0.000 HD
ENDBRANCH  22  25
ENDBRANCH  20  21
ENDBRANCH   4  20
TORSDOF 9
ENDMDL
MODEL 2
REMARK VINA RESULT:    -8.089      1.468      2.225
REMARK INTER + INTRA:         -13.509
REMARK INTER:                 -12.074
REMARK INTRA:                  -1.435
REMARK UNBOUND:                -1.164
REMARK  Name = 
REMARK  9 active torsions:
REMARK  status: ('A' for Active; 'I' for Inactive)
REMARK    1  A    between atoms: C_2  and  C_3
REMARK    2  A    between atoms: C_3  and  C_4
REMARK    3  A    between atoms: C_4  and  N_5
REMARK    4  A    between atoms: C_4  and  C_13
REMARK    5  A    between atoms: N_5  and  C_6
REMARK    6  A    between atoms: C_6  and  C_7
REMARK    7  A    between atoms: C_16  and  C_17
REMARK    8  A    between atoms: C_17  and  N_18
REMARK    9  A    between atoms: C_19  and  C_21
REMARK                            x       y       z     vdW  Elec       q    Type
REMARK                         _______ _______ _______ _____ _____    ______ ____
ROOT
ATOM      1  C   UNL     1      45.768   4.976  11.767  0.00  0.00    +0.000 A 
ATOM      2  C   UNL     1      46.118   4.485  13.039  0.00  0.00    +0.000 A 
ATOM      3  C   UNL     1      46.956   5.215  13.881  0.00  0.00    +0.000 A 
ATOM      4  C   UNL     1      47.403   6.482  13.499  0.00  0.00    +0.000 A 
ATOM      5  C   UNL     1      47.041   6.986  12.244  0.00  0.00    +0.000 A 
ATOM      6  C   UNL     1      46.247   6.234  11.381  0.00  0.00    +0.000 A 
ENDROOT
BRANCH   1   7
ATOM      7  C   UNL     1      44.948   4.098  10.823  0.00  0.00    +0.000 C 
BRANCH   7   8
ATOM      8  N   UNL     1      44.772   4.751   9.500  0.00  0.00    +0.000 NA
ATOM      9  H   UNL     1      45.642   5.213   9.237  0.00  0.00    +0.000 HD
BRANCH   8  10
ATOM     10  C   UNL     1      44.453   3.775   8.443  0.00  0.00    +0.000 C 
BRANCH  10  11
ATOM     11  C   UNL     1      45.643   3.005   7.922  0.00  0.00    +0.000 A 
ATOM     12  C   UNL     1      45.817   1.663   8.305  0.00  0.00    +0.000 A 
ATOM     13  C   UNL     1      46.847   0.893   7.763  0.00  0.00    +0.000 A 
ATOM     14  C   UNL     1      47.710   1.455   6.828  0.00  0.00    +0.000 A 
ATOM     15  C   UNL     1      47.549   2.785   6.439  0.00  0.00    +0.000 A 
ATOM     16  C   UNL     1      46.518   3.556   6.980  0.00  0.00    +0.000 A 
ENDBRANCH  10  11
ENDBRANCH   8  10
ENDBRANCH   7   8
BRANCH   7  17
ATOM     17  C   UNL     1      43.571   3.685  11.418  0.00  0.00    +0.000 C 
BRANCH  17  19
ATOM     18  N   UNL     1      42.044   5.967  11.854  0.00  0.00    +0.000 NA
ATOM     19  C   UNL     1      42.736   4.932  11.656  0.00  0.00    +0.000 C 
ENDBRANCH  17  19
ENDBRANCH   7  17
ENDBRANCH   1   7
BRANCH   4  20
ATOM     20  C   UNL     1      48.328   7.274  14.379  0.00  0.00    +0.000 C 
BRANCH  20  21
ATOM     21  N   UNL     1      48.136   6.908  15.758  0.00  0.00    +0.000 N 
ATOM     22  C   UNL     1      49.150   6.351  16.489  0.00  0.00    +0.000 C 
ATOM     23  O   UNL     1      50.269   6.169  16.017  0.00  0.00    +0.000 OA
ATOM     24  H   UNL     1      47.179   6.837  16.089  0.00  0.00    +0.000 HD
BRANCH  22  25
ATOM     25  C   UNL     1      48.850   6.051  17.893  0.00  0.00    +0.000 A 
ATOM     26  C   UNL     1      49.079   4.773  18.380  0.00  0.00    +0.000 A 
ATOM     27  S   UNL     1      48.752   4.607  20.046  0.00  0.00    +0.000 S 
ATOM     28  C   UNL     1      48.238   6.226  20.160  0.00  0.00    +0.000 A 
ATOM     29  N   UNL     1      47.798   6.737  21.341  0.00  0.00    +0.000 NA
ATOM     30  C   UNL     1      47.409   7.964  21.280  0.00  0.00    +0.000 A 
ATOM     31  N   UNL     1      47.427   8.732  20.144  0.00  0.00    +0.000 N 
ATOM     32  C   UNL     1      47.884   8.270  18.933  0.00  0.00    +0.000 A 
ATOM     33  O   UNL     1      47.926   8.996  17.948  0.00  0.00    +0.000 OA
ATOM     34  C   UNL     1      48.329   6.887  18.947  0.00  0.00    +0.000 A 
ATOM     35  H   UNL     1      47.109   9.691  20.166  0.00  0.00    +0.000 HD
ENDBRANCH  22  25
ENDBRANCH  20  21
ENDBRANCH   4  20
TORSDOF 9
ENDMDL
MODEL 3
REMARK VINA RESULT:    -7.734      1.890      2.456
REMARK INTER + INTRA:         -12.966
REMARK INTER:                 -11.784
REMARK INTRA:                  -1.182
REMARK UNBOUND:                -1.164
REMARK  Name = 
REMARK  9 active torsions:
REMARK  status: ('A' for Active; 'I' for Inactive)
REMARK    1  A    between atoms: C_2  and  C_3
REMARK    2  A    between atoms: C_3  and  C_4
REMARK    3  A    between atoms: C_4  and  N_5
REMARK    4  A    between atoms: C_4  and  C_13
REMARK    5  A    between atoms: N_5  and  C_6
REMARK    6  A    between atoms: C_6  and  C_7
REMARK    7  A    between atoms: C_16  and  C_17
REMARK    8  A    between atoms: C_17  and  N_18
REMARK    9  A    between atoms: C_19  and  C_21
REMARK                            x       y       z     vdW  Elec       q    Type
REMARK                         _______ _______ _______ _____ _____    ______ ____
ROOT
ATOM      1  C   UNL     1      45.766   4.627  12.247  0.00  0.00    +0.000 A 
ATOM      2  C   UNL     1      46.308   4.474  13.537  0.00  0.00    +0.000 A 
ATOM      3  C   UNL     1      47.124   5.459  14.091  0.00  0.00    +0.000 A 
ATOM      4  C   UNL     1      47.356   6.649  13.397  0.00  0.00    +0.000 A 
ATOM      5  C   UNL     1      46.802   6.817  12.123  0.00  0.00    +0.000 A 
ATOM      6  C   UNL     1      46.030   5.811  11.547  0.00  0.00    +0.000 A 
ENDROOT
BRANCH   1   7
ATOM      7  C   UNL     1      44.977   3.476  11.623  0.00  0.00    +0.000 C 
BRANCH   7   8
ATOM      8  N   UNL     1      44.927   3.602  10.142  0.00  0.00    +0.000 NA
ATOM      9  H   UNL     1      45.739   4.130   9.824  0.00  0.00    +0.000 HD
BRANCH   8  10
ATOM     10  C   UNL     1      44.965   2.287   9.478  0.00  0.00    +0.000 C 
BRANCH  10  11
ATOM     11  C   UNL     1      45.798   2.246   8.219  0.00  0.00    +0.000 A 
ATOM     12  C   UNL     1      45.881   3.393   7.409  0.00  0.00    +0.000 A 
ATOM     13  C   UNL     1      46.719   3.422   6.295  0.00  0.00    +0.000 A 
ATOM     14  C   UNL     1      47.491   2.307   5.983  0.00  0.00    +0.000 A 
ATOM     15  C   UNL     1      47.419   1.163   6.777  0.00  0.00    +0.000 A 
ATOM     16  C   UNL     1      46.580   1.133   7.892  0.00  0.00    +0.000 A 
ENDBRANCH  10  11
ENDBRANCH   8  10
ENDBRANCH   7   8
BRANCH   7  17
ATOM     17  C   UNL     1      43.544   3.332  12.210  0.00  0.00    +0.000 C 
BRANCH  17  19
ATOM     18  N   UNL     1      42.155   5.710  11.824  0.00  0.00    +0.000 NA
ATOM     19  C   UNL     1      42.785   4.632  11.999  0.00  0.00    +0.000 C 
ENDBRANCH  17  19
ENDBRANCH   7  17
ENDBRANCH   1   7
BRANCH   4  20
ATOM     20  C   UNL     1      48.253   7.712  13.964  0.00  0.00    +0.000 C 
BRANCH  20  21
ATOM     21  N   UNL     1      49.451   7.118  14.498  0.00  0.00    +0.000 N 
ATOM     22  C   UNL     1      49.845   7.357  15.786  0.00  0.00    +0.000 C 
ATOM     23  O   UNL     1      49.185   8.058  16.549  0.00  0.00    +0.000 OA
ATOM     24  H   UNL     1      50.115   6.735  13.832  0.00  0.00    +0.000 HD
BRANCH  22  25
ATOM     25  C   UNL     1      51.062   6.672  16.232  0.00  0.00    +0.000 A 
ATOM     26  C   UNL     1      52.301   7.163  15.848  0.00  0.00    +0.000 A 
ATOM     27  S   UNL     1      53.614   6.300  16.510  0.00  0.00    +0.000 S 
ATOM     28  C   UNL     1      52.570   5.204  17.289  0.00  0.00    +0.000 A 
ATOM     29  N   UNL     1      53.064   4.177  18.031  0.00  0.00    +0.000 NA
ATOM     30  C   UNL     1      52.166   3.404  18.538  0.00  0.00    +0.000 A 
ATOM     31  N   UNL     1      50.813   3.570  18.377  0.00  0.00    +0.000 N 
ATOM     32  C   UNL     1      50.265   4.604  17.657  0.00  0.00    +0.000 A 
ATOM     33  O   UNL     1      49.052   4.747  17.569  0.00  0.00    +0.000 OA
ATOM     34  C   UNL     1      51.238   5.502  17.058  0.00  0.00    +0.000 A 
ATOM     35  H   UNL     1      50.161   2.927  18.804  0.00  0.00    +0.000 HD
ENDBRANCH  22  25
ENDBRANCH  20  21
ENDBRANCH   4  20
TORSDOF 9
ENDMDL
MODEL 4
REMARK VINA RESULT:    -7.460      1.593      2.052
REMARK INTER + INTRA:         -12.549
REMARK INTER:                 -11.227
REMARK INTRA:                  -1.322
REMARK UNBOUND:                -1.164
REMARK  Name = 
REMARK  9 active torsions:
REMARK  status: ('A' for Active; 'I' for Inactive)
REMARK    1  A    between atoms: C_2  and  C_3
REMARK    2  A    between atoms: C_3  and  C_4
REMARK    3  A    between atoms: C_4  and  N_5
REMARK    4  A    between atoms: C_4  and  C_13
REMARK    5  A    between atoms: N_5  and  C_6
REMARK    6  A    between atoms: C_6  and  C_7
REMARK    7  A    between atoms: C_16  and  C_17
REMARK    8  A    between atoms: C_17  and  N_18
REMARK    9  A    between atoms: C_19  and  C_21
REMARK                            x       y       z     vdW  Elec       q    Type
REMARK                         _______ _______ _______ _____ _____    ______ ____
ROOT
ATOM      1  C   UNL     1      46.109   5.504  11.793  0.00  0.00    +0.000 A 
ATOM      2  C   UNL     1      46.407   5.069  13.098  0.00  0.00    +0.000 A 
ATOM      3  C   UNL     1      47.360   5.729  13.872  0.00  0.00    +0.000 A 
ATOM      4  C   UNL     1      47.983   6.881  13.384  0.00  0.00    +0.000 A 
ATOM      5  C   UNL     1      47.676   7.332  12.096  0.00  0.00    +0.000 A 
ATOM      6  C   UNL     1      46.762   6.641  11.302  0.00  0.00    +0.000 A 
ENDROOT
BRANCH   1   7
ATOM      7  C   UNL     1      45.150   4.686  10.929  0.00  0.00    +0.000 C 
BRANCH   7   8
ATOM      8  N   UNL     1      45.114   5.197   9.534  0.00  0.00    +0.000 NA
ATOM      9  H   UNL     1      46.062   5.440   9.243  0.00  0.00    +0.000 HD
BRANCH   8  10
ATOM     10  C   UNL     1      44.607   4.186   8.591  0.00  0.00    +0.000 C 
BRANCH  10  11
ATOM     11  C   UNL     1      45.656   3.233   8.070  0.00  0.00    +0.000 A 
ATOM     12  C   UNL     1      45.649   1.894   8.505  0.00  0.00    +0.000 A 
ATOM     13  C   UNL     1      46.538   0.964   7.968  0.00  0.00    +0.000 A 
ATOM     14  C   UNL     1      47.442   1.360   6.986  0.00  0.00    +0.000 A 
ATOM     15  C   UNL     1      47.460   2.683   6.547  0.00  0.00    +0.000 A 
ATOM     16  C   UNL     1      46.569   3.615   7.082  0.00  0.00    +0.000 A 
ENDBRANCH  10  11
ENDBRANCH   8  10
ENDBRANCH   7   8
BRANCH   7  17
ATOM     17  C   UNL     1      43.713   4.608  11.522  0.00  0.00    +0.000 C 
BRANCH  17  19
ATOM     18  N   UNL     1      42.968   1.941  11.763  0.00  0.00    +0.000 NA
ATOM     19  C   UNL     1      43.306   3.150  11.654  0.00  0.00    +0.000 C 
ENDBRANCH  17  19
ENDBRANCH   7  17
ENDBRANCH   1   7
BRANCH   4  20
ATOM     20  C   UNL     1      49.032   7.593  14.190  0.00  0.00    +0.000 C 
BRANCH  20  21
ATOM     21  N   UNL     1      49.125   7.015  15.505  0.00  0.00    +0.000 N 
ATOM     22  C   UNL     1      48.741   7.718  16.615  0.00  0.00    +0.000 C 
ATOM     23  O   UNL     1      48.276   8.852  16.537  0.00  0.00    +0.000 OA
ATOM     24  H   UNL     1      49.708   6.190  15.609  0.00  0.00    +0.000 HD
BRANCH  22  25
ATOM     25  C   UNL     1      48.847   7.017  17.898  0.00  0.00    +0.000 A 
ATOM     26  C   UNL     1      47.757   6.994  18.755  0.00  0.00    +0.000 A 
ATOM     27  S   UNL     1      48.016   6.075  20.167  0.00  0.00    +0.000 S 
ATOM     28  C   UNL     1      49.617   5.723  19.708  0.00  0.00    +0.000 A 
ATOM     29  N   UNL     1      50.423   4.972  20.507  0.00  0.00    +0.000 NA
ATOM     30  C   UNL     1      51.619   4.809  20.056  0.00  0.00    +0.000 A 
ATOM     31  N   UNL     1      52.084   5.324  18.872  0.00  0.00    +0.000 N 
ATOM     32  C   UNL     1      51.302   6.069  18.021  0.00  0.00    +0.000 A 
ATOM     33  O   UNL     1      51.736   6.478  16.951  0.00  0.00    +0.000 OA
ATOM     34  C   UNL     1      49.944   6.287  18.488  0.00  0.00    +0.000 A 
ATOM     35  H   UNL     1      53.034   5.157  18.575  0.00  0.00    +0.000 HD
ENDBRANCH  22  25
ENDBRANCH  20  21
ENDBRANCH   4  20
TORSDOF 9
ENDMDL
MODEL 5
REMARK VINA RESULT:    -7.299      3.435      9.326
REMARK INTER + INTRA:         -12.303
REMARK INTER:                 -10.306
REMARK INTRA:                  -1.996
REMARK UNBOUND:                -1.164
REMARK  Name = 
REMARK  9 active torsions:
REMARK  status: ('A' for Active; 'I' for Inactive)
REMARK    1  A    between atoms: C_2  and  C_3
REMARK    2  A    between atoms: C_3  and  C_4
REMARK    3  A    between atoms: C_4  and  N_5
REMARK    4  A    between atoms: C_4  and  C_13
REMARK    5  A    between atoms: N_5  and  C_6
REMARK    6  A    between atoms: C_6  and  C_7
REMARK    7  A    between atoms: C_16  and  C_17
REMARK    8  A    between atoms: C_17  and  N_18
REMARK    9  A    between atoms: C_19  and  C_21
REMARK                            x       y       z     vdW  Elec       q    Type
REMARK                         _______ _______ _______ _____ _____    ______ ____
ROOT
ATOM      1  C   UNL     1      50.243   5.052  17.705  0.00  0.00    +0.000 A 
ATOM      2  C   UNL     1      51.191   5.914  17.123  0.00  0.00    +0.000 A 
ATOM      3  C   UNL     1      50.805   6.882  16.196  0.00  0.00    +0.000 A 
ATOM      4  C   UNL     1      49.454   7.055  15.886  0.00  0.00    +0.000 A 
ATOM      5  C   UNL     1      48.503   6.216  16.478  0.00  0.00    +0.000 A 
ATOM      6  C   UNL     1      48.894   5.215  17.363  0.00  0.00    +0.000 A 
ENDROOT
BRANCH   1   7
ATOM      7  C   UNL     1      50.716   3.926  18.622  0.00  0.00    +0.000 C 
BRANCH   7   8
ATOM      8  N   UNL     1      51.624   4.441  19.680  0.00  0.00    +0.000 NA
ATOM      9  H   UNL     1      52.002   5.341  19.386  0.00  0.00    +0.000 HD
BRANCH   8  10
ATOM     10  C   UNL     1      50.917   4.653  20.956  0.00  0.00    +0.000 C 
BRANCH  10  11
ATOM     11  C   UNL     1      49.770   5.632  20.881  0.00  0.00    +0.000 A 
ATOM     12  C   UNL     1      50.028   6.971  20.533  0.00  0.00    +0.000 A 
ATOM     13  C   UNL     1      48.983   7.877  20.356  0.00  0.00    +0.000 A 
ATOM     14  C   UNL     1      47.667   7.453  20.518  0.00  0.00    +0.000 A 
ATOM     15  C   UNL     1      47.397   6.130  20.863  0.00  0.00    +0.000 A 
ATOM     16  C   UNL     1      48.442   5.221  21.040  0.00  0.00    +0.000 A 
ENDBRANCH  10  11
ENDBRANCH   8  10
ENDBRANCH   7   8
BRANCH   7  17
ATOM     17  C   UNL     1      51.383   2.752  17.850  0.00  0.00    +0.000 C 
BRANCH  17  19
ATOM     18  N   UNL     1      49.526   1.632  16.111  0.00  0.00    +0.000 NA
ATOM     19  C   UNL     1      50.368   2.139  16.899  0.00  0.00    +0.000 C 
ENDBRANCH  17  19
ENDBRANCH   7  17
ENDBRANCH   1   7
BRANCH   4  20
ATOM     20  C   UNL     1      49.018   8.073  14.871  0.00  0.00    +0.000 C 
BRANCH  20  21
ATOM     21  N   UNL     1      47.799   7.648  14.234  0.00  0.00    +0.000 N 
ATOM     22  C   UNL     1      47.819   6.780  13.176  0.00  0.00    +0.000 C 
ATOM     23  O   UNL     1      48.866   6.304  12.746  0.00  0.00    +0.000 OA
ATOM     24  H   UNL     1      46.963   8.195  14.420  0.00  0.00    +0.000 HD
BRANCH  22  25
ATOM     25  C   UNL     1      46.516   6.391  12.629  0.00  0.00    +0.000 A 
ATOM     26  C   UNL     1      45.692   7.359  12.075  0.00  0.00    +0.000 A 
ATOM     27  S   UNL     1      44.249   6.734  11.416  0.00  0.00    +0.000 S 
ATOM     28  C   UNL     1      44.650   5.152  11.901  0.00  0.00    +0.000 A 
ATOM     29  N   UNL     1      43.809   4.112  11.654  0.00  0.00    +0.000 NA
ATOM     30  C   UNL     1      44.220   2.975  12.102  0.00  0.00    +0.000 A 
ATOM     31  N   UNL     1      45.402   2.782  12.771  0.00  0.00    +0.000 N 
ATOM     32  C   UNL     1      46.295   3.796  13.024  0.00  0.00    +0.000 A 
ATOM     33  O   UNL     1      47.362   3.580  13.587  0.00  0.00    +0.000 OA
ATOM     34  C   UNL     1      45.875   5.100  12.544  0.00  0.00    +0.000 A 
ATOM     35  H   UNL     1      45.666   1.862  13.095  0.00  0.00    +0.000 HD
ENDBRANCH  22  25
ENDBRANCH  20  21
ENDBRANCH   4  20
TORSDOF 9
ENDMDL
MODEL 6
REMARK VINA RESULT:    -7.237      3.517      8.565
REMARK INTER + INTRA:         -12.209
REMARK INTER:                 -10.004
REMARK INTRA:                  -2.205
REMARK UNBOUND:                -1.164
REMARK  Name = 
REMARK  9 active torsions:
REMARK  status: ('A' for Active; 'I' for Inactive)
REMARK    1  A    between atoms: C_2  and  C_3
REMARK    2  A    between atoms: C_3  and  C_4
REMARK    3  A    between atoms: C_4  and  N_5
REMARK    4  A    between atoms: C_4  and  C_13
REMARK    5  A    between atoms: N_5  and  C_6
REMARK    6  A    between atoms: C_6  and  C_7
REMARK    7  A    between atoms: C_16  and  C_17
REMARK    8  A    between atoms: C_17  and  N_18
REMARK    9  A    between atoms: C_19  and  C_21
REMARK                            x       y       z     vdW  Elec       q    Type
REMARK                         _______ _______ _______ _____ _____    ______ ____
ROOT
ATOM      1  C   UNL     1      48.721   7.634  16.380  0.00  0.00    +0.000 A 
ATOM      2  C   UNL     1      48.877   6.536  15.514  0.00  0.00    +0.000 A 
ATOM      3  C   UNL     1      48.723   6.684  14.136  0.00  0.00    +0.000 A 
ATOM      4  C   UNL     1      48.482   7.947  13.590  0.00  0.00    +0.000 A 
ATOM      5  C   UNL     1      48.348   9.048  14.444  0.00  0.00    +0.000 A 
ATOM      6  C   UNL     1      48.449   8.891  15.824  0.00  0.00    +0.000 A 
ENDROOT
BRANCH   1   7
ATOM      7  C   UNL     1      48.776   7.413  17.891  0.00  0.00    +0.000 C 
BRANCH   7   8
ATOM      8  N   UNL     1      47.486   6.881  18.403  0.00  0.00    +0.000 NA
ATOM      9  H   UNL     1      46.876   6.668  17.614  0.00  0.00    +0.000 HD
BRANCH   8  10
ATOM     10  C   UNL     1      47.670   5.636  19.169  0.00  0.00    +0.000 C 
BRANCH  10  11
ATOM     11  C   UNL     1      48.137   4.458  18.347  0.00  0.00    +0.000 A 
ATOM     12  C   UNL     1      47.290   3.930  17.355  0.00  0.00    +0.000 A 
ATOM     13  C   UNL     1      47.727   2.910  16.511  0.00  0.00    +0.000 A 
ATOM     14  C   UNL     1      49.020   2.410  16.644  0.00  0.00    +0.000 A 
ATOM     15  C   UNL     1      49.869   2.925  17.623  0.00  0.00    +0.000 A 
ATOM     16  C   UNL     1      49.433   3.946  18.468  0.00  0.00    +0.000 A 
ENDBRANCH  10  11
ENDBRANCH   8  10
ENDBRANCH   7   8
BRANCH   7  17
ATOM     17  C   UNL     1      49.195   8.688  18.678  0.00  0.00    +0.000 C 
BRANCH  17  19
ATOM     18  N   UNL     1      47.019   9.611  20.143  0.00  0.00    +0.000 NA
ATOM     19  C   UNL     1      48.005   9.192  19.479  0.00  0.00    +0.000 C 
ENDBRANCH  17  19
ENDBRANCH   7  17
ENDBRANCH   1   7
BRANCH   4  20
ATOM     20  C   UNL     1      48.286   8.125  12.111  0.00  0.00    +0.000 C 
BRANCH  20  21
ATOM     21  N   UNL     1      47.586   6.993  11.563  0.00  0.00    +0.000 N 
ATOM     22  C   UNL     1      46.225   7.003  11.426  0.00  0.00    +0.000 C 
ATOM     23  O   UNL     1      45.547   7.980  11.733  0.00  0.00    +0.000 OA
ATOM     24  H   UNL     1      48.090   6.112  11.522  0.00  0.00    +0.000 HD
BRANCH  22  25
ATOM     25  C   UNL     1      45.623   5.809  10.825  0.00  0.00    +0.000 A 
ATOM     26  C   UNL     1      45.791   5.570   9.468  0.00  0.00    +0.000 A 
ATOM     27  S   UNL     1      45.097   4.105   8.940  0.00  0.00    +0.000 S 
ATOM     28  C   UNL     1      44.498   3.766  10.497  0.00  0.00    +0.000 A 
ATOM     29  N   UNL     1      43.773   2.640  10.737  0.00  0.00    +0.000 NA
ATOM     30  C   UNL     1      43.354   2.523  11.949  0.00  0.00    +0.000 A 
ATOM     31  N   UNL     1      43.598   3.428  12.950  0.00  0.00    +0.000 N 
ATOM     32  C   UNL     1      44.343   4.569  12.764  0.00  0.00    +0.000 A 
ATOM     33  O   UNL     1      44.578   5.334  13.691  0.00  0.00    +0.000 OA
ATOM     34  C   UNL     1      44.835   4.751  11.410  0.00  0.00    +0.000 A 
ATOM     35  H   UNL     1      43.241   3.275  13.883  0.00  0.00    +0.000 HD
ENDBRANCH  22  25
ENDBRANCH  20  21
ENDBRANCH   4  20
TORSDOF 9
ENDMDL
MODEL 7
REMARK VINA RESULT:    -7.114      3.245      8.992
REMARK INTER + INTRA:         -12.020
REMARK INTER:                  -9.730
REMARK INTRA:                  -2.290
REMARK UNBOUND:                -1.164
REMARK  Name = 
REMARK  9 active torsions:
REMARK  status: ('A' for Active; 'I' for Inactive)
REMARK    1  A    between atoms: C_2  and  C_3
REMARK    2  A    between atoms: C_3  and  C_4
REMARK    3  A    between atoms: C_4  and  N_5
REMARK    4  A    between atoms: C_4  and  C_13
REMARK    5  A    between atoms: N_5  and  C_6
REMARK    6  A    between atoms: C_6  and  C_7
REMARK    7  A    between atoms: C_16  and  C_17
REMARK    8  A    between atoms: C_17  and  N_18
REMARK    9  A    between atoms: C_19  and  C_21
REMARK                            x       y       z     vdW  Elec       q    Type
REMARK                         _______ _______ _______ _____ _____    ______ ____
ROOT
ATOM      1  C   UNL     1      48.809   8.042  16.075  0.00  0.00    +0.000 A 
ATOM      2  C   UNL     1      49.287   6.990  15.272  0.00  0.00    +0.000 A 
ATOM      3  C   UNL     1      48.905   6.879  13.936  0.00  0.00    +0.000 A 
ATOM      4  C   UNL     1      48.095   7.859  13.356  0.00  0.00    +0.000 A 
ATOM      5  C   UNL     1      47.635   8.921  14.143  0.00  0.00    +0.000 A 
ATOM      6  C   UNL     1      47.973   9.002  15.492  0.00  0.00    +0.000 A 
ENDROOT
BRANCH   1   7
ATOM      7  C   UNL     1      49.150   8.063  17.565  0.00  0.00    +0.000 C 
BRANCH   7   8
ATOM      8  N   UNL     1      48.107   7.369  18.364  0.00  0.00    +0.000 NA
ATOM      9  H   UNL     1      47.370   7.042  17.739  0.00  0.00    +0.000 HD
BRANCH   8  10
ATOM     10  C   UNL     1      48.647   6.191  19.066  0.00  0.00    +0.000 C 
BRANCH  10  11
ATOM     11  C   UNL     1      48.593   4.908  18.271  0.00  0.00    +0.000 A 
ATOM     12  C   UNL     1      47.436   4.604  17.530  0.00  0.00    +0.000 A 
ATOM     13  C   UNL     1      47.390   3.481  16.706  0.00  0.00    +0.000 A 
ATOM     14  C   UNL     1      48.503   2.651  16.606  0.00  0.00    +0.000 A 
ATOM     15  C   UNL     1      49.656   2.941  17.335  0.00  0.00    +0.000 A 
ATOM     16  C   UNL     1      49.704   4.066  18.160  0.00  0.00    +0.000 A 
ENDBRANCH  10  11
ENDBRANCH   8  10
ENDBRANCH   7   8
BRANCH   7  17
ATOM     17  C   UNL     1      49.394   9.499  18.112  0.00  0.00    +0.000 C 
BRANCH  17  19
ATOM     18  N   UNL     1      47.676   9.966  20.247  0.00  0.00    +0.000 NA
ATOM     19  C   UNL     1      48.455   9.755  19.280  0.00  0.00    +0.000 C 
ENDBRANCH  17  19
ENDBRANCH   7  17
ENDBRANCH   1   7
BRANCH   4  20
ATOM     20  C   UNL     1      47.650   7.747  11.925  0.00  0.00    +0.000 C 
BRANCH  20  21
ATOM     21  N   UNL     1      46.956   6.503  11.718  0.00  0.00    +0.000 N 
ATOM     22  C   UNL     1      45.596   6.421  11.854  0.00  0.00    +0.000 C 
ATOM     23  O   UNL     1      44.909   7.402  12.126  0.00  0.00    +0.000 OA
ATOM     24  H   UNL     1      47.514   5.655  11.721  0.00  0.00    +0.000 HD
BRANCH  22  25
ATOM     25  C   UNL     1      44.994   5.112  11.585  0.00  0.00    +0.000 A 
ATOM     26  C   UNL     1      44.310   4.455  12.598  0.00  0.00    +0.000 A 
ATOM     27  S   UNL     1      43.605   2.983  12.104  0.00  0.00    +0.000 S 
ATOM     28  C   UNL     1      44.239   3.145  10.532  0.00  0.00    +0.000 A 
ATOM     29  N   UNL     1      44.017   2.191   9.588  0.00  0.00    +0.000 NA
ATOM     30  C   UNL     1      44.580   2.423   8.452  0.00  0.00    +0.000 A 
ATOM     31  N   UNL     1      45.341   3.529   8.171  0.00  0.00    +0.000 N 
ATOM     32  C   UNL     1      45.575   4.531   9.083  0.00  0.00    +0.000 A 
ATOM     33  O   UNL     1      46.224   5.526   8.784  0.00  0.00    +0.000 OA
ATOM     34  C   UNL     1      44.966   4.313  10.383  0.00  0.00    +0.000 A 
ATOM     35  H   UNL     1      45.754   3.651   7.257  0.00  0.00    +0.000 HD
ENDBRANCH  22  25
ENDBRANCH  20  21
ENDBRANCH   4  20
TORSDOF 9
ENDMDL
MODEL 8
REMARK VINA RESULT:    -6.948      3.798      5.913
REMARK INTER + INTRA:         -11.767
REMARK INTER:                 -10.694
REMARK INTRA:                  -1.073
REMARK UNBOUND:                -1.164
REMARK  Name = 
REMARK  9 active torsions:
REMARK  status: ('A' for Active; 'I' for Inactive)
REMARK    1  A    between atoms: C_2  and  C_3
REMARK    2  A    between atoms: C_3  and  C_4
REMARK    3  A    between atoms: C_4  and  N_5
REMARK    4  A    between atoms: C_4  and  C_13
REMARK    5  A    between atoms: N_5  and  C_6
REMARK    6  A    between atoms: C_6  and  C_7
REMARK    7  A    between atoms: C_16  and  C_17
REMARK    8  A    between atoms: C_17  and  N_18
REMARK    9  A    between atoms: C_19  and  C_21
REMARK                            x       y       z     vdW  Elec       q    Type
REMARK                         _______ _______ _______ _____ _____    ______ ____
ROOT
ATOM      1  C   UNL     1      45.829   4.705  12.198  0.00  0.00    +0.000 A 
ATOM      2  C   UNL     1      46.358   4.492  13.484  0.00  0.00    +0.000 A 
ATOM      3  C   UNL     1      47.227   5.417  14.062  0.00  0.00    +0.000 A 
ATOM      4  C   UNL     1      47.527   6.608  13.396  0.00  0.00    +0.000 A 
ATOM      5  C   UNL     1      46.986   6.836  12.125  0.00  0.00    +0.000 A 
ATOM      6  C   UNL     1      46.160   5.888  11.525  0.00  0.00    +0.000 A 
ENDROOT
BRANCH   1   7
ATOM      7  C   UNL     1      44.978   3.615  11.546  0.00  0.00    +0.000 C 
BRANCH   7   8
ATOM      8  N   UNL     1      44.862   3.830  10.080  0.00  0.00    +0.000 NA
ATOM      9  H   UNL     1      45.710   4.284   9.741  0.00  0.00    +0.000 HD
BRANCH   8  10
ATOM     10  C   UNL     1      44.718   2.559   9.349  0.00  0.00    +0.000 C 
BRANCH  10  11
ATOM     11  C   UNL     1      45.670   2.392   8.189  0.00  0.00    +0.000 A 
ATOM     12  C   UNL     1      45.860   3.460   7.293  0.00  0.00    +0.000 A 
ATOM     13  C   UNL     1      46.805   3.377   6.271  0.00  0.00    +0.000 A 
ATOM     14  C   UNL     1      47.578   2.227   6.138  0.00  0.00    +0.000 A 
ATOM     15  C   UNL     1      47.401   1.161   7.019  0.00  0.00    +0.000 A 
ATOM     16  C   UNL     1      46.455   1.243   8.042  0.00  0.00    +0.000 A 
ENDBRANCH  10  11
ENDBRANCH   8  10
ENDBRANCH   7   8
BRANCH   7  17
ATOM     17  C   UNL     1      43.570   3.474  12.193  0.00  0.00    +0.000 C 
BRANCH  17  19
ATOM     18  N   UNL     1      42.129   5.813  11.762  0.00  0.00    +0.000 NA
ATOM     19  C   UNL     1      42.783   4.753  11.957  0.00  0.00    +0.000 C 
ENDBRANCH  17  19
ENDBRANCH   7  17
ENDBRANCH   1   7
BRANCH   4  20
ATOM     20  C   UNL     1      48.481   7.606  13.987  0.00  0.00    +0.000 C 
BRANCH  20  21
ATOM     21  N   UNL     1      48.903   8.546  12.982  0.00  0.00    +0.000 N 
ATOM     22  C   UNL     1      50.228   8.831  12.792  0.00  0.00    +0.000 C 
ATOM     23  O   UNL     1      51.112   8.280  13.442  0.00  0.00    +0.000 OA
ATOM     24  H   UNL     1      48.195   9.168  12.604  0.00  0.00    +0.000 HD
BRANCH  22  25
ATOM     25  C   UNL     1      50.541   9.778  11.717  0.00  0.00    +0.000 A 
ATOM     26  C   UNL     1      49.893  11.004  11.678  0.00  0.00    +0.000 A 
ATOM     27  S   UNL     1      50.424  12.017  10.414  0.00  0.00    +0.000 S 
ATOM     28  C   UNL     1      51.500  10.829   9.840  0.00  0.00    +0.000 A 
ATOM     29  N   UNL     1      52.268  11.054   8.741  0.00  0.00    +0.000 NA
ATOM     30  C   UNL     1      53.013  10.061   8.397  0.00  0.00    +0.000 A 
ATOM     31  N   UNL     1      53.065   8.860   9.057  0.00  0.00    +0.000 N 
ATOM     32  C   UNL     1      52.326   8.591  10.185  0.00  0.00    +0.000 A 
ATOM     33  O   UNL     1      52.429   7.523  10.776  0.00  0.00    +0.000 OA
ATOM     34  C   UNL     1      51.464   9.680  10.612  0.00  0.00    +0.000 A 
ATOM     35  H   UNL     1      53.673   8.120   8.735  0.00  0.00    +0.000 HD
ENDBRANCH  22  25
ENDBRANCH  20  21
ENDBRANCH   4  20
TORSDOF 9
ENDMDL
MODEL 9
REMARK VINA RESULT:    -6.913      4.224      5.399
REMARK INTER + INTRA:         -11.714
REMARK INTER:                 -10.487
REMARK INTRA:                  -1.227
REMARK UNBOUND:                -1.164
REMARK  Name = 
REMARK  9 active torsions:
REMARK  status: ('A' for Active; 'I' for Inactive)
REMARK    1  A    between atoms: C_2  and  C_3
REMARK    2  A    between atoms: C_3  and  C_4
REMARK    3  A    between atoms: C_4  and  N_5
REMARK    4  A    between atoms: C_4  and  C_13
REMARK    5  A    between atoms: N_5  and  C_6
REMARK    6  A    between atoms: C_6  and  C_7
REMARK    7  A    between atoms: C_16  and  C_17
REMARK    8  A    between atoms: C_17  and  N_18
REMARK    9  A    between atoms: C_19  and  C_21
REMARK                            x       y       z     vdW  Elec       q    Type
REMARK                         _______ _______ _______ _____ _____    ______ ____
ROOT
ATOM      1  C   UNL     1      45.179   5.454  11.219  0.00  0.00    +0.000 A 
ATOM      2  C   UNL     1      44.565   6.712  11.073  0.00  0.00    +0.000 A 
ATOM      3  C   UNL     1      45.057   7.830  11.745  0.00  0.00    +0.000 A 
ATOM      4  C   UNL     1      46.216   7.729  12.519  0.00  0.00    +0.000 A 
ATOM      5  C   UNL     1      46.844   6.486  12.651  0.00  0.00    +0.000 A 
ATOM      6  C   UNL     1      46.322   5.357  12.023  0.00  0.00    +0.000 A 
ENDROOT
BRANCH   1   7
ATOM      7  C   UNL     1      44.542   4.227  10.567  0.00  0.00    +0.000 C 
BRANCH   7   8
ATOM      8  N   UNL     1      44.385   4.419   9.102  0.00  0.00    +0.000 NA
ATOM      9  H   UNL     1      43.864   5.280   8.932  0.00  0.00    +0.000 HD
BRANCH   8  10
ATOM     10  C   UNL     1      45.685   4.548   8.422  0.00  0.00    +0.000 C 
BRANCH  10  11
ATOM     11  C   UNL     1      46.161   3.289   7.737  0.00  0.00    +0.000 A 
ATOM     12  C   UNL     1      46.824   3.386   6.499  0.00  0.00    +0.000 A 
ATOM     13  C   UNL     1      47.366   2.256   5.888  0.00  0.00    +0.000 A 
ATOM     14  C   UNL     1      47.256   1.015   6.510  0.00  0.00    +0.000 A 
ATOM     15  C   UNL     1      46.601   0.905   7.736  0.00  0.00    +0.000 A 
ATOM     16  C   UNL     1      46.060   2.036   8.350  0.00  0.00    +0.000 A 
ENDBRANCH  10  11
ENDBRANCH   8  10
ENDBRANCH   7   8
BRANCH   7  17
ATOM     17  C   UNL     1      43.186   3.828  11.217  0.00  0.00    +0.000 C 
BRANCH  17  19
ATOM     18  N   UNL     1      43.387   4.082  13.978  0.00  0.00    +0.000 NA
ATOM     19  C   UNL     1      43.296   3.967  12.726  0.00  0.00    +0.000 C 
ENDBRANCH  17  19
ENDBRANCH   7  17
ENDBRANCH   1   7
BRANCH   4  20
ATOM     20  C   UNL     1      46.749   8.915  13.272  0.00  0.00    +0.000 C 
BRANCH  20  21
ATOM     21  N   UNL     1      48.086   9.220  12.835  0.00  0.00    +0.000 N 
ATOM     22  C   UNL     1      48.313  10.121  11.830  0.00  0.00    +0.000 C 
ATOM     23  O   UNL     1      47.396  10.728  11.281  0.00  0.00    +0.000 OA
ATOM     24  H   UNL     1      48.822   8.576  13.109  0.00  0.00    +0.000 HD
BRANCH  22  25
ATOM     25  C   UNL     1      49.716  10.379  11.493  0.00  0.00    +0.000 A 
ATOM     26  C   UNL     1      50.147  11.687  11.326  0.00  0.00    +0.000 A 
ATOM     27  S   UNL     1      51.818  11.821  11.012  0.00  0.00    +0.000 S 
ATOM     28  C   UNL     1      52.011  10.130  11.033  0.00  0.00    +0.000 A 
ATOM     29  N   UNL     1      53.228   9.564  10.808  0.00  0.00    +0.000 NA
ATOM     30  C   UNL     1      53.227   8.275  10.820  0.00  0.00    +0.000 A 
ATOM     31  N   UNL     1      52.119   7.497  11.043  0.00  0.00    +0.000 N 
ATOM     32  C   UNL     1      50.874   8.022  11.298  0.00  0.00    +0.000 A 
ATOM     33  O   UNL     1      49.915   7.299  11.536  0.00  0.00    +0.000 OA
ATOM     34  C   UNL     1      50.821   9.473  11.289  0.00  0.00    +0.000 A 
ATOM     35  H   UNL     1      52.188   6.490  11.041  0.00  0.00    +0.000 HD
ENDBRANCH  22  25
ENDBRANCH  20  21
ENDBRANCH   4  20
TORSDOF 9
ENDMDL
