MODEL 1
REMARK VINA RESULT:    -7.602      0.000      0.000
REMARK INTER + INTRA:         -10.641
REMARK INTER:                  -9.825
REMARK INTRA:                  -0.817
REMARK UNBOUND:                -0.817
REMARK  Name = 
REMARK  5 active torsions:
REMARK  status: ('A' for Active; 'I' for Inactive)
REMARK    1  A    between atoms: C_2  and  C_4
REMARK    2  A    between atoms: C_8  and  C_9
REMARK    3  A    between atoms: C_9  and  S_10
REMARK    4  A    between atoms: S_10  and  C_11
REMARK    5  A    between atoms: C_15  and  N_16
REMARK                            x       y       z     vdW  Elec       q    Type
REMARK                         _______ _______ _______ _____ _____    ______ ____
ROOT
ATOM      1  S   UNL     1      43.406   4.491  11.594  0.00  0.00    +0.000 S 
ENDROOT
BRANCH   1   2
ATOM      2  C   UNL     1      44.912   4.648  12.537  0.00  0.00    +0.000 A 
ATOM      3  C   UNL     1      45.568   3.567  13.109  0.00  0.00    +0.000 A 
ATOM      4  N   UNL     1      46.757   3.649  13.747  0.00  0.00    +0.000 NA
ATOM      5  C   UNL     1      47.335   4.879  13.786  0.00  0.00    +0.000 A 
ATOM      6  C   UNL     1      46.792   6.052  13.252  0.00  0.00    +0.000 A 
ATOM      7  C   UNL     1      45.546   5.894  12.624  0.00  0.00    +0.000 A 
BRANCH   6   8
ATOM      8  N   UNL     1      47.428   7.277  13.297  0.00  0.00    +0.000 N 
ATOM      9  C   UNL     1      46.690   8.536  13.421  0.00  0.00    +0.000 C 
ATOM     10  C   UNL     1      46.859   9.381  12.161  0.00  0.00    +0.000 C 
ATOM     11  C   UNL     1      48.336   9.561  11.809  0.00  0.00    +0.000 C 
ATOM     12  C   UNL     1      49.043   8.210  11.716  0.00  0.00    +0.000 C 
ATOM     13  C   UNL     1      48.857   7.392  12.998  0.00  0.00    +0.000 C 
ENDBRANCH   6   8
ENDBRANCH   1   2
BRANCH   1  14
ATOM     14  C   UNL     1      43.679   2.917  10.715  0.00  0.00    +0.000 C 
BRANCH  14  19
ATOM     15  C   UNL     1      46.279   2.253   7.998  0.00  0.00    +0.000 A 
ATOM     16  C   UNL     1      46.392   3.542   7.497  0.00  0.00    +0.000 A 
ATOM     17  N   UNL     1      45.669   4.593   7.954  0.00  0.00    +0.000 NA
ATOM     18  C   UNL     1      44.816   4.348   8.975  0.00  0.00    +0.000 A 
ATOM     19  C   UNL     1      44.629   3.097   9.560  0.00  0.00    +0.000 A 
ATOM     20  C   UNL     1      45.390   2.032   9.055  0.00  0.00    +0.000 A 
BRANCH  15  22
ATOM     21  N   UNL     1      46.717  -0.105   7.602  0.00  0.00    +0.000 N 
ATOM     22  C   UNL     1      47.119   1.188   7.408  0.00  0.00    +0.000 C 
ATOM     23  O   UNL     1      48.107   1.449   6.737  0.00  0.00    +0.000 OA
ATOM     24  H   UNL     1      47.240  -0.812   7.099  0.00  0.00    +0.000 HD
ATOM     25  H   UNL     1      45.788  -0.346   7.915  0.00  0.00    +0.000 HD
ENDBRANCH  15  22
ENDBRANCH  14  19
ENDBRANCH   1  14
TORSDOF 5
ENDMDL
MODEL 2
REMARK VINA RESULT:    -7.459      3.077      7.099
REMARK INTER + INTRA:         -10.456
REMARK INTER:                  -9.748
REMARK INTRA:                  -0.708
REMARK UNBOUND:                -0.817
REMARK  Name = 
REMARK  5 active torsions:
REMARK  status: ('A' for Active; 'I' for Inactive)
REMARK    1  A    between atoms: C_2  and  C_4
REMARK    2  A    between atoms: C_8  and  C_9
REMARK    3  A    between atoms: C_9  and  S_10
REMARK    4  A    between atoms: S_10  and  C_11
REMARK    5  A    between atoms: C_15  and  N_16
REMARK                            x       y       z     vdW  Elec       q    Type
REMARK                         _______ _______ _______ _____ _____    ______ ____
ROOT
ATOM      1  S   UNL     1      45.419   6.754  12.619  0.00  0.00    +0.000 S 
ENDROOT
BRANCH   1   2
ATOM      2  C   UNL     1      44.807   5.140  12.168  0.00  0.00    +0.000 A 
ATOM      3  C   UNL     1      44.016   4.364  13.004  0.00  0.00    +0.000 A 
ATOM      4  N   UNL     1      43.465   3.182  12.649  0.00  0.00    +0.000 NA
ATOM      5  C   UNL     1      43.695   2.771  11.374  0.00  0.00    +0.000 A 
ATOM      6  C   UNL     1      44.467   3.449  10.425  0.00  0.00    +0.000 A 
ATOM      7  C   UNL     1      45.025   4.658  10.871  0.00  0.00    +0.000 A 
BRANCH   6   8
ATOM      8  N   UNL     1      44.654   3.001   9.132  0.00  0.00    +0.000 N 
ATOM      9  C   UNL     1      44.867   1.586   8.818  0.00  0.00    +0.000 C 
ATOM     10  C   UNL     1      46.270   1.370   8.255  0.00  0.00    +0.000 C 
ATOM     11  C   UNL     1      46.548   2.313   7.084  0.00  0.00    +0.000 C 
ATOM     12  C   UNL     1      46.286   3.765   7.480  0.00  0.00    +0.000 C 
ATOM     13  C   UNL     1      44.870   3.946   8.035  0.00  0.00    +0.000 C 
ENDBRANCH   6   8
ENDBRANCH   1   2
BRANCH   1  14
ATOM     14  C   UNL     1      47.221   6.480  12.623  0.00  0.00    +0.000 C 
BRANCH  14  19
ATOM     15  C   UNL     1      47.858   4.717  15.950  0.00  0.00    +0.000 A 
ATOM     16  C   UNL     1      48.617   5.701  16.567  0.00  0.00    +0.000 A 
ATOM     17  N   UNL     1      48.957   6.871  15.974  0.00  0.00    +0.000 NA
ATOM     18  C   UNL     1      48.496   7.075  14.719  0.00  0.00    +0.000 A 
ATOM     19  C   UNL     1      47.720   6.160  14.009  0.00  0.00    +0.000 A 
ATOM     20  C   UNL     1      47.394   4.957  14.653  0.00  0.00    +0.000 A 
BRANCH  15  22
ATOM     21  N   UNL     1      48.547   2.534  16.767  0.00  0.00    +0.000 N 
ATOM     22  C   UNL     1      47.560   3.479  16.702  0.00  0.00    +0.000 C 
ATOM     23  O   UNL     1      46.495   3.319  17.280  0.00  0.00    +0.000 OA
ATOM     24  H   UNL     1      48.367   1.745  17.377  0.00  0.00    +0.000 HD
ATOM     25  H   UNL     1      49.510   2.734  16.536  0.00  0.00    +0.000 HD
ENDBRANCH  15  22
ENDBRANCH  14  19
ENDBRANCH   1  14
TORSDOF 5
ENDMDL
MODEL 3
REMARK VINA RESULT:    -7.112      1.560      2.237
REMARK INTER + INTRA:         -10.007
REMARK INTER:                  -9.445
REMARK INTRA:                  -0.562
REMARK UNBOUND:                -0.817
REMARK  Name = 
REMARK  5 active torsions:
REMARK  status: ('A' for Active; 'I' for Inactive)
REMARK    1  A    between atoms: C_2  and  C_4
REMARK    2  A    between atoms: C_8  and  C_9
REMARK    3  A    between atoms: C_9  and  S_10
REMARK    4  A    between atoms: S_10  and  C_11
REMARK    5  A    between atoms: C_15  and  N_16
REMARK                            x       y       z     vdW  Elec       q    Type
REMARK                         _______ _______ _______ _____ _____    ______ ____
ROOT
ATOM      1  S   UNL     1      44.795   3.534  12.151  0.00  0.00    +0.000 S 
ENDROOT
BRANCH   1   2
ATOM      2  C   UNL     1      44.937   5.302  11.962  0.00  0.00    +0.000 A 
ATOM      3  C   UNL     1      43.883   6.113  11.563  0.00  0.00    +0.000 A 
ATOM      4  N   UNL     1      43.942   7.462  11.503  0.00  0.00    +0.000 NA
ATOM      5  C   UNL     1      45.113   8.031  11.894  0.00  0.00    +0.000 A 
ATOM      6  C   UNL     1      46.252   7.341  12.319  0.00  0.00    +0.000 A 
ATOM      7  C   UNL     1      46.126   5.943  12.336  0.00  0.00    +0.000 A 
BRANCH   6   8
ATOM      8  N   UNL     1      47.414   7.966  12.728  0.00  0.00    +0.000 N 
ATOM      9  C   UNL     1      48.462   8.362  11.785  0.00  0.00    +0.000 C 
ATOM     10  C   UNL     1      49.738   7.563  12.037  0.00  0.00    +0.000 C 
ATOM     11  C   UNL     1      50.162   7.644  13.504  0.00  0.00    +0.000 C 
ATOM     12  C   UNL     1      49.015   7.236  14.426  0.00  0.00    +0.000 C 
ATOM     13  C   UNL     1      47.754   8.061  14.149  0.00  0.00    +0.000 C 
ENDBRANCH   6   8
ENDBRANCH   1   2
BRANCH   1  14
ATOM     14  C   UNL     1      43.905   3.068  10.630  0.00  0.00    +0.000 C 
BRANCH  14  19
ATOM     15  C   UNL     1      46.334   2.040   7.868  0.00  0.00    +0.000 A 
ATOM     16  C   UNL     1      46.527   3.285   7.285  0.00  0.00    +0.000 A 
ATOM     17  N   UNL     1      45.907   4.415   7.702  0.00  0.00    +0.000 NA
ATOM     18  C   UNL     1      45.079   4.300   8.765  0.00  0.00    +0.000 A 
ATOM     19  C   UNL     1      44.819   3.104   9.432  0.00  0.00    +0.000 A 
ATOM     20  C   UNL     1      45.473   1.953   8.967  0.00  0.00    +0.000 A 
BRANCH  15  22
ATOM     21  N   UNL     1      47.984   1.129   6.333  0.00  0.00    +0.000 N 
ATOM     22  C   UNL     1      47.065   0.879   7.315  0.00  0.00    +0.000 C 
ATOM     23  O   UNL     1      46.890  -0.252   7.742  0.00  0.00    +0.000 OA
ATOM     24  H   UNL     1      48.551   0.341   6.045  0.00  0.00    +0.000 HD
ATOM     25  H   UNL     1      48.340   2.055   6.142  0.00  0.00    +0.000 HD
ENDBRANCH  15  22
ENDBRANCH  14  19
ENDBRANCH   1  14
TORSDOF 5
ENDMDL
MODEL 4
REMARK VINA RESULT:    -6.722      1.986      2.590
REMARK INTER + INTRA:          -9.504
REMARK INTER:                  -8.991
REMARK INTRA:                  -0.513
REMARK UNBOUND:                -0.817
REMARK  Name = 
REMARK  5 active torsions:
REMARK  status: ('A' for Active; 'I' for Inactive)
REMARK    1  A    between atoms: C_2  and  C_4
REMARK    2  A    between atoms: C_8  and  C_9
REMARK    3  A    between atoms: C_9  and  S_10
REMARK    4  A    between atoms: S_10  and  C_11
REMARK    5  A    between atoms: C_15  and  N_16
REMARK                            x       y       z     vdW  Elec       q    Type
REMARK                         _______ _______ _______ _____ _____    ______ ____
ROOT
ATOM      1  S   UNL     1      43.221   4.637  11.021  0.00  0.00    +0.000 S 
ENDROOT
BRANCH   1   2
ATOM      2  C   UNL     1      44.357   5.826  11.711  0.00  0.00    +0.000 A 
ATOM      3  C   UNL     1      45.559   5.473  12.310  0.00  0.00    +0.000 A 
ATOM      4  N   UNL     1      46.476   6.360  12.755  0.00  0.00    +0.000 NA
ATOM      5  C   UNL     1      46.187   7.674  12.561  0.00  0.00    +0.000 A 
ATOM      6  C   UNL     1      45.020   8.173  11.973  0.00  0.00    +0.000 A 
ATOM      7  C   UNL     1      44.104   7.195  11.554  0.00  0.00    +0.000 A 
BRANCH   6   8
ATOM      8  N   UNL     1      44.780   9.519  11.777  0.00  0.00    +0.000 N 
ATOM      9  C   UNL     1      43.629  10.003  11.012  0.00  0.00    +0.000 C 
ATOM     10  C   UNL     1      44.092  10.708   9.739  0.00  0.00    +0.000 C 
ATOM     11  C   UNL     1      45.128  11.788  10.050  0.00  0.00    +0.000 C 
ATOM     12  C   UNL     1      46.286  11.215  10.864  0.00  0.00    +0.000 C 
ATOM     13  C   UNL     1      45.786  10.521  12.134  0.00  0.00    +0.000 C 
ENDBRANCH   6   8
ENDBRANCH   1   2
BRANCH   1  14
ATOM     14  C   UNL     1      44.277   3.160  10.865  0.00  0.00    +0.000 C 
BRANCH  14  19
ATOM     15  C   UNL     1      46.342   2.060   7.847  0.00  0.00    +0.000 A 
ATOM     16  C   UNL     1      46.431   3.283   7.197  0.00  0.00    +0.000 A 
ATOM     17  N   UNL     1      45.848   4.420   7.650  0.00  0.00    +0.000 NA
ATOM     18  C   UNL     1      45.170   4.334   8.817  0.00  0.00    +0.000 A 
ATOM     19  C   UNL     1      45.025   3.162   9.557  0.00  0.00    +0.000 A 
ATOM     20  C   UNL     1      45.636   2.004   9.052  0.00  0.00    +0.000 A 
BRANCH  15  22
ATOM     21  N   UNL     1      47.857   1.125   6.191  0.00  0.00    +0.000 N 
ATOM     22  C   UNL     1      47.017   0.890   7.245  0.00  0.00    +0.000 C 
ATOM     23  O   UNL     1      46.868  -0.237   7.694  0.00  0.00    +0.000 OA
ATOM     24  H   UNL     1      48.393   0.330   5.865  0.00  0.00    +0.000 HD
ATOM     25  H   UNL     1      48.205   2.046   5.966  0.00  0.00    +0.000 HD
ENDBRANCH  15  22
ENDBRANCH  14  19
ENDBRANCH   1  14
TORSDOF 5
ENDMDL
MODEL 5
REMARK VINA RESULT:    -6.686      1.705      2.890
REMARK INTER + INTRA:          -9.457
REMARK INTER:                  -9.132
REMARK INTRA:                  -0.325
REMARK UNBOUND:                -0.817
REMARK  Name = 
REMARK  5 active torsions:
REMARK  status: ('A' for Active; 'I' for Inactive)
REMARK    1  A    between atoms: C_2  and  C_4
REMARK    2  A    between atoms: C_8  and  C_9
REMARK    3  A    between atoms: C_9  and  S_10
REMARK    4  A    between atoms: S_10  and  C_11
REMARK    5  A    between atoms: C_15  and  N_16
REMARK                            x       y       z     vdW  Elec       q    Type
REMARK                         _______ _______ _______ _____ _____    ______ ____
ROOT
ATOM      1  S   UNL     1      43.229   3.787  11.253  0.00  0.00    +0.000 S 
ENDROOT
BRANCH   1   2
ATOM      2  C   UNL     1      44.324   5.053  11.868  0.00  0.00    +0.000 A 
ATOM      3  C   UNL     1      44.088   6.411  11.702  0.00  0.00    +0.000 A 
ATOM      4  N   UNL     1      44.855   7.386  12.239  0.00  0.00    +0.000 NA
ATOM      5  C   UNL     1      45.897   6.978  13.009  0.00  0.00    +0.000 A 
ATOM      6  C   UNL     1      46.251   5.649  13.264  0.00  0.00    +0.000 A 
ATOM      7  C   UNL     1      45.424   4.690  12.657  0.00  0.00    +0.000 A 
BRANCH   6   8
ATOM      8  N   UNL     1      47.308   5.282  14.074  0.00  0.00    +0.000 N 
ATOM      9  C   UNL     1      47.292   4.053  14.870  0.00  0.00    +0.000 C 
ATOM     10  C   UNL     1      47.292   4.383  16.361  0.00  0.00    +0.000 C 
ATOM     11  C   UNL     1      48.433   5.336  16.716  0.00  0.00    +0.000 C 
ATOM     12  C   UNL     1      48.397   6.583  15.834  0.00  0.00    +0.000 C 
ATOM     13  C   UNL     1      48.403   6.215  14.347  0.00  0.00    +0.000 C 
ENDBRANCH   6   8
ENDBRANCH   1   2
BRANCH   1  14
ATOM     14  C   UNL     1      44.405   2.486  10.755  0.00  0.00    +0.000 C 
BRANCH  14  19
ATOM     15  C   UNL     1      46.539   2.318   7.592  0.00  0.00    +0.000 A 
ATOM     16  C   UNL     1      46.436   3.645   7.199  0.00  0.00    +0.000 A 
ATOM     17  N   UNL     1      45.707   4.572   7.865  0.00  0.00    +0.000 NA
ATOM     18  C   UNL     1      45.074   4.160   8.987  0.00  0.00    +0.000 A 
ATOM     19  C   UNL     1      45.116   2.856   9.478  0.00  0.00    +0.000 A 
ATOM     20  C   UNL     1      45.875   1.922   8.758  0.00  0.00    +0.000 A 
BRANCH  15  22
ATOM     21  N   UNL     1      48.510   1.906   6.230  0.00  0.00    +0.000 N 
ATOM     22  C   UNL     1      47.361   1.400   6.774  0.00  0.00    +0.000 C 
ATOM     23  O   UNL     1      47.055   0.227   6.623  0.00  0.00    +0.000 OA
ATOM     24  H   UNL     1      49.114   1.238   5.769  0.00  0.00    +0.000 HD
ATOM     25  H   UNL     1      48.925   2.772   6.542  0.00  0.00    +0.000 HD
ENDBRANCH  15  22
ENDBRANCH  14  19
ENDBRANCH   1  14
TORSDOF 5
ENDMDL
MODEL 6
REMARK VINA RESULT:    -6.537      2.847      6.705
REMARK INTER + INTRA:          -9.264
REMARK INTER:                  -8.613
REMARK INTRA:                  -0.652
REMARK UNBOUND:                -0.817
REMARK  Name = 
REMARK  5 active torsions:
REMARK  status: ('A' for Active; 'I' for Inactive)
REMARK    1  A    between atoms: C_2  and  C_4
REMARK    2  A    between atoms: C_8  and  C_9
REMARK    3  A    between atoms: C_9  and  S_10
REMARK    4  A    between atoms: S_10  and  C_11
REMARK    5  A    between atoms: C_15  and  N_16
REMARK                            x       y       z     vdW  Elec       q    Type
REMARK                         _______ _______ _______ _____ _____    ______ ____
ROOT
ATOM      1  S   UNL     1      45.550   7.034  12.820  0.00  0.00    +0.000 S 
ENDROOT
BRANCH   1   2
ATOM      2  C   UNL     1      44.921   5.421  12.394  0.00  0.00    +0.000 A 
ATOM      3  C   UNL     1      44.174   4.640  13.265  0.00  0.00    +0.000 A 
ATOM      4  N   UNL     1      43.610   3.458  12.933  0.00  0.00    +0.000 NA
ATOM      5  C   UNL     1      43.779   3.050  11.647  0.00  0.00    +0.000 A 
ATOM      6  C   UNL     1      44.503   3.733  10.665  0.00  0.00    +0.000 A 
ATOM      7  C   UNL     1      45.078   4.942  11.087  0.00  0.00    +0.000 A 
BRANCH   6   8
ATOM      8  N   UNL     1      44.628   3.289   9.363  0.00  0.00    +0.000 N 
ATOM      9  C   UNL     1      44.722   1.867   9.027  0.00  0.00    +0.000 C 
ATOM     10  C   UNL     1      46.092   1.548   8.433  0.00  0.00    +0.000 C 
ATOM     11  C   UNL     1      46.421   2.481   7.268  0.00  0.00    +0.000 C 
ATOM     12  C   UNL     1      46.283   3.944   7.686  0.00  0.00    +0.000 C 
ATOM     13  C   UNL     1      44.897   4.229   8.272  0.00  0.00    +0.000 C 
ENDBRANCH   6   8
ENDBRANCH   1   2
BRANCH   1  14
ATOM     14  C   UNL     1      47.310   6.676  13.138  0.00  0.00    +0.000 C 
BRANCH  14  19
ATOM     15  C   UNL     1      50.309   8.389  11.509  0.00  0.00    +0.000 A 
ATOM     16  C   UNL     1      49.775   9.662  11.374  0.00  0.00    +0.000 A 
ATOM     17  N   UNL     1      48.513   9.992  11.744  0.00  0.00    +0.000 NA
ATOM     18  C   UNL     1      47.763   9.011  12.296  0.00  0.00    +0.000 A 
ATOM     19  C   UNL     1      48.200   7.702  12.487  0.00  0.00    +0.000 A 
ATOM     20  C   UNL     1      49.509   7.396  12.085  0.00  0.00    +0.000 A 
BRANCH  15  22
ATOM     21  N   UNL     1      52.011   6.893  10.628  0.00  0.00    +0.000 N 
ATOM     22  C   UNL     1      51.698   8.153  11.060  0.00  0.00    +0.000 C 
ATOM     23  O   UNL     1      52.525   9.053  11.033  0.00  0.00    +0.000 OA
ATOM     24  H   UNL     1      52.931   6.779  10.221  0.00  0.00    +0.000 HD
ATOM     25  H   UNL     1      51.308   6.209  10.390  0.00  0.00    +0.000 HD
ENDBRANCH  15  22
ENDBRANCH  14  19
ENDBRANCH   1  14
TORSDOF 5
ENDMDL
MODEL 7
REMARK VINA RESULT:    -6.403      2.973      5.237
REMARK INTER + INTRA:          -9.091
REMARK INTER:                  -8.381
REMARK INTRA:                  -0.710
REMARK UNBOUND:                -0.817
REMARK  Name = 
REMARK  5 active torsions:
REMARK  status: ('A' for Active; 'I' for Inactive)
REMARK    1  A    between atoms: C_2  and  C_4
REMARK    2  A    between atoms: C_8  and  C_9
REMARK    3  A    between atoms: C_9  and  S_10
REMARK    4  A    between atoms: S_10  and  C_11
REMARK    5  A    between atoms: C_15  and  N_16
REMARK                            x       y       z     vdW  Elec       q    Type
REMARK                         _______ _______ _______ _____ _____    ______ ____
ROOT
ATOM      1  S   UNL     1      47.515   7.246  11.936  0.00  0.00    +0.000 S 
ENDROOT
BRANCH   1   2
ATOM      2  C   UNL     1      48.501   7.003  13.402  0.00  0.00    +0.000 A 
ATOM      3  C   UNL     1      49.721   7.631  13.613  0.00  0.00    +0.000 A 
ATOM      4  N   UNL     1      50.439   7.534  14.754  0.00  0.00    +0.000 NA
ATOM      5  C   UNL     1      49.888   6.791  15.750  0.00  0.00    +0.000 A 
ATOM      6  C   UNL     1      48.671   6.107  15.679  0.00  0.00    +0.000 A 
ATOM      7  C   UNL     1      47.991   6.235  14.457  0.00  0.00    +0.000 A 
BRANCH   6   8
ATOM      8  N   UNL     1      48.140   5.382  16.728  0.00  0.00    +0.000 N 
ATOM      9  C   UNL     1      48.557   5.596  18.116  0.00  0.00    +0.000 C 
ATOM     10  C   UNL     1      49.269   4.358  18.656  0.00  0.00    +0.000 C 
ATOM     11  C   UNL     1      48.425   3.100  18.450  0.00  0.00    +0.000 C 
ATOM     12  C   UNL     1      48.012   2.954  16.986  0.00  0.00    +0.000 C 
ATOM     13  C   UNL     1      47.297   4.210  16.480  0.00  0.00    +0.000 C 
ENDBRANCH   6   8
ENDBRANCH   1   2
BRANCH   1  14
ATOM     14  C   UNL     1      45.823   7.104  12.598  0.00  0.00    +0.000 C 
BRANCH  14  19
ATOM     15  C   UNL     1      44.634   3.950  10.801  0.00  0.00    +0.000 A 
ATOM     16  C   UNL     1      44.090   3.282  11.889  0.00  0.00    +0.000 A 
ATOM     17  N   UNL     1      44.109   3.765  13.155  0.00  0.00    +0.000 NA
ATOM     18  C   UNL     1      44.673   4.981  13.335  0.00  0.00    +0.000 A 
ATOM     19  C   UNL     1      45.241   5.743  12.315  0.00  0.00    +0.000 A 
ATOM     20  C   UNL     1      45.209   5.207  11.019  0.00  0.00    +0.000 A 
BRANCH  15  22
ATOM     21  N   UNL     1      44.188   4.106   8.417  0.00  0.00    +0.000 N 
ATOM     22  C   UNL     1      44.557   3.313   9.469  0.00  0.00    +0.000 C 
ATOM     23  O   UNL     1      44.850   2.138   9.302  0.00  0.00    +0.000 OA
ATOM     24  H   UNL     1      44.248   3.682   7.499  0.00  0.00    +0.000 HD
ATOM     25  H   UNL     1      44.195   5.114   8.465  0.00  0.00    +0.000 HD
ENDBRANCH  15  22
ENDBRANCH  14  19
ENDBRANCH   1  14
TORSDOF 5
ENDMDL
MODEL 8
REMARK VINA RESULT:    -6.396      3.578      5.092
REMARK INTER + INTRA:          -9.083
REMARK INTER:                  -8.488
REMARK INTRA:                  -0.595
REMARK UNBOUND:                -0.817
REMARK  Name = 
REMARK  5 active torsions:
REMARK  status: ('A' for Active; 'I' for Inactive)
REMARK    1  A    between atoms: C_2  and  C_4
REMARK    2  A    between atoms: C_8  and  C_9
REMARK    3  A    between atoms: C_9  and  S_10
REMARK    4  A    between atoms: S_10  and  C_11
REMARK    5  A    between atoms: C_15  and  N_16
REMARK                            x       y       z     vdW  Elec       q    Type
REMARK                         _______ _______ _______ _____ _____    ______ ____
ROOT
ATOM      1  S   UNL     1      47.617   6.831  12.789  0.00  0.00    +0.000 S 
ENDROOT
BRANCH   1   2
ATOM      2  C   UNL     1      47.573   5.669  14.140  0.00  0.00    +0.000 A 
ATOM      3  C   UNL     1      47.147   4.355  14.002  0.00  0.00    +0.000 A 
ATOM      4  N   UNL     1      47.193   3.433  14.989  0.00  0.00    +0.000 NA
ATOM      5  C   UNL     1      47.723   3.842  16.171  0.00  0.00    +0.000 A 
ATOM      6  C   UNL     1      48.192   5.129  16.451  0.00  0.00    +0.000 A 
ATOM      7  C   UNL     1      48.094   6.040  15.387  0.00  0.00    +0.000 A 
BRANCH   6   8
ATOM      8  N   UNL     1      48.745   5.494  17.664  0.00  0.00    +0.000 N 
ATOM      9  C   UNL     1      49.467   4.541  18.511  0.00  0.00    +0.000 C 
ATOM     10  C   UNL     1      48.714   4.313  19.819  0.00  0.00    +0.000 C 
ATOM     11  C   UNL     1      48.393   5.638  20.511  0.00  0.00    +0.000 C 
ATOM     12  C   UNL     1      47.659   6.585  19.563  0.00  0.00    +0.000 C 
ATOM     13  C   UNL     1      48.444   6.794  18.265  0.00  0.00    +0.000 C 
ENDBRANCH   6   8
ENDBRANCH   1   2
BRANCH   1  14
ATOM     14  C   UNL     1      45.858   7.285  12.631  0.00  0.00    +0.000 C 
BRANCH  14  19
ATOM     15  C   UNL     1      44.725   4.759  10.001  0.00  0.00    +0.000 A 
ATOM     16  C   UNL     1      43.563   4.320  10.619  0.00  0.00    +0.000 A 
ATOM     17  N   UNL     1      43.142   4.760  11.830  0.00  0.00    +0.000 NA
ATOM     18  C   UNL     1      43.904   5.699  12.436  0.00  0.00    +0.000 A 
ATOM     19  C   UNL     1      45.084   6.217  11.903  0.00  0.00    +0.000 A 
ATOM     20  C   UNL     1      45.491   5.732  10.651  0.00  0.00    +0.000 A 
BRANCH  15  22
ATOM     21  N   UNL     1      44.350   3.123   8.242  0.00  0.00    +0.000 N 
ATOM     22  C   UNL     1      45.079   4.195   8.681  0.00  0.00    +0.000 C 
ATOM     23  O   UNL     1      45.957   4.688   7.987  0.00  0.00    +0.000 OA
ATOM     24  H   UNL     1      44.532   2.822   7.293  0.00  0.00    +0.000 HD
ATOM     25  H   UNL     1      43.467   2.860   8.654  0.00  0.00    +0.000 HD
ENDBRANCH  15  22
ENDBRANCH  14  19
ENDBRANCH   1  14
TORSDOF 5
ENDMDL
MODEL 9
REMARK VINA RESULT:    -6.258      2.703      3.600
REMARK INTER + INTRA:          -8.904
REMARK INTER:                  -8.399
REMARK INTRA:                  -0.505
REMARK UNBOUND:                -0.817
REMARK  Name = 
REMARK  5 active torsions:
REMARK  status: ('A' for Active; 'I' for Inactive)
REMARK    1  A    between atoms: C_2  and  C_4
REMARK    2  A    between atoms: C_8  and  C_9
REMARK    3  A    between atoms: C_9  and  S_10
REMARK    4  A    between atoms: S_10  and  C_11
REMARK    5  A    between atoms: C_15  and  N_16
REMARK                            x       y       z     vdW  Elec       q    Type
REMARK                         _______ _______ _______ _____ _____    ______ ____
ROOT
ATOM      1  S   UNL     1      46.575   6.578  11.671  0.00  0.00    +0.000 S 
ENDROOT
BRANCH   1   2
ATOM      2  C   UNL     1      46.840   5.804  13.256  0.00  0.00    +0.000 A 
ATOM      3  C   UNL     1      46.284   4.583  13.610  0.00  0.00    +0.000 A 
ATOM      4  N   UNL     1      46.545   3.935  14.767  0.00  0.00    +0.000 NA
ATOM      5  C   UNL     1      47.437   4.531  15.602  0.00  0.00    +0.000 A 
ATOM      6  C   UNL     1      48.073   5.755  15.375  0.00  0.00    +0.000 A 
ATOM      7  C   UNL     1      47.738   6.381  14.164  0.00  0.00    +0.000 A 
BRANCH   6   8
ATOM      8  N   UNL     1      48.991   6.311  16.245  0.00  0.00    +0.000 N 
ATOM      9  C   UNL     1      49.899   7.386  15.840  0.00  0.00    +0.000 C 
ATOM     10  C   UNL     1      51.347   6.902  15.871  0.00  0.00    +0.000 C 
ATOM     11  C   UNL     1      51.692   6.276  17.223  0.00  0.00    +0.000 C 
ATOM     12  C   UNL     1      50.693   5.180  17.587  0.00  0.00    +0.000 C 
ATOM     13  C   UNL     1      49.253   5.701  17.550  0.00  0.00    +0.000 C 
ENDBRANCH   6   8
ENDBRANCH   1   2
BRANCH   1  14
ATOM     14  C   UNL     1      44.858   6.088  11.301  0.00  0.00    +0.000 C 
BRANCH  14  19
ATOM     15  C   UNL     1      45.504   3.444   8.622  0.00  0.00    +0.000 A 
ATOM     16  C   UNL     1      44.617   2.475   9.066  0.00  0.00    +0.000 A 
ATOM     17  N   UNL     1      43.854   2.606  10.179  0.00  0.00    +0.000 NA
ATOM     18  C   UNL     1      43.965   3.769  10.861  0.00  0.00    +0.000 A 
ATOM     19  C   UNL     1      44.817   4.812  10.501  0.00  0.00    +0.000 A 
ATOM     20  C   UNL     1      45.596   4.636   9.348  0.00  0.00    +0.000 A 
BRANCH  15  22
ATOM     21  N   UNL     1      46.848   1.936   7.270  0.00  0.00    +0.000 N 
ATOM     22  C   UNL     1      46.287   3.177   7.396  0.00  0.00    +0.000 C 
ATOM     23  O   UNL     1      46.396   4.012   6.510  0.00  0.00    +0.000 OA
ATOM     24  H   UNL     1      47.284   1.734   6.379  0.00  0.00    +0.000 HD
ATOM     25  H   UNL     1      46.567   1.150   7.840  0.00  0.00    +0.000 HD
ENDBRANCH  15  22
ENDBRANCH  14  19
ENDBRANCH   1  14
TORSDOF 5
ENDMDL
