MODEL 1
REMARK VINA RESULT:    -6.927      0.000      0.000
REMARK INTER + INTRA:          -9.287
REMARK INTER:                  -8.547
REMARK INTRA:                  -0.740
REMARK UNBOUND:                -0.740
REMARK  Name = 
REMARK  4 active torsions:
REMARK  status: ('A' for Active; 'I' for Inactive)
REMARK    1  A    between atoms: C_4  and  O_5
REMARK    2  A    between atoms: O_5  and  C_6
REMARK    3  A    between atoms: C_6  and  C_7
REMARK    4  A    between atoms: C_11  and  C_12
REMARK                            x       y       z     vdW  Elec       q    Type
REMARK                         _______ _______ _______ _____ _____    ______ ____
ROOT
ATOM      1  C   UNL     1      45.076   5.158  12.225  0.00  0.00    +0.000 A 
ATOM      2  C   UNL     1      45.608   4.158  13.055  0.00  0.00    +0.000 A 
ATOM      3  C   UNL     1      46.851   4.291  13.666  0.00  0.00    +0.000 A 
ATOM      4  C   UNL     1      47.614   5.431  13.429  0.00  0.00    +0.000 A 
ATOM      5  C   UNL     1      47.142   6.459  12.602  0.00  0.00    +0.000 A 
ATOM      6  C   UNL     1      45.854   6.320  12.052  0.00  0.00    +0.000 A 
ENDROOT
BRANCH   5   7
ATOM      7  C   UNL     1      48.010   7.600  12.237  0.00  0.00    +0.000 A 
ATOM      8  C   UNL     1      49.364   7.403  11.932  0.00  0.00    +0.000 A 
ATOM      9  C   UNL     1      50.141   8.485  11.542  0.00  0.00    +0.000 A 
ATOM     10  N   UNL     1      49.669   9.741  11.432  0.00  0.00    +0.000 NA
ATOM     11  C   UNL     1      48.365   9.922  11.723  0.00  0.00    +0.000 A 
ATOM     12  C   UNL     1      47.513   8.904  12.130  0.00  0.00    +0.000 A 
ENDBRANCH   5   7
BRANCH   1  13
ATOM     13  C   UNL     1      43.777   4.923  11.454  0.00  0.00    +0.000 C 
ATOM     14  C   UNL     1      42.439   5.352  12.053  0.00  0.00    +0.000 C 
ATOM     15  C   UNL     1      43.057   6.166  10.966  0.00  0.00    +0.000 C 
BRANCH  13  16
ATOM     16  O   UNL     1      43.621   3.675  10.735  0.00  0.00    +0.000 OA
BRANCH  16  20
ATOM     17  C   UNL     1      46.303   2.917   7.722  0.00  0.00    +0.000 A 
ATOM     18  C   UNL     1      45.752   1.860   8.439  0.00  0.00    +0.000 A 
ATOM     19  C   UNL     1      44.817   2.126   9.433  0.00  0.00    +0.000 A 
ATOM     20  C   UNL     1      44.487   3.449   9.683  0.00  0.00    +0.000 A 
ATOM     21  N   UNL     1      44.965   4.491   8.969  0.00  0.00    +0.000 NA
ATOM     22  C   UNL     1      45.868   4.201   8.010  0.00  0.00    +0.000 A 
ENDBRANCH  16  20
ENDBRANCH  13  16
ENDBRANCH   1  13
TORSDOF 4
ENDMDL
MODEL 2
REMARK VINA RESULT:    -6.848      2.437      3.723
REMARK INTER + INTRA:          -9.189
REMARK INTER:                  -8.764
REMARK INTRA:                  -0.425
REMARK UNBOUND:                -0.740
REMARK  Name = 
REMARK  4 active torsions:
REMARK  status: ('A' for Active; 'I' for Inactive)
REMARK    1  A    between atoms: C_4  and  O_5
REMARK    2  A    between atoms: O_5  and  C_6
REMARK    3  A    between atoms: C_6  and  C_7
REMARK    4  A    between atoms: C_11  and  C_12
REMARK                            x       y       z     vdW  Elec       q    Type
REMARK                         _______ _______ _______ _____ _____    ______ ____
ROOT
ATOM      1  C   UNL     1      45.457   5.262  12.258  0.00  0.00    +0.000 A 
ATOM      2  C   UNL     1      46.148   6.325  11.653  0.00  0.00    +0.000 A 
ATOM      3  C   UNL     1      47.318   6.848  12.197  0.00  0.00    +0.000 A 
ATOM      4  C   UNL     1      47.809   6.332  13.393  0.00  0.00    +0.000 A 
ATOM      5  C   UNL     1      47.158   5.279  14.049  0.00  0.00    +0.000 A 
ATOM      6  C   UNL     1      46.015   4.732  13.438  0.00  0.00    +0.000 A 
ENDROOT
BRANCH   5   7
ATOM      7  C   UNL     1      47.599   4.830  15.388  0.00  0.00    +0.000 A 
ATOM      8  C   UNL     1      47.272   3.551  15.860  0.00  0.00    +0.000 A 
ATOM      9  C   UNL     1      47.744   3.138  17.098  0.00  0.00    +0.000 A 
ATOM     10  N   UNL     1      48.516   3.901  17.894  0.00  0.00    +0.000 NA
ATOM     11  C   UNL     1      48.831   5.129  17.431  0.00  0.00    +0.000 A 
ATOM     12  C   UNL     1      48.397   5.632  16.212  0.00  0.00    +0.000 A 
ENDBRANCH   5   7
BRANCH   1  13
ATOM     13  C   UNL     1      44.102   4.806  11.718  0.00  0.00    +0.000 C 
ATOM     14  C   UNL     1      42.828   5.060  12.522  0.00  0.00    +0.000 C 
ATOM     15  C   UNL     1      43.133   5.909  11.333  0.00  0.00    +0.000 C 
BRANCH  13  16
ATOM     16  O   UNL     1      44.022   3.519  11.057  0.00  0.00    +0.000 OA
BRANCH  16  20
ATOM     17  C   UNL     1      46.200   3.042   7.611  0.00  0.00    +0.000 A 
ATOM     18  C   UNL     1      45.845   1.927   8.363  0.00  0.00    +0.000 A 
ATOM     19  C   UNL     1      45.076   2.098   9.510  0.00  0.00    +0.000 A 
ATOM     20  C   UNL     1      44.711   3.386   9.867  0.00  0.00    +0.000 A 
ATOM     21  N   UNL     1      44.996   4.481   9.128  0.00  0.00    +0.000 NA
ATOM     22  C   UNL     1      45.741   4.283   8.020  0.00  0.00    +0.000 A 
ENDBRANCH  16  20
ENDBRANCH  13  16
ENDBRANCH   1  13
TORSDOF 4
ENDMDL
MODEL 3
REMARK VINA RESULT:    -6.548      2.554      6.381
REMARK INTER + INTRA:          -8.820
REMARK INTER:                  -7.966
REMARK INTRA:                  -0.854
REMARK UNBOUND:                -0.740
REMARK  Name = 
REMARK  4 active torsions:
REMARK  status: ('A' for Active; 'I' for Inactive)
REMARK    1  A    between atoms: C_4  and  O_5
REMARK    2  A    between atoms: O_5  and  C_6
REMARK    3  A    between atoms: C_6  and  C_7
REMARK    4  A    between atoms: C_11  and  C_12
REMARK                            x       y       z     vdW  Elec       q    Type
REMARK                         _______ _______ _______ _____ _____    ______ ____
ROOT
ATOM      1  C   UNL     1      45.078   6.337  11.857  0.00  0.00    +0.000 A 
ATOM      2  C   UNL     1      43.721   6.161  12.177  0.00  0.00    +0.000 A 
ATOM      3  C   UNL     1      42.950   5.161  11.592  0.00  0.00    +0.000 A 
ATOM      4  C   UNL     1      43.519   4.325  10.635  0.00  0.00    +0.000 A 
ATOM      5  C   UNL     1      44.865   4.459  10.266  0.00  0.00    +0.000 A 
ATOM      6  C   UNL     1      45.632   5.438  10.925  0.00  0.00    +0.000 A 
ENDROOT
BRANCH   5   7
ATOM      7  C   UNL     1      45.429   3.668   9.151  0.00  0.00    +0.000 A 
ATOM      8  C   UNL     1      46.022   4.301   8.050  0.00  0.00    +0.000 A 
ATOM      9  C   UNL     1      46.589   3.532   7.043  0.00  0.00    +0.000 A 
ATOM     10  N   UNL     1      46.611   2.186   7.056  0.00  0.00    +0.000 NA
ATOM     11  C   UNL     1      46.043   1.584   8.121  0.00  0.00    +0.000 A 
ATOM     12  C   UNL     1      45.443   2.269   9.169  0.00  0.00    +0.000 A 
ENDBRANCH   5   7
BRANCH   1  13
ATOM     13  C   UNL     1      45.859   7.530  12.406  0.00  0.00    +0.000 C 
ATOM     14  C   UNL     1      47.036   7.309  13.355  0.00  0.00    +0.000 C 
ATOM     15  C   UNL     1      47.294   7.663  11.929  0.00  0.00    +0.000 C 
BRANCH  13  16
ATOM     16  O   UNL     1      45.122   8.714  12.799  0.00  0.00    +0.000 OA
BRANCH  16  20
ATOM     17  C   UNL     1      44.760  11.553   9.857  0.00  0.00    +0.000 A 
ATOM     18  C   UNL     1      43.872  10.483   9.897  0.00  0.00    +0.000 A 
ATOM     19  C   UNL     1      43.982   9.546  10.919  0.00  0.00    +0.000 A 
ATOM     20  C   UNL     1      44.994   9.712  11.851  0.00  0.00    +0.000 A 
ATOM     21  N   UNL     1      45.836  10.768  11.868  0.00  0.00    +0.000 NA
ATOM     22  C   UNL     1      45.703  11.661  10.865  0.00  0.00    +0.000 A 
ENDBRANCH  16  20
ENDBRANCH  13  16
ENDBRANCH   1  13
TORSDOF 4
ENDMDL
MODEL 4
REMARK VINA RESULT:    -6.345      2.463      6.422
REMARK INTER + INTRA:          -8.569
REMARK INTER:                  -7.830
REMARK INTRA:                  -0.739
REMARK UNBOUND:                -0.740
REMARK  Name = 
REMARK  4 active torsions:
REMARK  status: ('A' for Active; 'I' for Inactive)
REMARK    1  A    between atoms: C_4  and  O_5
REMARK    2  A    between atoms: O_5  and  C_6
REMARK    3  A    between atoms: C_6  and  C_7
REMARK    4  A    between atoms: C_11  and  C_12
REMARK                            x       y       z     vdW  Elec       q    Type
REMARK                         _______ _______ _______ _____ _____    ______ ____
ROOT
ATOM      1  C   UNL     1      45.393   6.206  11.601  0.00  0.00    +0.000 A 
ATOM      2  C   UNL     1      43.998   6.339  11.700  0.00  0.00    +0.000 A 
ATOM      3  C   UNL     1      43.128   5.545  10.959  0.00  0.00    +0.000 A 
ATOM      4  C   UNL     1      43.644   4.610  10.065  0.00  0.00    +0.000 A 
ATOM      5  C   UNL     1      45.027   4.439   9.915  0.00  0.00    +0.000 A 
ATOM      6  C   UNL     1      45.876   5.213  10.727  0.00  0.00    +0.000 A 
ENDROOT
BRANCH   5   7
ATOM      7  C   UNL     1      45.572   3.550   8.865  0.00  0.00    +0.000 A 
ATOM      8  C   UNL     1      46.187   4.082   7.723  0.00  0.00    +0.000 A 
ATOM      9  C   UNL     1      46.736   3.224   6.780  0.00  0.00    +0.000 A 
ATOM     10  N   UNL     1      46.720   1.882   6.895  0.00  0.00    +0.000 NA
ATOM     11  C   UNL     1      46.132   1.378   7.999  0.00  0.00    +0.000 A 
ATOM     12  C   UNL     1      45.547   2.157   8.989  0.00  0.00    +0.000 A 
ENDBRANCH   5   7
BRANCH   1  13
ATOM     13  C   UNL     1      46.322   7.187  12.317  0.00  0.00    +0.000 C 
ATOM     14  C   UNL     1      46.372   8.652  11.887  0.00  0.00    +0.000 C 
ATOM     15  C   UNL     1      45.644   8.272  13.133  0.00  0.00    +0.000 C 
BRANCH  13  16
ATOM     16  O   UNL     1      47.647   6.734  12.688  0.00  0.00    +0.000 OA
BRANCH  16  20
ATOM     17  C   UNL     1      48.245   5.122  16.414  0.00  0.00    +0.000 A 
ATOM     18  C   UNL     1      48.740   6.389  16.123  0.00  0.00    +0.000 A 
ATOM     19  C   UNL     1      48.500   6.939  14.868  0.00  0.00    +0.000 A 
ATOM     20  C   UNL     1      47.789   6.186  13.948  0.00  0.00    +0.000 A 
ATOM     21  N   UNL     1      47.252   4.977  14.220  0.00  0.00    +0.000 NA
ATOM     22  C   UNL     1      47.500   4.470  15.446  0.00  0.00    +0.000 A 
ENDBRANCH  16  20
ENDBRANCH  13  16
ENDBRANCH   1  13
TORSDOF 4
ENDMDL
MODEL 5
REMARK VINA RESULT:    -6.319      3.036      4.012
REMARK INTER + INTRA:          -8.537
REMARK INTER:                  -7.564
REMARK INTRA:                  -0.973
REMARK UNBOUND:                -0.740
REMARK  Name = 
REMARK  4 active torsions:
REMARK  status: ('A' for Active; 'I' for Inactive)
REMARK    1  A    between atoms: C_4  and  O_5
REMARK    2  A    between atoms: O_5  and  C_6
REMARK    3  A    between atoms: C_6  and  C_7
REMARK    4  A    between atoms: C_11  and  C_12
REMARK                            x       y       z     vdW  Elec       q    Type
REMARK                         _______ _______ _______ _____ _____    ______ ____
ROOT
ATOM      1  C   UNL     1      44.598   6.920  12.153  0.00  0.00    +0.000 A 
ATOM      2  C   UNL     1      45.781   7.174  12.867  0.00  0.00    +0.000 A 
ATOM      3  C   UNL     1      46.376   8.432  12.883  0.00  0.00    +0.000 A 
ATOM      4  C   UNL     1      45.810   9.469  12.147  0.00  0.00    +0.000 A 
ATOM      5  C   UNL     1      44.636   9.275  11.407  0.00  0.00    +0.000 A 
ATOM      6  C   UNL     1      44.026   8.008  11.465  0.00  0.00    +0.000 A 
ENDROOT
BRANCH   5   7
ATOM      7  C   UNL     1      44.117  10.334  10.514  0.00  0.00    +0.000 A 
ATOM      8  C   UNL     1      44.932  11.406  10.123  0.00  0.00    +0.000 A 
ATOM      9  C   UNL     1      44.434  12.356   9.243  0.00  0.00    +0.000 A 
ATOM     10  N   UNL     1      43.193  12.315   8.724  0.00  0.00    +0.000 NA
ATOM     11  C   UNL     1      42.417  11.278   9.100  0.00  0.00    +0.000 A 
ATOM     12  C   UNL     1      42.824  10.286   9.983  0.00  0.00    +0.000 A 
ENDBRANCH   5   7
BRANCH   1  13
ATOM     13  C   UNL     1      44.048   5.499  12.036  0.00  0.00    +0.000 C 
ATOM     14  C   UNL     1      42.947   5.020  12.981  0.00  0.00    +0.000 C 
ATOM     15  C   UNL     1      42.608   5.378  11.573  0.00  0.00    +0.000 C 
BRANCH  13  16
ATOM     16  O   UNL     1      44.979   4.420  11.773  0.00  0.00    +0.000 OA
BRANCH  16  20
ATOM     17  C   UNL     1      45.173   3.274   7.837  0.00  0.00    +0.000 A 
ATOM     18  C   UNL     1      45.660   4.521   8.218  0.00  0.00    +0.000 A 
ATOM     19  C   UNL     1      45.621   4.883   9.560  0.00  0.00    +0.000 A 
ATOM     20  C   UNL     1      45.077   3.987  10.465  0.00  0.00    +0.000 A 
ATOM     21  N   UNL     1      44.645   2.751  10.132  0.00  0.00    +0.000 NA
ATOM     22  C   UNL     1      44.697   2.426   8.823  0.00  0.00    +0.000 A 
ENDBRANCH  16  20
ENDBRANCH  13  16
ENDBRANCH   1  13
TORSDOF 4
ENDMDL
MODEL 6
REMARK VINA RESULT:    -6.170      2.044      2.886
REMARK INTER + INTRA:          -8.353
REMARK INTER:                  -8.427
REMARK INTRA:                   0.074
REMARK UNBOUND:                -0.740
REMARK  Name = 
REMARK  4 active torsions:
REMARK  status: ('A' for Active; 'I' for Inactive)
REMARK    1  A    between atoms: C_4  and  O_5
REMARK    2  A    between atoms: O_5  and  C_6
REMARK    3  A    between atoms: C_6  and  C_7
REMARK    4  A    between atoms: C_11  and  C_12
REMARK                            x       y       z     vdW  Elec       q    Type
REMARK                         _______ _______ _______ _____ _____    ______ ____
ROOT
ATOM      1  C   UNL     1      45.040   5.867  12.010  0.00  0.00    +0.000 A 
ATOM      2  C   UNL     1      46.357   5.432  12.234  0.00  0.00    +0.000 A 
ATOM      3  C   UNL     1      47.412   6.326  12.390  0.00  0.00    +0.000 A 
ATOM      4  C   UNL     1      47.173   7.694  12.292  0.00  0.00    +0.000 A 
ATOM      5  C   UNL     1      45.883   8.189  12.059  0.00  0.00    +0.000 A 
ATOM      6  C   UNL     1      44.830   7.259  11.971  0.00  0.00    +0.000 A 
ENDROOT
BRANCH   5   7
ATOM      7  C   UNL     1      45.655   9.629  11.813  0.00  0.00    +0.000 A 
ATOM      8  C   UNL     1      44.368  10.117  11.544  0.00  0.00    +0.000 A 
ATOM      9  C   UNL     1      44.176  11.480  11.368  0.00  0.00    +0.000 A 
ATOM     10  N   UNL     1      45.167  12.388  11.445  0.00  0.00    +0.000 NA
ATOM     11  C   UNL     1      46.402  11.912  11.710  0.00  0.00    +0.000 A 
ATOM     12  C   UNL     1      46.691  10.566  11.889  0.00  0.00    +0.000 A 
ENDBRANCH   5   7
BRANCH   1  13
ATOM     13  C   UNL     1      43.930   4.864  11.699  0.00  0.00    +0.000 C 
ATOM     14  C   UNL     1      43.830   3.559  12.488  0.00  0.00    +0.000 C 
ATOM     15  C   UNL     1      42.882   4.673  12.780  0.00  0.00    +0.000 C 
BRANCH  13  16
ATOM     16  O   UNL     1      43.580   4.633  10.312  0.00  0.00    +0.000 OA
BRANCH  16  20
ATOM     17  C   UNL     1      46.144   2.481   7.938  0.00  0.00    +0.000 A 
ATOM     18  C   UNL     1      46.177   3.871   7.906  0.00  0.00    +0.000 A 
ATOM     19  C   UNL     1      45.328   4.590   8.742  0.00  0.00    +0.000 A 
ATOM     20  C   UNL     1      44.465   3.882   9.563  0.00  0.00    +0.000 A 
ATOM     21  N   UNL     1      44.448   2.534   9.652  0.00  0.00    +0.000 NA
ATOM     22  C   UNL     1      45.284   1.865   8.832  0.00  0.00    +0.000 A 
ENDBRANCH  16  20
ENDBRANCH  13  16
ENDBRANCH   1  13
TORSDOF 4
ENDMDL
MODEL 7
REMARK VINA RESULT:    -6.082      3.032      7.224
REMARK INTER + INTRA:          -8.244
REMARK INTER:                  -7.265
REMARK INTRA:                  -0.979
REMARK UNBOUND:                -0.740
REMARK  Name = 
REMARK  4 active torsions:
REMARK  status: ('A' for Active; 'I' for Inactive)
REMARK    1  A    between atoms: C_4  and  O_5
REMARK    2  A    between atoms: O_5  and  C_6
REMARK    3  A    between atoms: C_6  and  C_7
REMARK    4  A    between atoms: C_11  and  C_12
REMARK                            x       y       z     vdW  Elec       q    Type
REMARK                         _______ _______ _______ _____ _____    ______ ____
ROOT
ATOM      1  C   UNL     1      47.631   7.565  12.790  0.00  0.00    +0.000 A 
ATOM      2  C   UNL     1      46.825   8.704  12.956  0.00  0.00    +0.000 A 
ATOM      3  C   UNL     1      45.442   8.657  12.807  0.00  0.00    +0.000 A 
ATOM      4  C   UNL     1      44.830   7.458  12.449  0.00  0.00    +0.000 A 
ATOM      5  C   UNL     1      45.582   6.291  12.259  0.00  0.00    +0.000 A 
ATOM      6  C   UNL     1      46.970   6.360  12.481  0.00  0.00    +0.000 A 
ENDROOT
BRANCH   5   7
ATOM      7  C   UNL     1      44.951   5.057  11.741  0.00  0.00    +0.000 A 
ATOM      8  C   UNL     1      44.235   4.205  12.594  0.00  0.00    +0.000 A 
ATOM      9  C   UNL     1      43.609   3.082  12.070  0.00  0.00    +0.000 A 
ATOM     10  N   UNL     1      43.642   2.751  10.765  0.00  0.00    +0.000 NA
ATOM     11  C   UNL     1      44.328   3.578   9.950  0.00  0.00    +0.000 A 
ATOM     12  C   UNL     1      44.994   4.717  10.385  0.00  0.00    +0.000 A 
ENDBRANCH   5   7
BRANCH   1  13
ATOM     13  C   UNL     1      49.154   7.678  12.818  0.00  0.00    +0.000 C 
ATOM     14  C   UNL     1      49.949   7.698  11.513  0.00  0.00    +0.000 C 
ATOM     15  C   UNL     1      49.737   8.967  12.268  0.00  0.00    +0.000 C 
BRANCH  13  16
ATOM     16  O   UNL     1      49.881   6.936  13.828  0.00  0.00    +0.000 OA
BRANCH  16  20
ATOM     17  C   UNL     1      48.518   7.095  17.696  0.00  0.00    +0.000 A 
ATOM     18  C   UNL     1      48.944   8.259  17.066  0.00  0.00    +0.000 A 
ATOM     19  C   UNL     1      49.370   8.199  15.744  0.00  0.00    +0.000 A 
ATOM     20  C   UNL     1      49.370   6.966  15.111  0.00  0.00    +0.000 A 
ATOM     21  N   UNL     1      48.913   5.829  15.680  0.00  0.00    +0.000 NA
ATOM     22  C   UNL     1      48.504   5.920  16.963  0.00  0.00    +0.000 A 
ENDBRANCH  16  20
ENDBRANCH  13  16
ENDBRANCH   1  13
TORSDOF 4
ENDMDL
MODEL 8
REMARK VINA RESULT:    -6.040      3.159      7.132
REMARK INTER + INTRA:          -8.193
REMARK INTER:                  -7.487
REMARK INTRA:                  -0.705
REMARK UNBOUND:                -0.740
REMARK  Name = 
REMARK  4 active torsions:
REMARK  status: ('A' for Active; 'I' for Inactive)
REMARK    1  A    between atoms: C_4  and  O_5
REMARK    2  A    between atoms: O_5  and  C_6
REMARK    3  A    between atoms: C_6  and  C_7
REMARK    4  A    between atoms: C_11  and  C_12
REMARK                            x       y       z     vdW  Elec       q    Type
REMARK                         _______ _______ _______ _____ _____    ______ ____
ROOT
ATOM      1  C   UNL     1      47.366   7.382  13.589  0.00  0.00    +0.000 A 
ATOM      2  C   UNL     1      46.722   8.619  13.416  0.00  0.00    +0.000 A 
ATOM      3  C   UNL     1      45.509   8.731  12.744  0.00  0.00    +0.000 A 
ATOM      4  C   UNL     1      44.922   7.596  12.192  0.00  0.00    +0.000 A 
ATOM      5  C   UNL     1      45.522   6.335  12.321  0.00  0.00    +0.000 A 
ATOM      6  C   UNL     1      46.715   6.249  13.063  0.00  0.00    +0.000 A 
ENDROOT
BRANCH   5   7
ATOM      7  C   UNL     1      44.973   5.157  11.614  0.00  0.00    +0.000 A 
ATOM      8  C   UNL     1      44.349   4.121  12.323  0.00  0.00    +0.000 A 
ATOM      9  C   UNL     1      43.798   3.054  11.629  0.00  0.00    +0.000 A 
ATOM     10  N   UNL     1      43.819   2.946  10.287  0.00  0.00    +0.000 NA
ATOM     11  C   UNL     1      44.416   3.950   9.611  0.00  0.00    +0.000 A 
ATOM     12  C   UNL     1      45.004   5.051  10.220  0.00  0.00    +0.000 A 
ENDBRANCH   5   7
BRANCH   1  13
ATOM     13  C   UNL     1      48.764   7.310  14.203  0.00  0.00    +0.000 C 
ATOM     14  C   UNL     1      49.963   7.893  13.457  0.00  0.00    +0.000 C 
ATOM     15  C   UNL     1      49.380   8.635  14.613  0.00  0.00    +0.000 C 
BRANCH  13  16
ATOM     16  O   UNL     1      49.151   6.095  14.892  0.00  0.00    +0.000 OA
BRANCH  16  20
ATOM     17  C   UNL     1      47.341   5.453  18.519  0.00  0.00    +0.000 A 
ATOM     18  C   UNL     1      47.184   4.525  17.494  0.00  0.00    +0.000 A 
ATOM     19  C   UNL     1      47.831   4.735  16.282  0.00  0.00    +0.000 A 
ATOM     20  C   UNL     1      48.596   5.882  16.138  0.00  0.00    +0.000 A 
ATOM     21  N   UNL     1      48.809   6.773  17.131  0.00  0.00    +0.000 NA
ATOM     22  C   UNL     1      48.170   6.540  18.297  0.00  0.00    +0.000 A 
ENDBRANCH  16  20
ENDBRANCH  13  16
ENDBRANCH   1  13
TORSDOF 4
ENDMDL
MODEL 9
REMARK VINA RESULT:    -5.603      3.691      7.139
REMARK INTER + INTRA:          -7.653
REMARK INTER:                  -6.989
REMARK INTRA:                  -0.665
REMARK UNBOUND:                -0.740
REMARK  Name = 
REMARK  4 active torsions:
REMARK  status: ('A' for Active; 'I' for Inactive)
REMARK    1  A    between atoms: C_4  and  O_5
REMARK    2  A    between atoms: O_5  and  C_6
REMARK    3  A    between atoms: C_6  and  C_7
REMARK    4  A    between atoms: C_11  and  C_12
REMARK                            x       y       z     vdW  Elec       q    Type
REMARK                         _______ _______ _______ _____ _____    ______ ____
ROOT
ATOM      1  C   UNL     1      48.699   7.258  14.097  0.00  0.00    +0.000 A 
ATOM      2  C   UNL     1      49.514   7.647  13.020  0.00  0.00    +0.000 A 
ATOM      3  C   UNL     1      49.076   7.576  11.702  0.00  0.00    +0.000 A 
ATOM      4  C   UNL     1      47.807   7.075  11.425  0.00  0.00    +0.000 A 
ATOM      5  C   UNL     1      46.952   6.661  12.455  0.00  0.00    +0.000 A 
ATOM      6  C   UNL     1      47.402   6.807  13.780  0.00  0.00    +0.000 A 
ENDROOT
BRANCH   5   7
ATOM      7  C   UNL     1      45.664   5.998  12.154  0.00  0.00    +0.000 A 
ATOM      8  C   UNL     1      45.368   5.563  10.854  0.00  0.00    +0.000 A 
ATOM      9  C   UNL     1      44.175   4.898  10.612  0.00  0.00    +0.000 A 
ATOM     10  N   UNL     1      43.262   4.632  11.565  0.00  0.00    +0.000 NA
ATOM     11  C   UNL     1      43.556   5.049  12.814  0.00  0.00    +0.000 A 
ATOM     12  C   UNL     1      44.718   5.731  13.149  0.00  0.00    +0.000 A 
ENDBRANCH   5   7
BRANCH   1  13
ATOM     13  C   UNL     1      49.256   7.211  15.519  0.00  0.00    +0.000 C 
ATOM     14  C   UNL     1      49.920   8.445  16.126  0.00  0.00    +0.000 C 
ATOM     15  C   UNL     1      48.539   8.069  16.545  0.00  0.00    +0.000 C 
BRANCH  13  16
ATOM     16  O   UNL     1      49.951   6.013  15.947  0.00  0.00    +0.000 OA
BRANCH  16  20
ATOM     17  C   UNL     1      47.948   3.228  18.199  0.00  0.00    +0.000 A 
ATOM     18  C   UNL     1      48.956   3.991  18.781  0.00  0.00    +0.000 A 
ATOM     19  C   UNL     1      49.603   4.956  18.017  0.00  0.00    +0.000 A 
ATOM     20  C   UNL     1      49.225   5.104  16.692  0.00  0.00    +0.000 A 
ATOM     21  N   UNL     1      48.216   4.415  16.116  0.00  0.00    +0.000 NA
ATOM     22  C   UNL     1      47.606   3.488  16.883  0.00  0.00    +0.000 A 
ENDBRANCH  16  20
ENDBRANCH  13  16
ENDBRANCH   1  13
TORSDOF 4
ENDMDL
