MODEL 1
REMARK VINA RESULT:    -7.854      0.000      0.000
REMARK INTER + INTRA:         -11.783
REMARK INTER:                 -10.608
REMARK INTRA:                  -1.174
REMARK UNBOUND:                -1.174
REMARK  Name = 
REMARK  9 active torsions:
REMARK  status: ('A' for Active; 'I' for Inactive)
REMARK    1  A    between atoms: C_1  and  C_2
REMARK    2  A    between atoms: C_4  and  C_5
REMARK    3  A    between atoms: C_5  and  C_6
REMARK    4  A    between atoms: C_5  and  C_7
REMARK    5  A    between atoms: C_7  and  N_8
REMARK    6  A    between atoms: C_12  and  C_13
REMARK    7  A    between atoms: C_19  and  C_20
REMARK    8  A    between atoms: C_21  and  O_22
REMARK    9  A    between atoms: O_22  and  C_23
REMARK                            x       y       z     vdW  Elec       q    Type
REMARK                         _______ _______ _______ _____ _____    ______ ____
ROOT
ATOM      1  C   UNL     1      43.824   5.211  11.458  0.00  0.00    +0.000 C 
ATOM      2  C   UNL     1      42.972   6.494  11.421  0.00  0.00    +0.000 C 
ENDROOT
BRANCH   1   6
ATOM      3  C   UNL     1      48.151   7.698  11.445  0.00  0.00    +0.000 C 
ATOM      4  C   UNL     1      47.299   6.710  12.184  0.00  0.00    +0.000 A 
ATOM      5  C   UNL     1      46.038   6.422  11.613  0.00  0.00    +0.000 A 
ATOM      6  C   UNL     1      45.158   5.472  12.152  0.00  0.00    +0.000 A 
ATOM      7  C   UNL     1      45.550   4.829  13.327  0.00  0.00    +0.000 A 
ATOM      8  C   UNL     1      46.779   5.114  13.942  0.00  0.00    +0.000 A 
ATOM      9  C   UNL     1      47.110   4.417  15.236  0.00  0.00    +0.000 C 
ATOM     10  C   UNL     1      47.672   6.040  13.359  0.00  0.00    +0.000 A 
BRANCH  10  11
ATOM     11  O   UNL     1      48.897   6.069  13.981  0.00  0.00    +0.000 OA
BRANCH  11  12
ATOM     12  C   UNL     1      49.393   7.205  14.711  0.00  0.00    +0.000 C 
ATOM     13  C   UNL     1      49.722   6.857  16.186  0.00  0.00    +0.000 C 
ATOM     14  C   UNL     1      48.956   8.097  16.646  0.00  0.00    +0.000 C 
ATOM     15  C   UNL     1      48.378   8.245  15.231  0.00  0.00    +0.000 C 
ENDBRANCH  11  12
ENDBRANCH  10  11
ENDBRANCH   1   6
BRANCH   1  16
ATOM     16  C   UNL     1      43.888   4.664  10.016  0.00  0.00    +0.000 C 
BRANCH  16  17
ATOM     17  N   UNL     1      44.199   3.231   9.963  0.00  0.00    +0.000 N 
ATOM     18  C   UNL     1      45.088   2.905   8.930  0.00  0.00    +0.000 A 
ATOM     19  C   UNL     1      45.528   1.593   8.799  0.00  0.00    +0.000 A 
ATOM     20  C   UNL     1      46.415   1.273   7.768  0.00  0.00    +0.000 A 
ATOM     21  C   UNL     1      46.850   2.269   6.891  0.00  0.00    +0.000 A 
ATOM     22  C   UNL     1      46.384   3.548   7.118  0.00  0.00    +0.000 A 
ATOM     23  N   UNL     1      45.530   3.880   8.109  0.00  0.00    +0.000 NA
ATOM     24  H   UNL     1      43.375   2.640   9.918  0.00  0.00    +0.000 HD
BRANCH  21  25
ATOM     25  C   UNL     1      47.759   1.927   5.775  0.00  0.00    +0.000 C 
ATOM     26  N   UNL     1      48.235   2.931   4.976  0.00  0.00    +0.000 N 
ATOM     27  O   UNL     1      48.073   0.765   5.552  0.00  0.00    +0.000 OA
ATOM     28  H   UNL     1      48.030   3.916   5.061  0.00  0.00    +0.000 HD
ATOM     29  H   UNL     1      48.833   2.650   4.210  0.00  0.00    +0.000 HD
ENDBRANCH  21  25
ENDBRANCH  16  17
ENDBRANCH   1  16
TORSDOF 6
ENDMDL
MODEL 2
REMARK VINA RESULT:    -7.780      0.389      1.841
REMARK INTER + INTRA:         -11.684
REMARK INTER:                 -10.666
REMARK INTRA:                  -1.018
REMARK UNBOUND:                -1.174
REMARK  Name = 
REMARK  9 active torsions:
REMARK  status: ('A' for Active; 'I' for Inactive)
REMARK    1  A    between atoms: C_1  and  C_2
REMARK    2  A    between atoms: C_4  and  C_5
REMARK    3  A    between atoms: C_5  and  C_6
REMARK    4  A    between atoms: C_5  and  C_7
REMARK    5  A    between atoms: C_7  and  N_8
REMARK    6  A    between atoms: C_12  and  C_13
REMARK    7  A    between atoms: C_19  and  C_20
REMARK    8  A    between atoms: C_21  and  O_22
REMARK    9  A    between atoms: O_22  and  C_23
REMARK                            x       y       z     vdW  Elec       q    Type
REMARK                         _______ _______ _______ _____ _____    ______ ____
ROOT
ATOM      1  C   UNL     1      43.775   5.259  11.449  0.00  0.00    +0.000 C 
ATOM      2  C   UNL     1      42.950   6.560  11.414  0.00  0.00    +0.000 C 
ENDROOT
BRANCH   1   6
ATOM      3  C   UNL     1      47.035   4.147  15.060  0.00  0.00    +0.000 C 
ATOM      4  C   UNL     1      46.795   4.962  13.825  0.00  0.00    +0.000 A 
ATOM      5  C   UNL     1      45.547   4.776  13.187  0.00  0.00    +0.000 A 
ATOM      6  C   UNL     1      45.150   5.512  12.061  0.00  0.00    +0.000 A 
ATOM      7  C   UNL     1      46.063   6.431  11.543  0.00  0.00    +0.000 A 
ATOM      8  C   UNL     1      47.324   6.619  12.128  0.00  0.00    +0.000 A 
ATOM      9  C   UNL     1      48.276   7.592  11.480  0.00  0.00    +0.000 C 
ATOM     10  C   UNL     1      47.688   5.902  13.288  0.00  0.00    +0.000 A 
BRANCH  10  11
ATOM     11  O   UNL     1      48.874   6.330  13.836  0.00  0.00    +0.000 OA
BRANCH  11  12
ATOM     12  C   UNL     1      48.973   6.963  15.123  0.00  0.00    +0.000 C 
ATOM     13  C   UNL     1      48.495   8.438  15.092  0.00  0.00    +0.000 C 
ATOM     14  C   UNL     1      49.756   8.860  15.847  0.00  0.00    +0.000 C 
ATOM     15  C   UNL     1      50.354   7.469  15.590  0.00  0.00    +0.000 C 
ENDBRANCH  11  12
ENDBRANCH  10  11
ENDBRANCH   1   6
BRANCH   1  16
ATOM     16  C   UNL     1      43.749   4.664  10.025  0.00  0.00    +0.000 C 
BRANCH  16  17
ATOM     17  N   UNL     1      44.096   3.238   9.997  0.00  0.00    +0.000 N 
ATOM     18  C   UNL     1      45.002   2.919   8.977  0.00  0.00    +0.000 A 
ATOM     19  C   UNL     1      45.476   1.616   8.870  0.00  0.00    +0.000 A 
ATOM     20  C   UNL     1      46.381   1.302   7.852  0.00  0.00    +0.000 A 
ATOM     21  C   UNL     1      46.798   2.295   6.964  0.00  0.00    +0.000 A 
ATOM     22  C   UNL     1      46.299   3.566   7.167  0.00  0.00    +0.000 A 
ATOM     23  N   UNL     1      45.427   3.891   8.145  0.00  0.00    +0.000 NA
ATOM     24  H   UNL     1      43.288   2.626   9.954  0.00  0.00    +0.000 HD
BRANCH  21  25
ATOM     25  C   UNL     1      47.725   1.960   5.861  0.00  0.00    +0.000 C 
ATOM     26  N   UNL     1      48.159   2.959   5.032  0.00  0.00    +0.000 N 
ATOM     27  O   UNL     1      48.091   0.807   5.675  0.00  0.00    +0.000 OA
ATOM     28  H   UNL     1      47.911   3.935   5.086  0.00  0.00    +0.000 HD
ATOM     29  H   UNL     1      48.773   2.681   4.277  0.00  0.00    +0.000 HD
ENDBRANCH  21  25
ENDBRANCH  16  17
ENDBRANCH   1  16
TORSDOF 6
ENDMDL
MODEL 3
REMARK VINA RESULT:    -7.307      1.881      2.886
REMARK INTER + INTRA:         -11.044
REMARK INTER:                  -9.945
REMARK INTRA:                  -1.099
REMARK UNBOUND:                -1.174
REMARK  Name = 
REMARK  9 active torsions:
REMARK  status: ('A' for Active; 'I' for Inactive)
REMARK    1  A    between atoms: C_1  and  C_2
REMARK    2  A    between atoms: C_4  and  C_5
REMARK    3  A    between atoms: C_5  and  C_6
REMARK    4  A    between atoms: C_5  and  C_7
REMARK    5  A    between atoms: C_7  and  N_8
REMARK    6  A    between atoms: C_12  and  C_13
REMARK    7  A    between atoms: C_19  and  C_20
REMARK    8  A    between atoms: C_21  and  O_22
REMARK    9  A    between atoms: O_22  and  C_23
REMARK                            x       y       z     vdW  Elec       q    Type
REMARK                         _______ _______ _______ _____ _____    ______ ____
ROOT
ATOM      1  C   UNL     1      44.196   4.900  12.249  0.00  0.00    +0.000 C 
ATOM      2  C   UNL     1      42.844   5.048  12.973  0.00  0.00    +0.000 C 
ENDROOT
BRANCH   1   6
ATOM      3  C   UNL     1      48.501   6.572  14.139  0.00  0.00    +0.000 C 
ATOM      4  C   UNL     1      47.229   6.955  13.442  0.00  0.00    +0.000 A 
ATOM      5  C   UNL     1      46.347   5.896  13.128  0.00  0.00    +0.000 A 
ATOM      6  C   UNL     1      45.092   6.101  12.536  0.00  0.00    +0.000 A 
ATOM      7  C   UNL     1      44.743   7.413  12.215  0.00  0.00    +0.000 A 
ATOM      8  C   UNL     1      45.606   8.487  12.480  0.00  0.00    +0.000 A 
ATOM      9  C   UNL     1      45.181   9.869  12.057  0.00  0.00    +0.000 C 
ATOM     10  C   UNL     1      46.846   8.265  13.118  0.00  0.00    +0.000 A 
BRANCH  10  11
ATOM     11  O   UNL     1      47.487   9.430  13.468  0.00  0.00    +0.000 OA
BRANCH  11  12
ATOM     12  C   UNL     1      48.721   9.868  12.875  0.00  0.00    +0.000 C 
ATOM     13  C   UNL     1      48.626  11.312  12.318  0.00  0.00    +0.000 C 
ATOM     14  C   UNL     1      49.268  10.847  11.010  0.00  0.00    +0.000 C 
ATOM     15  C   UNL     1      49.063   9.390  11.448  0.00  0.00    +0.000 C 
ENDBRANCH  11  12
ENDBRANCH  10  11
ENDBRANCH   1   6
BRANCH   1  16
ATOM     16  C   UNL     1      43.888   4.602  10.766  0.00  0.00    +0.000 C 
BRANCH  16  17
ATOM     17  N   UNL     1      44.078   3.190  10.417  0.00  0.00    +0.000 N 
ATOM     18  C   UNL     1      44.939   3.009   9.326  0.00  0.00    +0.000 A 
ATOM     19  C   UNL     1      45.267   1.720   8.923  0.00  0.00    +0.000 A 
ATOM     20  C   UNL     1      46.127   1.546   7.835  0.00  0.00    +0.000 A 
ATOM     21  C   UNL     1      46.645   2.661   7.173  0.00  0.00    +0.000 A 
ATOM     22  C   UNL     1      46.288   3.900   7.663  0.00  0.00    +0.000 A 
ATOM     23  N   UNL     1      45.462   4.092   8.714  0.00  0.00    +0.000 NA
ATOM     24  H   UNL     1      43.208   2.690  10.265  0.00  0.00    +0.000 HD
BRANCH  21  25
ATOM     25  C   UNL     1      47.524   2.481   5.997  0.00  0.00    +0.000 C 
ATOM     26  N   UNL     1      48.879   2.440   6.181  0.00  0.00    +0.000 N 
ATOM     27  O   UNL     1      47.056   2.386   4.870  0.00  0.00    +0.000 OA
ATOM     28  H   UNL     1      49.369   2.521   7.060  0.00  0.00    +0.000 HD
ATOM     29  H   UNL     1      49.443   2.340   5.347  0.00  0.00    +0.000 HD
ENDBRANCH  21  25
ENDBRANCH  16  17
ENDBRANCH   1  16
TORSDOF 6
ENDMDL
MODEL 4
REMARK VINA RESULT:    -6.445      3.594      6.135
REMARK INTER + INTRA:          -9.880
REMARK INTER:                  -8.846
REMARK INTRA:                  -1.035
REMARK UNBOUND:                -1.174
REMARK  Name = 
REMARK  9 active torsions:
REMARK  status: ('A' for Active; 'I' for Inactive)
REMARK    1  A    between atoms: C_1  and  C_2
REMARK    2  A    between atoms: C_4  and  C_5
REMARK    3  A    between atoms: C_5  and  C_6
REMARK    4  A    between atoms: C_5  and  C_7
REMARK    5  A    between atoms: C_7  and  N_8
REMARK    6  A    between atoms: C_12  and  C_13
REMARK    7  A    between atoms: C_19  and  C_20
REMARK    8  A    between atoms: C_21  and  O_22
REMARK    9  A    between atoms: O_22  and  C_23
REMARK                            x       y       z     vdW  Elec       q    Type
REMARK                         _______ _______ _______ _____ _____    ______ ____
ROOT
ATOM      1  C   UNL     1      48.259   4.302  16.499  0.00  0.00    +0.000 C 
ATOM      2  C   UNL     1      48.388   2.906  17.137  0.00  0.00    +0.000 C 
ENDROOT
BRANCH   1   6
ATOM      3  C   UNL     1      49.932   8.838  17.735  0.00  0.00    +0.000 C 
ATOM      4  C   UNL     1      49.150   7.646  18.196  0.00  0.00    +0.000 A 
ATOM      5  C   UNL     1      49.003   6.595  17.261  0.00  0.00    +0.000 A 
ATOM      6  C   UNL     1      48.354   5.389  17.565  0.00  0.00    +0.000 A 
ATOM      7  C   UNL     1      47.802   5.265  18.841  0.00  0.00    +0.000 A 
ATOM      8  C   UNL     1      47.897   6.298  19.785  0.00  0.00    +0.000 A 
ATOM      9  C   UNL     1      47.231   6.109  21.123  0.00  0.00    +0.000 C 
ATOM     10  C   UNL     1      48.594   7.487  19.475  0.00  0.00    +0.000 A 
BRANCH  10  11
ATOM     11  O   UNL     1      48.751   8.317  20.559  0.00  0.00    +0.000 OA
BRANCH  11  12
ATOM     12  C   UNL     1      48.120   9.603  20.675  0.00  0.00    +0.000 C 
ATOM     13  C   UNL     1      47.224   9.707  21.936  0.00  0.00    +0.000 C 
ATOM     14  C   UNL     1      46.097  10.292  21.084  0.00  0.00    +0.000 C 
ATOM     15  C   UNL     1      46.868   9.889  19.818  0.00  0.00    +0.000 C 
ENDBRANCH  11  12
ENDBRANCH  10  11
ENDBRANCH   1   6
BRANCH   1  16
ATOM     16  C   UNL     1      46.982   4.291  15.632  0.00  0.00    +0.000 C 
BRANCH  16  17
ATOM     17  N   UNL     1      47.008   5.300  14.567  0.00  0.00    +0.000 N 
ATOM     18  C   UNL     1      46.332   4.888  13.411  0.00  0.00    +0.000 A 
ATOM     19  C   UNL     1      46.214   5.768  12.340  0.00  0.00    +0.000 A 
ATOM     20  C   UNL     1      45.537   5.353  11.190  0.00  0.00    +0.000 A 
ATOM     21  C   UNL     1      44.987   4.071  11.132  0.00  0.00    +0.000 A 
ATOM     22  C   UNL     1      45.126   3.280  12.254  0.00  0.00    +0.000 A 
ATOM     23  N   UNL     1      45.773   3.661  13.376  0.00  0.00    +0.000 NA
ATOM     24  H   UNL     1      47.944   5.616  14.333  0.00  0.00    +0.000 HD
BRANCH  21  25
ATOM     25  C   UNL     1      44.304   3.614   9.902  0.00  0.00    +0.000 C 
ATOM     26  N   UNL     1      43.991   4.532   8.936  0.00  0.00    +0.000 N 
ATOM     27  O   UNL     1      44.005   2.436   9.749  0.00  0.00    +0.000 OA
ATOM     28  H   UNL     1      44.177   5.523   8.966  0.00  0.00    +0.000 HD
ATOM     29  H   UNL     1      43.502   4.179   8.123  0.00  0.00    +0.000 HD
ENDBRANCH  21  25
ENDBRANCH  16  17
ENDBRANCH   1  16
TORSDOF 6
ENDMDL
MODEL 5
REMARK VINA RESULT:    -6.276      4.395      8.758
REMARK INTER + INTRA:          -9.652
REMARK INTER:                  -8.349
REMARK INTRA:                  -1.303
REMARK UNBOUND:                -1.174
REMARK  Name = 
REMARK  9 active torsions:
REMARK  status: ('A' for Active; 'I' for Inactive)
REMARK    1  A    between atoms: C_1  and  C_2
REMARK    2  A    between atoms: C_4  and  C_5
REMARK    3  A    between atoms: C_5  and  C_6
REMARK    4  A    between atoms: C_5  and  C_7
REMARK    5  A    between atoms: C_7  and  N_8
REMARK    6  A    between atoms: C_12  and  C_13
REMARK    7  A    between atoms: C_19  and  C_20
REMARK    8  A    between atoms: C_21  and  O_22
REMARK    9  A    between atoms: O_22  and  C_23
REMARK                            x       y       z     vdW  Elec       q    Type
REMARK                         _______ _______ _______ _____ _____    ______ ____
ROOT
ATOM      1  C   UNL     1      49.403   7.865  12.866  0.00  0.00    +0.000 C 
ATOM      2  C   UNL     1      49.425   9.386  12.621  0.00  0.00    +0.000 C 
ENDROOT
BRANCH   1   6
ATOM      3  C   UNL     1      46.302   3.998  13.443  0.00  0.00    +0.000 C 
ATOM      4  C   UNL     1      46.425   5.422  12.991  0.00  0.00    +0.000 A 
ATOM      5  C   UNL     1      47.702   6.013  13.130  0.00  0.00    +0.000 A 
ATOM      6  C   UNL     1      47.991   7.314  12.693  0.00  0.00    +0.000 A 
ATOM      7  C   UNL     1      46.943   8.050  12.139  0.00  0.00    +0.000 A 
ATOM      8  C   UNL     1      45.654   7.510  12.015  0.00  0.00    +0.000 A 
ATOM      9  C   UNL     1      44.562   8.384  11.454  0.00  0.00    +0.000 C 
ATOM     10  C   UNL     1      45.394   6.182  12.419  0.00  0.00    +0.000 A 
BRANCH  10  11
ATOM     11  O   UNL     1      44.138   5.748  12.066  0.00  0.00    +0.000 OA
BRANCH  11  12
ATOM     12  C   UNL     1      43.848   5.068  10.833  0.00  0.00    +0.000 C 
ATOM     13  C   UNL     1      43.541   3.564  11.049  0.00  0.00    +0.000 C 
ATOM     14  C   UNL     1      44.500   3.207   9.914  0.00  0.00    +0.000 C 
ATOM     15  C   UNL     1      45.027   4.649   9.928  0.00  0.00    +0.000 C 
ENDBRANCH  11  12
ENDBRANCH  10  11
ENDBRANCH   1   6
BRANCH   1  16
ATOM     16  C   UNL     1      50.083   7.614  14.229  0.00  0.00    +0.000 C 
BRANCH  16  17
ATOM     17  N   UNL     1      49.323   8.167  15.356  0.00  0.00    +0.000 N 
ATOM     18  C   UNL     1      49.140   7.244  16.394  0.00  0.00    +0.000 A 
ATOM     19  C   UNL     1      48.496   7.648  17.558  0.00  0.00    +0.000 A 
ATOM     20  C   UNL     1      48.317   6.724  18.592  0.00  0.00    +0.000 A 
ATOM     21  C   UNL     1      48.787   5.418  18.445  0.00  0.00    +0.000 A 
ATOM     22  C   UNL     1      49.442   5.118  17.267  0.00  0.00    +0.000 A 
ATOM     23  N   UNL     1      49.629   5.994  16.258  0.00  0.00    +0.000 NA
ATOM     24  H   UNL     1      48.433   8.571  15.083  0.00  0.00    +0.000 HD
BRANCH  21  25
ATOM     25  C   UNL     1      48.566   4.426  19.520  0.00  0.00    +0.000 C 
ATOM     26  N   UNL     1      48.432   3.105  19.187  0.00  0.00    +0.000 N 
ATOM     27  O   UNL     1      48.486   4.774  20.691  0.00  0.00    +0.000 OA
ATOM     28  H   UNL     1      48.466   2.713  18.258  0.00  0.00    +0.000 HD
ATOM     29  H   UNL     1      48.257   2.465  19.951  0.00  0.00    +0.000 HD
ENDBRANCH  21  25
ENDBRANCH  16  17
ENDBRANCH   1  16
TORSDOF 6
ENDMDL
MODEL 6
REMARK VINA RESULT:    -5.735      4.076      6.296
REMARK INTER + INTRA:          -8.921
REMARK INTER:                  -7.803
REMARK INTRA:                  -1.119
REMARK UNBOUND:                -1.174
REMARK  Name = 
REMARK  9 active torsions:
REMARK  status: ('A' for Active; 'I' for Inactive)
REMARK    1  A    between atoms: C_1  and  C_2
REMARK    2  A    between atoms: C_4  and  C_5
REMARK    3  A    between atoms: C_5  and  C_6
REMARK    4  A    between atoms: C_5  and  C_7
REMARK    5  A    between atoms: C_7  and  N_8
REMARK    6  A    between atoms: C_12  and  C_13
REMARK    7  A    between atoms: C_19  and  C_20
REMARK    8  A    between atoms: C_21  and  O_22
REMARK    9  A    between atoms: O_22  and  C_23
REMARK                            x       y       z     vdW  Elec       q    Type
REMARK                         _______ _______ _______ _____ _____    ______ ____
ROOT
ATOM      1  C   UNL     1      49.322   7.756  14.526  0.00  0.00    +0.000 C 
ATOM      2  C   UNL     1      50.805   8.168  14.608  0.00  0.00    +0.000 C 
ENDROOT
BRANCH   1   6
ATOM      3  C   UNL     1      48.594   8.174  19.446  0.00  0.00    +0.000 C 
ATOM      4  C   UNL     1      48.487   7.267  18.256  0.00  0.00    +0.000 A 
ATOM      5  C   UNL     1      48.865   7.822  17.012  0.00  0.00    +0.000 A 
ATOM      6  C   UNL     1      48.881   7.081  15.821  0.00  0.00    +0.000 A 
ATOM      7  C   UNL     1      48.460   5.752  15.889  0.00  0.00    +0.000 A 
ATOM      8  C   UNL     1      48.045   5.176  17.099  0.00  0.00    +0.000 A 
ATOM      9  C   UNL     1      47.555   3.751  17.082  0.00  0.00    +0.000 C 
ATOM     10  C   UNL     1      48.079   5.925  18.295  0.00  0.00    +0.000 A 
BRANCH  10  11
ATOM     11  O   UNL     1      47.817   5.167  19.412  0.00  0.00    +0.000 OA
BRANCH  11  12
ATOM     12  C   UNL     1      48.833   4.493  20.174  0.00  0.00    +0.000 C 
ATOM     13  C   UNL     1      48.976   5.070  21.605  0.00  0.00    +0.000 C 
ATOM     14  C   UNL     1      50.493   5.131  21.426  0.00  0.00    +0.000 C 
ATOM     15  C   UNL     1      50.310   4.867  19.925  0.00  0.00    +0.000 C 
ENDBRANCH  11  12
ENDBRANCH  10  11
ENDBRANCH   1   6
BRANCH   1  16
ATOM     16  C   UNL     1      49.145   6.945  13.225  0.00  0.00    +0.000 C 
BRANCH  16  17
ATOM     17  N   UNL     1      48.047   7.444  12.388  0.00  0.00    +0.000 N 
ATOM     18  C   UNL     1      46.950   6.573  12.354  0.00  0.00    +0.000 A 
ATOM     19  C   UNL     1      45.807   6.944  11.655  0.00  0.00    +0.000 A 
ATOM     20  C   UNL     1      44.715   6.072  11.625  0.00  0.00    +0.000 A 
ATOM     21  C   UNL     1      44.783   4.849  12.296  0.00  0.00    +0.000 A 
ATOM     22  C   UNL     1      45.947   4.581  12.989  0.00  0.00    +0.000 A 
ATOM     23  N   UNL     1      47.011   5.409  13.034  0.00  0.00    +0.000 NA
ATOM     24  H   UNL     1      48.335   7.684  11.445  0.00  0.00    +0.000 HD
BRANCH  21  25
ATOM     25  C   UNL     1      43.645   3.907  12.235  0.00  0.00    +0.000 C 
ATOM     26  N   UNL     1      42.505   4.284  11.579  0.00  0.00    +0.000 N 
ATOM     27  O   UNL     1      43.707   2.809  12.774  0.00  0.00    +0.000 OA
ATOM     28  H   UNL     1      42.343   5.165  11.114  0.00  0.00    +0.000 HD
ATOM     29  H   UNL     1      41.743   3.618  11.582  0.00  0.00    +0.000 HD
ENDBRANCH  21  25
ENDBRANCH  16  17
ENDBRANCH   1  16
TORSDOF 6
ENDMDL
MODEL 7
REMARK VINA RESULT:    -5.586      4.413      6.605
REMARK INTER + INTRA:          -8.720
REMARK INTER:                  -7.510
REMARK INTRA:                  -1.209
REMARK UNBOUND:                -1.174
REMARK  Name = 
REMARK  9 active torsions:
REMARK  status: ('A' for Active; 'I' for Inactive)
REMARK    1  A    between atoms: C_1  and  C_2
REMARK    2  A    between atoms: C_4  and  C_5
REMARK    3  A    between atoms: C_5  and  C_6
REMARK    4  A    between atoms: C_5  and  C_7
REMARK    5  A    between atoms: C_7  and  N_8
REMARK    6  A    between atoms: C_12  and  C_13
REMARK    7  A    between atoms: C_19  and  C_20
REMARK    8  A    between atoms: C_21  and  O_22
REMARK    9  A    between atoms: O_22  and  C_23
REMARK                            x       y       z     vdW  Elec       q    Type
REMARK                         _______ _______ _______ _____ _____    ______ ____
ROOT
ATOM      1  C   UNL     1      49.676   8.181  14.274  0.00  0.00    +0.000 C 
ATOM      2  C   UNL     1      51.193   8.448  14.302  0.00  0.00    +0.000 C 
ENDROOT
BRANCH   1   6
ATOM      3  C   UNL     1      48.970   4.369  17.417  0.00  0.00    +0.000 C 
ATOM      4  C   UNL     1      48.850   5.852  17.231  0.00  0.00    +0.000 A 
ATOM      5  C   UNL     1      49.295   6.364  15.991  0.00  0.00    +0.000 A 
ATOM      6  C   UNL     1      49.188   7.719  15.644  0.00  0.00    +0.000 A 
ATOM      7  C   UNL     1      48.655   8.584  16.600  0.00  0.00    +0.000 A 
ATOM      8  C   UNL     1      48.235   8.119  17.855  0.00  0.00    +0.000 A 
ATOM      9  C   UNL     1      47.718   9.123  18.854  0.00  0.00    +0.000 C 
ATOM     10  C   UNL     1      48.308   6.745  18.169  0.00  0.00    +0.000 A 
BRANCH  10  11
ATOM     11  O   UNL     1      47.693   6.430  19.357  0.00  0.00    +0.000 OA
BRANCH  11  12
ATOM     12  C   UNL     1      48.404   6.203  20.586  0.00  0.00    +0.000 C 
ATOM     13  C   UNL     1      49.934   6.398  20.425  0.00  0.00    +0.000 C 
ATOM     14  C   UNL     1      50.177   5.074  21.150  0.00  0.00    +0.000 C 
ATOM     15  C   UNL     1      48.682   4.747  21.017  0.00  0.00    +0.000 C 
ENDBRANCH  11  12
ENDBRANCH  10  11
ENDBRANCH   1   6
BRANCH   1  16
ATOM     16  C   UNL     1      49.402   7.235  13.085  0.00  0.00    +0.000 C 
BRANCH  16  17
ATOM     17  N   UNL     1      48.235   7.641  12.292  0.00  0.00    +0.000 N 
ATOM     18  C   UNL     1      47.135   6.792  12.471  0.00  0.00    +0.000 A 
ATOM     19  C   UNL     1      45.934   7.090  11.836  0.00  0.00    +0.000 A 
ATOM     20  C   UNL     1      44.839   6.241  12.019  0.00  0.00    +0.000 A 
ATOM     21  C   UNL     1      44.961   5.115  12.835  0.00  0.00    +0.000 A 
ATOM     22  C   UNL     1      46.182   4.918  13.449  0.00  0.00    +0.000 A 
ATOM     23  N   UNL     1      47.251   5.726  13.289  0.00  0.00    +0.000 NA
ATOM     24  H   UNL     1      48.437   7.751  11.304  0.00  0.00    +0.000 HD
BRANCH  21  25
ATOM     25  C   UNL     1      43.817   4.193  13.001  0.00  0.00    +0.000 C 
ATOM     26  N   UNL     1      43.971   2.875  12.663  0.00  0.00    +0.000 N 
ATOM     27  O   UNL     1      42.739   4.596  13.419  0.00  0.00    +0.000 OA
ATOM     28  H   UNL     1      44.807   2.443  12.299  0.00  0.00    +0.000 HD
ATOM     29  H   UNL     1      43.156   2.286  12.769  0.00  0.00    +0.000 HD
ENDBRANCH  21  25
ENDBRANCH  16  17
ENDBRANCH   1  16
TORSDOF 6
ENDMDL
MODEL 8
REMARK VINA RESULT:    -5.516      4.251      6.391
REMARK INTER + INTRA:          -8.626
REMARK INTER:                  -7.160
REMARK INTRA:                  -1.466
REMARK UNBOUND:                -1.174
REMARK  Name = 
REMARK  9 active torsions:
REMARK  status: ('A' for Active; 'I' for Inactive)
REMARK    1  A    between atoms: C_1  and  C_2
REMARK    2  A    between atoms: C_4  and  C_5
REMARK    3  A    between atoms: C_5  and  C_6
REMARK    4  A    between atoms: C_5  and  C_7
REMARK    5  A    between atoms: C_7  and  N_8
REMARK    6  A    between atoms: C_12  and  C_13
REMARK    7  A    between atoms: C_19  and  C_20
REMARK    8  A    between atoms: C_21  and  O_22
REMARK    9  A    between atoms: O_22  and  C_23
REMARK                            x       y       z     vdW  Elec       q    Type
REMARK                         _______ _______ _______ _____ _____    ______ ____
ROOT
ATOM      1  C   UNL     1      48.728  10.418  14.065  0.00  0.00    +0.000 C 
ATOM      2  C   UNL     1      49.914  11.371  13.823  0.00  0.00    +0.000 C 
ENDROOT
BRANCH   1   6
ATOM      3  C   UNL     1      51.779   6.982  16.013  0.00  0.00    +0.000 C 
ATOM      4  C   UNL     1      50.534   7.790  16.229  0.00  0.00    +0.000 A 
ATOM      5  C   UNL     1      50.193   8.699  15.201  0.00  0.00    +0.000 A 
ATOM      6  C   UNL     1      49.026   9.476  15.228  0.00  0.00    +0.000 A 
ATOM      7  C   UNL     1      48.205   9.359  16.350  0.00  0.00    +0.000 A 
ATOM      8  C   UNL     1      48.527   8.493  17.406  0.00  0.00    +0.000 A 
ATOM      9  C   UNL     1      47.618   8.459  18.607  0.00  0.00    +0.000 C 
ATOM     10  C   UNL     1      49.683   7.685  17.340  0.00  0.00    +0.000 A 
BRANCH  10  11
ATOM     11  O   UNL     1      49.758   6.768  18.361  0.00  0.00    +0.000 OA
BRANCH  11  12
ATOM     12  C   UNL     1      49.410   5.381  18.213  0.00  0.00    +0.000 C 
ATOM     13  C   UNL     1      48.598   5.113  16.920  0.00  0.00    +0.000 C 
ATOM     14  C   UNL     1      47.588   4.296  17.727  0.00  0.00    +0.000 C 
ATOM     15  C   UNL     1      48.216   4.831  19.022  0.00  0.00    +0.000 C 
ENDBRANCH  11  12
ENDBRANCH  10  11
ENDBRANCH   1   6
BRANCH   1  16
ATOM     16  C   UNL     1      48.387   9.761  12.711  0.00  0.00    +0.000 C 
BRANCH  16  17
ATOM     17  N   UNL     1      46.996   9.299  12.637  0.00  0.00    +0.000 N 
ATOM     18  C   UNL     1      46.871   7.916  12.821  0.00  0.00    +0.000 A 
ATOM     19  C   UNL     1      45.605   7.343  12.845  0.00  0.00    +0.000 A 
ATOM     20  C   UNL     1      45.486   5.963  13.031  0.00  0.00    +0.000 A 
ATOM     21  C   UNL     1      46.632   5.183  13.194  0.00  0.00    +0.000 A 
ATOM     22  C   UNL     1      47.844   5.843  13.188  0.00  0.00    +0.000 A 
ATOM     23  N   UNL     1      47.982   7.174  13.013  0.00  0.00    +0.000 NA
ATOM     24  H   UNL     1      46.520   9.585  11.787  0.00  0.00    +0.000 HD
BRANCH  21  25
ATOM     25  C   UNL     1      46.513   3.717  13.352  0.00  0.00    +0.000 C 
ATOM     26  N   UNL     1      45.530   3.053  12.670  0.00  0.00    +0.000 N 
ATOM     27  O   UNL     1      47.269   3.100  14.092  0.00  0.00    +0.000 OA
ATOM     28  H   UNL     1      44.849   3.462  12.048  0.00  0.00    +0.000 HD
ATOM     29  H   UNL     1      45.470   2.055  12.826  0.00  0.00    +0.000 HD
ENDBRANCH  21  25
ENDBRANCH  16  17
ENDBRANCH   1  16
TORSDOF 6
ENDMDL
MODEL 9
REMARK VINA RESULT:    -5.477      3.959      6.276
REMARK INTER + INTRA:          -8.573
REMARK INTER:                  -7.388
REMARK INTRA:                  -1.185
REMARK UNBOUND:                -1.174
REMARK  Name = 
REMARK  9 active torsions:
REMARK  status: ('A' for Active; 'I' for Inactive)
REMARK    1  A    between atoms: C_1  and  C_2
REMARK    2  A    between atoms: C_4  and  C_5
REMARK    3  A    between atoms: C_5  and  C_6
REMARK    4  A    between atoms: C_5  and  C_7
REMARK    5  A    between atoms: C_7  and  N_8
REMARK    6  A    between atoms: C_12  and  C_13
REMARK    7  A    between atoms: C_19  and  C_20
REMARK    8  A    between atoms: C_21  and  O_22
REMARK    9  A    between atoms: O_22  and  C_23
REMARK                            x       y       z     vdW  Elec       q    Type
REMARK                         _______ _______ _______ _____ _____    ______ ____
ROOT
ATOM      1  C   UNL     1      48.967   8.524  14.034  0.00  0.00    +0.000 C 
ATOM      2  C   UNL     1      49.886   9.722  13.727  0.00  0.00    +0.000 C 
ENDROOT
BRANCH   1   6
ATOM      3  C   UNL     1      48.074   5.815  18.129  0.00  0.00    +0.000 C 
ATOM      4  C   UNL     1      49.128   6.314  17.187  0.00  0.00    +0.000 A 
ATOM      5  C   UNL     1      48.674   7.092  16.097  0.00  0.00    +0.000 A 
ATOM      6  C   UNL     1      49.544   7.683  15.169  0.00  0.00    +0.000 A 
ATOM      7  C   UNL     1      50.909   7.440  15.326  0.00  0.00    +0.000 A 
ATOM      8  C   UNL     1      51.395   6.644  16.375  0.00  0.00    +0.000 A 
ATOM      9  C   UNL     1      52.878   6.385  16.449  0.00  0.00    +0.000 C 
ATOM     10  C   UNL     1      50.507   6.096  17.326  0.00  0.00    +0.000 A 
BRANCH  10  11
ATOM     11  O   UNL     1      51.152   5.499  18.383  0.00  0.00    +0.000 OA
BRANCH  11  12
ATOM     12  C   UNL     1      51.135   4.083  18.630  0.00  0.00    +0.000 C 
ATOM     13  C   UNL     1      52.561   3.480  18.699  0.00  0.00    +0.000 C 
ATOM     14  C   UNL     1      52.130   2.357  17.755  0.00  0.00    +0.000 C 
ATOM     15  C   UNL     1      50.841   3.133  17.449  0.00  0.00    +0.000 C 
ENDBRANCH  11  12
ENDBRANCH  10  11
ENDBRANCH   1   6
BRANCH   1  16
ATOM     16  C   UNL     1      48.702   7.798  12.698  0.00  0.00    +0.000 C 
BRANCH  16  17
ATOM     17  N   UNL     1      47.406   8.149  12.106  0.00  0.00    +0.000 N 
ATOM     18  C   UNL     1      46.514   7.069  12.071  0.00  0.00    +0.000 A 
ATOM     19  C   UNL     1      45.221   7.268  11.600  0.00  0.00    +0.000 A 
ATOM     20  C   UNL     1      44.334   6.188  11.568  0.00  0.00    +0.000 A 
ATOM     21  C   UNL     1      44.754   4.932  12.011  0.00  0.00    +0.000 A 
ATOM     22  C   UNL     1      46.044   4.837  12.491  0.00  0.00    +0.000 A 
ATOM     23  N   UNL     1      46.915   5.867  12.534  0.00  0.00    +0.000 NA
ATOM     24  H   UNL     1      47.482   8.572  11.187  0.00  0.00    +0.000 HD
BRANCH  21  25
ATOM     25  C   UNL     1      43.832   3.777  11.943  0.00  0.00    +0.000 C 
ATOM     26  N   UNL     1      44.130   2.647  12.654  0.00  0.00    +0.000 N 
ATOM     27  O   UNL     1      42.822   3.818  11.251  0.00  0.00    +0.000 OA
ATOM     28  H   UNL     1      44.937   2.502  13.242  0.00  0.00    +0.000 HD
ATOM     29  H   UNL     1      43.485   1.873  12.560  0.00  0.00    +0.000 HD
ENDBRANCH  21  25
ENDBRANCH  16  17
ENDBRANCH   1  16
TORSDOF 6
ENDMDL
