MODEL 1
REMARK VINA RESULT:    -9.213      0.000      0.000
REMARK INTER + INTRA:         -13.887
REMARK INTER:                 -12.983
REMARK INTRA:                  -0.905
REMARK UNBOUND:                -0.905
REMARK  Name = 
REMARK  7 active torsions:
REMARK  status: ('A' for Active; 'I' for Inactive)
REMARK    1  A    between atoms: C_2  and  C_4
REMARK    2  A    between atoms: C_7  and  C_8
REMARK    3  A    between atoms: C_8  and  N_9
REMARK    4  A    between atoms: N_9  and  C_10
REMARK    5  A    between atoms: C_13  and  C_14
REMARK    6  A    between atoms: C_14  and  N_15
REMARK    7  A    between atoms: C_16  and  C_18
REMARK                            x       y       z     vdW  Elec       q    Type
REMARK                         _______ _______ _______ _____ _____    ______ ____
ROOT
ATOM      1  C   UNL     1      44.651   6.212  11.125  0.00  0.00    +0.000 A 
ATOM      2  C   UNL     1      45.826   5.606  11.593  0.00  0.00    +0.000 A 
ATOM      3  C   UNL     1      46.720   6.297  12.427  0.00  0.00    +0.000 A 
ATOM      4  C   UNL     1      46.469   7.624  12.795  0.00  0.00    +0.000 A 
ATOM      5  C   UNL     1      45.353   8.262  12.251  0.00  0.00    +0.000 A 
ATOM      6  C   UNL     1      44.467   7.568  11.422  0.00  0.00    +0.000 A 
ENDROOT
BRANCH   1   7
ATOM      7  N   UNL     1      43.784   5.496  10.278  0.00  0.00    +0.000 N 
ATOM      8  H   UNL     1      43.862   5.810   9.314  0.00  0.00    +0.000 HD
BRANCH   7   9
ATOM      9  C   UNL     1      43.848   4.038  10.365  0.00  0.00    +0.000 C 
BRANCH   9  13
ATOM     10  C   UNL     1      46.576   2.411   7.429  0.00  0.00    +0.000 A 
ATOM     11  C   UNL     1      46.294   3.783   7.440  0.00  0.00    +0.000 A 
ATOM     12  C   UNL     1      45.386   4.305   8.367  0.00  0.00    +0.000 A 
ATOM     13  C   UNL     1      44.746   3.465   9.291  0.00  0.00    +0.000 A 
ATOM     14  C   UNL     1      45.018   2.088   9.256  0.00  0.00    +0.000 A 
ATOM     15  C   UNL     1      45.923   1.564   8.329  0.00  0.00    +0.000 A 
BRANCH  10  17
ATOM     16  N   UNL     1      48.619   2.587   6.111  0.00  0.00    +0.000 N 
ATOM     17  C   UNL     1      47.548   1.818   6.474  0.00  0.00    +0.000 C 
ATOM     18  O   UNL     1      47.426   0.674   6.056  0.00  0.00    +0.000 OA
ATOM     19  H   UNL     1      49.328   2.129   5.552  0.00  0.00    +0.000 HD
ATOM     20  H   UNL     1      48.889   3.414   6.624  0.00  0.00    +0.000 HD
ENDBRANCH  10  17
ENDBRANCH   9  13
ENDBRANCH   7   9
ENDBRANCH   1   7
BRANCH   4  21
ATOM     21  C   UNL     1      47.387   8.379  13.718  0.00  0.00    +0.000 C 
BRANCH  21  22
ATOM     22  N   UNL     1      47.726   7.602  14.881  0.00  0.00    +0.000 N 
ATOM     23  C   UNL     1      48.923   6.937  14.959  0.00  0.00    +0.000 C 
ATOM     24  O   UNL     1      49.768   7.014  14.071  0.00  0.00    +0.000 OA
ATOM     25  H   UNL     1      46.964   7.334  15.498  0.00  0.00    +0.000 HD
BRANCH  23  26
ATOM     26  C   UNL     1      49.173   6.177  16.188  0.00  0.00    +0.000 A 
ATOM     27  C   UNL     1      50.224   6.541  17.019  0.00  0.00    +0.000 A 
ATOM     28  S   UNL     1      50.337   5.594  18.433  0.00  0.00    +0.000 S 
ATOM     29  C   UNL     1      49.020   4.628  17.956  0.00  0.00    +0.000 A 
ATOM     30  N   UNL     1      48.602   3.588  18.726  0.00  0.00    +0.000 NA
ATOM     31  C   UNL     1      47.615   2.921  18.229  0.00  0.00    +0.000 A 
ATOM     32  N   UNL     1      47.005   3.201  17.034  0.00  0.00    +0.000 N 
ATOM     33  C   UNL     1      47.377   4.255  16.235  0.00  0.00    +0.000 A 
ATOM     34  O   UNL     1      46.788   4.500  15.186  0.00  0.00    +0.000 OA
ATOM     35  C   UNL     1      48.489   5.035  16.745  0.00  0.00    +0.000 A 
ATOM     36  H   UNL     1      46.234   2.641  16.702  0.00  0.00    +0.000 HD
ENDBRANCH  23  26
ENDBRANCH  21  22
ENDBRANCH   4  21
TORSDOF 7
ENDMDL
MODEL 2
REMARK VINA RESULT:    -8.995      1.827      2.313
REMARK INTER + INTRA:         -13.581
REMARK INTER:                 -12.454
REMARK INTRA:                  -1.127
REMARK UNBOUND:                -0.905
REMARK  Name = 
REMARK  7 active torsions:
REMARK  status: ('A' for Active; 'I' for Inactive)
REMARK    1  A    between atoms: C_2  and  C_4
REMARK    2  A    between atoms: C_7  and  C_8
REMARK    3  A    between atoms: C_8  and  N_9
REMARK    4  A    between atoms: N_9  and  C_10
REMARK    5  A    between atoms: C_13  and  C_14
REMARK    6  A    between atoms: C_14  and  N_15
REMARK    7  A    between atoms: C_16  and  C_18
REMARK                            x       y       z     vdW  Elec       q    Type
REMARK                         _______ _______ _______ _____ _____    ______ ____
ROOT
ATOM      1  C   UNL     1      45.031   4.550  12.168  0.00  0.00    +0.000 A 
ATOM      2  C   UNL     1      45.943   3.893  13.006  0.00  0.00    +0.000 A 
ATOM      3  C   UNL     1      47.009   4.582  13.608  0.00  0.00    +0.000 A 
ATOM      4  C   UNL     1      47.201   5.947  13.363  0.00  0.00    +0.000 A 
ATOM      5  C   UNL     1      46.355   6.582  12.451  0.00  0.00    +0.000 A 
ATOM      6  C   UNL     1      45.296   5.889  11.858  0.00  0.00    +0.000 A 
ENDROOT
BRANCH   1   7
ATOM      7  N   UNL     1      43.983   3.825  11.571  0.00  0.00    +0.000 N 
ATOM      8  H   UNL     1      43.130   3.882  12.122  0.00  0.00    +0.000 HD
BRANCH   7   9
ATOM      9  C   UNL     1      43.719   4.106  10.161  0.00  0.00    +0.000 C 
BRANCH   9  13
ATOM     10  C   UNL     1      46.619   2.357   7.470  0.00  0.00    +0.000 A 
ATOM     11  C   UNL     1      45.928   1.547   8.381  0.00  0.00    +0.000 A 
ATOM     12  C   UNL     1      45.016   2.116   9.274  0.00  0.00    +0.000 A 
ATOM     13  C   UNL     1      44.784   3.500   9.273  0.00  0.00    +0.000 A 
ATOM     14  C   UNL     1      45.497   4.306   8.373  0.00  0.00    +0.000 A 
ATOM     15  C   UNL     1      46.412   3.740   7.481  0.00  0.00    +0.000 A 
BRANCH  10  17
ATOM     16  N   UNL     1      48.737   2.492   6.272  0.00  0.00    +0.000 N 
ATOM     17  C   UNL     1      47.583   1.791   6.491  0.00  0.00    +0.000 C 
ATOM     18  O   UNL     1      47.381   0.723   5.930  0.00  0.00    +0.000 OA
ATOM     19  H   UNL     1      49.430   2.039   5.691  0.00  0.00    +0.000 HD
ATOM     20  H   UNL     1      49.052   3.223   6.894  0.00  0.00    +0.000 HD
ENDBRANCH  10  17
ENDBRANCH   9  13
ENDBRANCH   7   9
ENDBRANCH   1   7
BRANCH   4  21
ATOM     21  C   UNL     1      48.309   6.723  14.021  0.00  0.00    +0.000 C 
BRANCH  21  22
ATOM     22  N   UNL     1      48.061   6.916  15.426  0.00  0.00    +0.000 N 
ATOM     23  C   UNL     1      48.990   6.542  16.362  0.00  0.00    +0.000 C 
ATOM     24  O   UNL     1      50.082   6.076  16.046  0.00  0.00    +0.000 OA
ATOM     25  H   UNL     1      47.097   7.067  15.709  0.00  0.00    +0.000 HD
BRANCH  23  26
ATOM     26  C   UNL     1      48.641   6.785  17.766  0.00  0.00    +0.000 A 
ATOM     27  C   UNL     1      48.333   8.072  18.185  0.00  0.00    +0.000 A 
ATOM     28  S   UNL     1      47.892   8.169  19.828  0.00  0.00    +0.000 S 
ATOM     29  C   UNL     1      48.152   6.503  20.053  0.00  0.00    +0.000 A 
ATOM     30  N   UNL     1      47.976   5.926  21.272  0.00  0.00    +0.000 NA
ATOM     31  C   UNL     1      48.240   4.662  21.306  0.00  0.00    +0.000 A 
ATOM     32  N   UNL     1      48.660   3.922  20.232  0.00  0.00    +0.000 N 
ATOM     33  C   UNL     1      48.828   4.456  18.977  0.00  0.00    +0.000 A 
ATOM     34  O   UNL     1      49.172   3.759  18.027  0.00  0.00    +0.000 OA
ATOM     35  C   UNL     1      48.551   5.877  18.885  0.00  0.00    +0.000 A 
ATOM     36  H   UNL     1      48.846   2.935  20.324  0.00  0.00    +0.000 HD
ENDBRANCH  23  26
ENDBRANCH  21  22
ENDBRANCH   4  21
TORSDOF 7
ENDMDL
MODEL 3
REMARK VINA RESULT:    -8.751      2.278      2.966
REMARK INTER + INTRA:         -13.237
REMARK INTER:                 -11.941
REMARK INTRA:                  -1.296
REMARK UNBOUND:                -0.905
REMARK  Name = 
REMARK  7 active torsions:
REMARK  status: ('A' for Active; 'I' for Inactive)
REMARK    1  A    between atoms: C_2  and  C_4
REMARK    2  A    between atoms: C_7  and  C_8
REMARK    3  A    between atoms: C_8  and  N_9
REMARK    4  A    between atoms: N_9  and  C_10
REMARK    5  A    between atoms: C_13  and  C_14
REMARK    6  A    between atoms: C_14  and  N_15
REMARK    7  A    between atoms: C_16  and  C_18
REMARK                            x       y       z     vdW  Elec       q    Type
REMARK                         _______ _______ _______ _____ _____    ______ ____
ROOT
ATOM      1  C   UNL     1      45.000   4.629  12.174  0.00  0.00    +0.000 A 
ATOM      2  C   UNL     1      45.162   6.021  12.156  0.00  0.00    +0.000 A 
ATOM      3  C   UNL     1      46.190   6.646  12.882  0.00  0.00    +0.000 A 
ATOM      4  C   UNL     1      47.069   5.889  13.664  0.00  0.00    +0.000 A 
ATOM      5  C   UNL     1      46.850   4.513  13.764  0.00  0.00    +0.000 A 
ATOM      6  C   UNL     1      45.826   3.899  13.038  0.00  0.00    +0.000 A 
ENDROOT
BRANCH   1   7
ATOM      7  N   UNL     1      43.950   4.037  11.447  0.00  0.00    +0.000 N 
ATOM      8  H   UNL     1      43.060   4.138  11.929  0.00  0.00    +0.000 HD
BRANCH   7   9
ATOM      9  C   UNL     1      43.836   4.422  10.041  0.00  0.00    +0.000 C 
BRANCH   9  13
ATOM     10  C   UNL     1      46.680   2.425   7.466  0.00  0.00    +0.000 A 
ATOM     11  C   UNL     1      45.895   1.680   8.356  0.00  0.00    +0.000 A 
ATOM     12  C   UNL     1      45.000   2.327   9.213  0.00  0.00    +0.000 A 
ATOM     13  C   UNL     1      44.879   3.725   9.196  0.00  0.00    +0.000 A 
ATOM     14  C   UNL     1      45.687   4.464   8.318  0.00  0.00    +0.000 A 
ATOM     15  C   UNL     1      46.585   3.820   7.463  0.00  0.00    +0.000 A 
BRANCH  10  17
ATOM     16  N   UNL     1      48.845   2.379   6.347  0.00  0.00    +0.000 N 
ATOM     17  C   UNL     1      47.630   1.776   6.526  0.00  0.00    +0.000 C 
ATOM     18  O   UNL     1      47.363   0.724   5.961  0.00  0.00    +0.000 OA
ATOM     19  H   UNL     1      49.520   1.868   5.794  0.00  0.00    +0.000 HD
ATOM     20  H   UNL     1      49.196   3.086   6.979  0.00  0.00    +0.000 HD
ENDBRANCH  10  17
ENDBRANCH   9  13
ENDBRANCH   7   9
ENDBRANCH   1   7
BRANCH   4  21
ATOM     21  C   UNL     1      48.204   6.522  14.422  0.00  0.00    +0.000 C 
BRANCH  21  22
ATOM     22  N   UNL     1      48.038   6.377  15.845  0.00  0.00    +0.000 N 
ATOM     23  C   UNL     1      49.098   6.042  16.646  0.00  0.00    +0.000 C 
ATOM     24  O   UNL     1      50.233   5.899  16.198  0.00  0.00    +0.000 OA
ATOM     25  H   UNL     1      47.090   6.253  16.190  0.00  0.00    +0.000 HD
BRANCH  23  26
ATOM     26  C   UNL     1      48.823   5.922  18.082  0.00  0.00    +0.000 A 
ATOM     27  C   UNL     1      49.088   4.726  18.735  0.00  0.00    +0.000 A 
ATOM     28  S   UNL     1      48.770   4.777  20.409  0.00  0.00    +0.000 S 
ATOM     29  C   UNL     1      48.214   6.382  20.310  0.00  0.00    +0.000 A 
ATOM     30  N   UNL     1      47.756   7.032  21.414  0.00  0.00    +0.000 NA
ATOM     31  C   UNL     1      47.335   8.232  21.188  0.00  0.00    +0.000 A 
ATOM     32  N   UNL     1      47.334   8.842  19.961  0.00  0.00    +0.000 N 
ATOM     33  C   UNL     1      47.809   8.234  18.824  0.00  0.00    +0.000 A 
ATOM     34  O   UNL     1      47.827   8.820  17.746  0.00  0.00    +0.000 OA
ATOM     35  C   UNL     1      48.289   6.879  19.021  0.00  0.00    +0.000 A 
ATOM     36  H   UNL     1      46.994   9.786  19.853  0.00  0.00    +0.000 HD
ENDBRANCH  23  26
ENDBRANCH  21  22
ENDBRANCH   4  21
TORSDOF 7
ENDMDL
MODEL 4
REMARK VINA RESULT:    -8.322      2.199      2.747
REMARK INTER + INTRA:         -12.632
REMARK INTER:                 -11.434
REMARK INTRA:                  -1.197
REMARK UNBOUND:                -0.905
REMARK  Name = 
REMARK  7 active torsions:
REMARK  status: ('A' for Active; 'I' for Inactive)
REMARK    1  A    between atoms: C_2  and  C_4
REMARK    2  A    between atoms: C_7  and  C_8
REMARK    3  A    between atoms: C_8  and  N_9
REMARK    4  A    between atoms: N_9  and  C_10
REMARK    5  A    between atoms: C_13  and  C_14
REMARK    6  A    between atoms: C_14  and  N_15
REMARK    7  A    between atoms: C_16  and  C_18
REMARK                            x       y       z     vdW  Elec       q    Type
REMARK                         _______ _______ _______ _____ _____    ______ ____
ROOT
ATOM      1  C   UNL     1      44.970   5.228  11.993  0.00  0.00    +0.000 A 
ATOM      2  C   UNL     1      44.467   6.524  11.814  0.00  0.00    +0.000 A 
ATOM      3  C   UNL     1      45.174   7.650  12.266  0.00  0.00    +0.000 A 
ATOM      4  C   UNL     1      46.396   7.502  12.932  0.00  0.00    +0.000 A 
ATOM      5  C   UNL     1      46.851   6.210  13.201  0.00  0.00    +0.000 A 
ATOM      6  C   UNL     1      46.142   5.094  12.746  0.00  0.00    +0.000 A 
ENDROOT
BRANCH   1   7
ATOM      7  N   UNL     1      44.228   4.121  11.540  0.00  0.00    +0.000 N 
ATOM      8  H   UNL     1      43.444   3.921  12.156  0.00  0.00    +0.000 HD
BRANCH   7   9
ATOM      9  C   UNL     1      43.806   4.150  10.141  0.00  0.00    +0.000 C 
BRANCH   9  13
ATOM     10  C   UNL     1      46.647   2.360   7.415  0.00  0.00    +0.000 A 
ATOM     11  C   UNL     1      45.956   1.559   8.333  0.00  0.00    +0.000 A 
ATOM     12  C   UNL     1      45.062   2.141   9.238  0.00  0.00    +0.000 A 
ATOM     13  C   UNL     1      44.850   3.528   9.240  0.00  0.00    +0.000 A 
ATOM     14  C   UNL     1      45.565   4.324   8.332  0.00  0.00    +0.000 A 
ATOM     15  C   UNL     1      46.460   3.746   7.429  0.00  0.00    +0.000 A 
BRANCH  10  17
ATOM     16  N   UNL     1      48.809   2.388   6.290  0.00  0.00    +0.000 N 
ATOM     17  C   UNL     1      47.591   1.781   6.424  0.00  0.00    +0.000 C 
ATOM     18  O   UNL     1      47.315   0.778   5.780  0.00  0.00    +0.000 OA
ATOM     19  H   UNL     1      49.480   1.917   5.697  0.00  0.00    +0.000 HD
ATOM     20  H   UNL     1      49.165   3.041   6.973  0.00  0.00    +0.000 HD
ENDBRANCH  10  17
ENDBRANCH   9  13
ENDBRANCH   7   9
ENDBRANCH   1   7
BRANCH   4  21
ATOM     21  C   UNL     1      47.197   8.689  13.394  0.00  0.00    +0.000 C 
BRANCH  21  22
ATOM     22  N   UNL     1      47.275   8.749  14.830  0.00  0.00    +0.000 N 
ATOM     23  C   UNL     1      48.353   9.324  15.452  0.00  0.00    +0.000 C 
ATOM     24  O   UNL     1      49.264   9.852  14.820  0.00  0.00    +0.000 OA
ATOM     25  H   UNL     1      46.671   8.121  15.353  0.00  0.00    +0.000 HD
BRANCH  23  26
ATOM     26  C   UNL     1      48.333   9.337  16.919  0.00  0.00    +0.000 A 
ATOM     27  C   UNL     1      48.226  10.546  17.595  0.00  0.00    +0.000 A 
ATOM     28  S   UNL     1      48.157  10.378  19.290  0.00  0.00    +0.000 S 
ATOM     29  C   UNL     1      48.325   8.688  19.184  0.00  0.00    +0.000 A 
ATOM     30  N   UNL     1      48.368   7.919  20.304  0.00  0.00    +0.000 NA
ATOM     31  C   UNL     1      48.531   6.658  20.078  0.00  0.00    +0.000 A 
ATOM     32  N   UNL     1      48.651   6.096  18.834  0.00  0.00    +0.000 N 
ATOM     33  C   UNL     1      48.588   6.830  17.674  0.00  0.00    +0.000 A 
ATOM     34  O   UNL     1      48.663   6.292  16.573  0.00  0.00    +0.000 OA
ATOM     35  C   UNL     1      48.412   8.256  17.872  0.00  0.00    +0.000 A 
ATOM     36  H   UNL     1      48.773   5.100  18.725  0.00  0.00    +0.000 HD
ENDBRANCH  23  26
ENDBRANCH  21  22
ENDBRANCH   4  21
TORSDOF 7
ENDMDL
MODEL 5
REMARK VINA RESULT:    -7.850      3.072      8.308
REMARK INTER + INTRA:         -11.967
REMARK INTER:                 -10.415
REMARK INTRA:                  -1.552
REMARK UNBOUND:                -0.905
REMARK  Name = 
REMARK  7 active torsions:
REMARK  status: ('A' for Active; 'I' for Inactive)
REMARK    1  A    between atoms: C_2  and  C_4
REMARK    2  A    between atoms: C_7  and  C_8
REMARK    3  A    between atoms: C_8  and  N_9
REMARK    4  A    between atoms: N_9  and  C_10
REMARK    5  A    between atoms: C_13  and  C_14
REMARK    6  A    between atoms: C_14  and  N_15
REMARK    7  A    between atoms: C_16  and  C_18
REMARK                            x       y       z     vdW  Elec       q    Type
REMARK                         _______ _______ _______ _____ _____    ______ ____
ROOT
ATOM      1  C   UNL     1      49.738   8.415  15.783  0.00  0.00    +0.000 A 
ATOM      2  C   UNL     1      50.368   7.709  14.749  0.00  0.00    +0.000 A 
ATOM      3  C   UNL     1      49.758   7.554  13.493  0.00  0.00    +0.000 A 
ATOM      4  C   UNL     1      48.486   8.085  13.251  0.00  0.00    +0.000 A 
ATOM      5  C   UNL     1      47.813   8.701  14.308  0.00  0.00    +0.000 A 
ATOM      6  C   UNL     1      48.428   8.853  15.555  0.00  0.00    +0.000 A 
ENDROOT
BRANCH   1   7
ATOM      7  N   UNL     1      50.373   8.539  17.033  0.00  0.00    +0.000 N 
ATOM      8  H   UNL     1      50.529   9.514  17.276  0.00  0.00    +0.000 HD
BRANCH   7   9
ATOM      9  C   UNL     1      49.766   7.809  18.145  0.00  0.00    +0.000 C 
BRANCH   9  13
ATOM     10  C   UNL     1      50.057   3.571  17.329  0.00  0.00    +0.000 A 
ATOM     11  C   UNL     1      48.813   4.212  17.275  0.00  0.00    +0.000 A 
ATOM     12  C   UNL     1      48.712   5.575  17.573  0.00  0.00    +0.000 A 
ATOM     13  C   UNL     1      49.850   6.314  17.930  0.00  0.00    +0.000 A 
ATOM     14  C   UNL     1      51.089   5.657  18.003  0.00  0.00    +0.000 A 
ATOM     15  C   UNL     1      51.191   4.295  17.710  0.00  0.00    +0.000 A 
BRANCH  10  17
ATOM     16  N   UNL     1      51.067   1.400  17.781  0.00  0.00    +0.000 N 
ATOM     17  C   UNL     1      50.211   2.130  17.002  0.00  0.00    +0.000 C 
ATOM     18  O   UNL     1      49.573   1.599  16.103  0.00  0.00    +0.000 OA
ATOM     19  H   UNL     1      51.075   0.401  17.619  0.00  0.00    +0.000 HD
ATOM     20  H   UNL     1      51.402   1.732  18.674  0.00  0.00    +0.000 HD
ENDBRANCH  10  17
ENDBRANCH   9  13
ENDBRANCH   7   9
ENDBRANCH   1   7
BRANCH   4  21
ATOM     21  C   UNL     1      47.820   7.970  11.907  0.00  0.00    +0.000 C 
BRANCH  21  22
ATOM     22  N   UNL     1      47.079   6.742  11.785  0.00  0.00    +0.000 N 
ATOM     23  C   UNL     1      45.709   6.747  11.761  0.00  0.00    +0.000 C 
ATOM     24  O   UNL     1      45.061   7.790  11.792  0.00  0.00    +0.000 OA
ATOM     25  H   UNL     1      47.574   5.880  11.998  0.00  0.00    +0.000 HD
BRANCH  23  26
ATOM     26  C   UNL     1      45.050   5.442  11.630  0.00  0.00    +0.000 A 
ATOM     27  C   UNL     1      44.374   4.902  12.715  0.00  0.00    +0.000 A 
ATOM     28  S   UNL     1      43.616   3.413  12.376  0.00  0.00    +0.000 S 
ATOM     29  C   UNL     1      44.213   3.410  10.783  0.00  0.00    +0.000 A 
ATOM     30  N   UNL     1      43.947   2.377   9.940  0.00  0.00    +0.000 NA
ATOM     31  C   UNL     1      44.490   2.489   8.773  0.00  0.00    +0.000 A 
ATOM     32  N   UNL     1      45.270   3.542   8.372  0.00  0.00    +0.000 N 
ATOM     33  C   UNL     1      45.545   4.619   9.181  0.00  0.00    +0.000 A 
ATOM     34  O   UNL     1      46.218   5.563   8.780  0.00  0.00    +0.000 OA
ATOM     35  C   UNL     1      44.964   4.539  10.507  0.00  0.00    +0.000 A 
ATOM     36  H   UNL     1      45.662   3.571   7.442  0.00  0.00    +0.000 HD
ENDBRANCH  23  26
ENDBRANCH  21  22
ENDBRANCH   4  21
TORSDOF 7
ENDMDL
MODEL 6
REMARK VINA RESULT:    -7.407      3.988      8.375
REMARK INTER + INTRA:         -11.343
REMARK INTER:                  -9.708
REMARK INTRA:                  -1.635
REMARK UNBOUND:                -0.905
REMARK  Name = 
REMARK  7 active torsions:
REMARK  status: ('A' for Active; 'I' for Inactive)
REMARK    1  A    between atoms: C_2  and  C_4
REMARK    2  A    between atoms: C_7  and  C_8
REMARK    3  A    between atoms: C_8  and  N_9
REMARK    4  A    between atoms: N_9  and  C_10
REMARK    5  A    between atoms: C_13  and  C_14
REMARK    6  A    between atoms: C_14  and  N_15
REMARK    7  A    between atoms: C_16  and  C_18
REMARK                            x       y       z     vdW  Elec       q    Type
REMARK                         _______ _______ _______ _____ _____    ______ ____
ROOT
ATOM      1  C   UNL     1      50.066   8.051  18.015  0.00  0.00    +0.000 A 
ATOM      2  C   UNL     1      48.750   8.518  17.898  0.00  0.00    +0.000 A 
ATOM      3  C   UNL     1      48.178   8.783  16.642  0.00  0.00    +0.000 A 
ATOM      4  C   UNL     1      48.924   8.608  15.471  0.00  0.00    +0.000 A 
ATOM      5  C   UNL     1      50.266   8.239  15.588  0.00  0.00    +0.000 A 
ATOM      6  C   UNL     1      50.826   7.976  16.842  0.00  0.00    +0.000 A 
ENDROOT
BRANCH   1   7
ATOM      7  N   UNL     1      50.612   7.809  19.290  0.00  0.00    +0.000 N 
ATOM      8  H   UNL     1      50.665   8.663  19.840  0.00  0.00    +0.000 HD
BRANCH   7   9
ATOM      9  C   UNL     1      50.010   6.722  20.059  0.00  0.00    +0.000 C 
BRANCH   9  13
ATOM     10  C   UNL     1      50.321   3.065  17.770  0.00  0.00    +0.000 A 
ATOM     11  C   UNL     1      49.062   3.556  18.141  0.00  0.00    +0.000 A 
ATOM     12  C   UNL     1      48.962   4.719  18.911  0.00  0.00    +0.000 A 
ATOM     13  C   UNL     1      50.115   5.405  19.321  0.00  0.00    +0.000 A 
ATOM     14  C   UNL     1      51.372   4.893  18.963  0.00  0.00    +0.000 A 
ATOM     15  C   UNL     1      51.475   3.729  18.198  0.00  0.00    +0.000 A 
BRANCH  10  17
ATOM     16  N   UNL     1      51.395   0.919  17.344  0.00  0.00    +0.000 N 
ATOM     17  C   UNL     1      50.472   1.844  16.937  0.00  0.00    +0.000 C 
ATOM     18  O   UNL     1      49.776   1.644  15.951  0.00  0.00    +0.000 OA
ATOM     19  H   UNL     1      51.406   0.046  16.834  0.00  0.00    +0.000 HD
ATOM     20  H   UNL     1      51.792   0.924  18.273  0.00  0.00    +0.000 HD
ENDBRANCH  10  17
ENDBRANCH   9  13
ENDBRANCH   7   9
ENDBRANCH   1   7
BRANCH   4  21
ATOM     21  C   UNL     1      48.330   8.846  14.109  0.00  0.00    +0.000 C 
BRANCH  21  22
ATOM     22  N   UNL     1      47.328   7.864  13.788  0.00  0.00    +0.000 N 
ATOM     23  C   UNL     1      47.674   6.671  13.207  0.00  0.00    +0.000 C 
ATOM     24  O   UNL     1      48.843   6.371  12.982  0.00  0.00    +0.000 OA
ATOM     25  H   UNL     1      46.365   8.184  13.741  0.00  0.00    +0.000 HD
BRANCH  23  26
ATOM     26  C   UNL     1      46.578   5.738  12.923  0.00  0.00    +0.000 A 
ATOM     27  C   UNL     1      46.721   4.393  13.238  0.00  0.00    +0.000 A 
ATOM     28  S   UNL     1      45.335   3.460  12.900  0.00  0.00    +0.000 S 
ATOM     29  C   UNL     1      44.514   4.810  12.269  0.00  0.00    +0.000 A 
ATOM     30  N   UNL     1      43.254   4.691  11.769  0.00  0.00    +0.000 NA
ATOM     31  C   UNL     1      42.764   5.787  11.294  0.00  0.00    +0.000 A 
ATOM     32  N   UNL     1      43.417   6.992  11.277  0.00  0.00    +0.000 N 
ATOM     33  C   UNL     1      44.679   7.166  11.792  0.00  0.00    +0.000 A 
ATOM     34  O   UNL     1      45.223   8.266  11.793  0.00  0.00    +0.000 OA
ATOM     35  C   UNL     1      45.279   5.961  12.334  0.00  0.00    +0.000 A 
ATOM     36  H   UNL     1      42.975   7.815  10.893  0.00  0.00    +0.000 HD
ENDBRANCH  23  26
ENDBRANCH  21  22
ENDBRANCH   4  21
TORSDOF 7
ENDMDL
MODEL 7
REMARK VINA RESULT:    -7.307      4.908      7.267
REMARK INTER + INTRA:         -11.202
REMARK INTER:                 -10.158
REMARK INTRA:                  -1.044
REMARK UNBOUND:                -0.905
REMARK  Name = 
REMARK  7 active torsions:
REMARK  status: ('A' for Active; 'I' for Inactive)
REMARK    1  A    between atoms: C_2  and  C_4
REMARK    2  A    between atoms: C_7  and  C_8
REMARK    3  A    between atoms: C_8  and  N_9
REMARK    4  A    between atoms: N_9  and  C_10
REMARK    5  A    between atoms: C_13  and  C_14
REMARK    6  A    between atoms: C_14  and  N_15
REMARK    7  A    between atoms: C_16  and  C_18
REMARK                            x       y       z     vdW  Elec       q    Type
REMARK                         _______ _______ _______ _____ _____    ______ ____
ROOT
ATOM      1  C   UNL     1      51.185   8.049  12.115  0.00  0.00    +0.000 A 
ATOM      2  C   UNL     1      50.787   8.627  13.328  0.00  0.00    +0.000 A 
ATOM      3  C   UNL     1      49.436   8.666  13.711  0.00  0.00    +0.000 A 
ATOM      4  C   UNL     1      48.444   8.143  12.871  0.00  0.00    +0.000 A 
ATOM      5  C   UNL     1      48.826   7.657  11.619  0.00  0.00    +0.000 A 
ATOM      6  C   UNL     1      50.173   7.621  11.247  0.00  0.00    +0.000 A 
ENDROOT
BRANCH   1   7
ATOM      7  N   UNL     1      52.546   8.040  11.757  0.00  0.00    +0.000 N 
ATOM      8  H   UNL     1      52.953   7.114  11.863  0.00  0.00    +0.000 HD
BRANCH   7   9
ATOM      9  C   UNL     1      52.879   8.616  10.455  0.00  0.00    +0.000 C 
BRANCH   9  13
ATOM     10  C   UNL     1      53.413   5.448   7.559  0.00  0.00    +0.000 A 
ATOM     11  C   UNL     1      53.910   5.300   8.860  0.00  0.00    +0.000 A 
ATOM     12  C   UNL     1      53.768   6.338   9.787  0.00  0.00    +0.000 A 
ATOM     13  C   UNL     1      53.132   7.535   9.427  0.00  0.00    +0.000 A 
ATOM     14  C   UNL     1      52.658   7.683   8.114  0.00  0.00    +0.000 A 
ATOM     15  C   UNL     1      52.801   6.649   7.185  0.00  0.00    +0.000 A 
BRANCH  10  17
ATOM     16  N   UNL     1      53.044   3.133   6.894  0.00  0.00    +0.000 N 
ATOM     17  C   UNL     1      53.525   4.365   6.547  0.00  0.00    +0.000 C 
ATOM     18  O   UNL     1      53.990   4.567   5.434  0.00  0.00    +0.000 OA
ATOM     19  H   UNL     1      53.024   2.438   6.158  0.00  0.00    +0.000 HD
ATOM     20  H   UNL     1      52.430   2.994   7.684  0.00  0.00    +0.000 HD
ENDBRANCH  10  17
ENDBRANCH   9  13
ENDBRANCH   7   9
ENDBRANCH   1   7
BRANCH   4  21
ATOM     21  C   UNL     1      46.993   8.134  13.267  0.00  0.00    +0.000 C 
BRANCH  21  22
ATOM     22  N   UNL     1      46.373   6.867  12.982  0.00  0.00    +0.000 N 
ATOM     23  C   UNL     1      45.398   6.761  12.025  0.00  0.00    +0.000 C 
ATOM     24  O   UNL     1      45.048   7.721  11.343  0.00  0.00    +0.000 OA
ATOM     25  H   UNL     1      46.471   6.136  13.682  0.00  0.00    +0.000 HD
BRANCH  23  26
ATOM     26  C   UNL     1      44.833   5.424  11.809  0.00  0.00    +0.000 A 
ATOM     27  C   UNL     1      44.138   4.798  12.835  0.00  0.00    +0.000 A 
ATOM     28  S   UNL     1      43.497   3.279  12.398  0.00  0.00    +0.000 S 
ATOM     29  C   UNL     1      44.175   3.380  10.841  0.00  0.00    +0.000 A 
ATOM     30  N   UNL     1      44.021   2.368   9.945  0.00  0.00    +0.000 NA
ATOM     31  C   UNL     1      44.614   2.563   8.815  0.00  0.00    +0.000 A 
ATOM     32  N   UNL     1      45.344   3.679   8.497  0.00  0.00    +0.000 N 
ATOM     33  C   UNL     1      45.506   4.736   9.360  0.00  0.00    +0.000 A 
ATOM     34  O   UNL     1      46.136   5.737   9.033  0.00  0.00    +0.000 OA
ATOM     35  C   UNL     1      44.863   4.565  10.650  0.00  0.00    +0.000 A 
ATOM     36  H   UNL     1      45.781   3.771   7.592  0.00  0.00    +0.000 HD
ENDBRANCH  23  26
ENDBRANCH  21  22
ENDBRANCH   4  21
TORSDOF 7
ENDMDL
MODEL 8
REMARK VINA RESULT:    -7.182      3.964      8.158
REMARK INTER + INTRA:         -11.026
REMARK INTER:                  -9.243
REMARK INTRA:                  -1.783
REMARK UNBOUND:                -0.905
REMARK  Name = 
REMARK  7 active torsions:
REMARK  status: ('A' for Active; 'I' for Inactive)
REMARK    1  A    between atoms: C_2  and  C_4
REMARK    2  A    between atoms: C_7  and  C_8
REMARK    3  A    between atoms: C_8  and  N_9
REMARK    4  A    between atoms: N_9  and  C_10
REMARK    5  A    between atoms: C_13  and  C_14
REMARK    6  A    between atoms: C_14  and  N_15
REMARK    7  A    between atoms: C_16  and  C_18
REMARK                            x       y       z     vdW  Elec       q    Type
REMARK                         _______ _______ _______ _____ _____    ______ ____
ROOT
ATOM      1  C   UNL     1      49.560   8.054  18.980  0.00  0.00    +0.000 A 
ATOM      2  C   UNL     1      48.280   8.610  18.848  0.00  0.00    +0.000 A 
ATOM      3  C   UNL     1      47.858   9.194  17.642  0.00  0.00    +0.000 A 
ATOM      4  C   UNL     1      48.721   9.256  16.542  0.00  0.00    +0.000 A 
ATOM      5  C   UNL     1      50.030   8.794  16.701  0.00  0.00    +0.000 A 
ATOM      6  C   UNL     1      50.441   8.213  17.904  0.00  0.00    +0.000 A 
ENDROOT
BRANCH   1   7
ATOM      7  N   UNL     1      49.954   7.489  20.207  0.00  0.00    +0.000 N 
ATOM      8  H   UNL     1      50.007   8.192  20.941  0.00  0.00    +0.000 HD
BRANCH   7   9
ATOM      9  C   UNL     1      49.205   6.316  20.653  0.00  0.00    +0.000 C 
BRANCH   9  13
ATOM     10  C   UNL     1      49.783   3.117  17.799  0.00  0.00    +0.000 A 
ATOM     11  C   UNL     1      48.488   3.497  18.176  0.00  0.00    +0.000 A 
ATOM     12  C   UNL     1      48.301   4.507  19.124  0.00  0.00    +0.000 A 
ATOM     13  C   UNL     1      49.402   5.149  19.711  0.00  0.00    +0.000 A 
ATOM     14  C   UNL     1      50.695   4.746  19.344  0.00  0.00    +0.000 A 
ATOM     15  C   UNL     1      50.885   3.735  18.399  0.00  0.00    +0.000 A 
BRANCH  10  17
ATOM     16  N   UNL     1      51.117   1.257  16.965  0.00  0.00    +0.000 N 
ATOM     17  C   UNL     1      50.027   2.062  16.783  0.00  0.00    +0.000 C 
ATOM     18  O   UNL     1      49.266   1.885  15.840  0.00  0.00    +0.000 OA
ATOM     19  H   UNL     1      51.205   0.474  16.329  0.00  0.00    +0.000 HD
ATOM     20  H   UNL     1      51.607   1.201  17.847  0.00  0.00    +0.000 HD
ENDBRANCH  10  17
ENDBRANCH   9  13
ENDBRANCH   7   9
ENDBRANCH   1   7
BRANCH   4  21
ATOM     21  C   UNL     1      48.289   9.841  15.225  0.00  0.00    +0.000 C 
BRANCH  21  22
ATOM     22  N   UNL     1      47.329   8.999  14.561  0.00  0.00    +0.000 N 
ATOM     23  C   UNL     1      47.714   8.149  13.557  0.00  0.00    +0.000 C 
ATOM     24  O   UNL     1      48.889   8.033  13.217  0.00  0.00    +0.000 OA
ATOM     25  H   UNL     1      46.348   9.250  14.656  0.00  0.00    +0.000 HD
BRANCH  23  26
ATOM     26  C   UNL     1      46.659   7.331  12.948  0.00  0.00    +0.000 A 
ATOM     27  C   UNL     1      45.709   7.932  12.133  0.00  0.00    +0.000 A 
ATOM     28  S   UNL     1      44.594   6.832  11.458  0.00  0.00    +0.000 S 
ATOM     29  C   UNL     1      45.307   5.523  12.278  0.00  0.00    +0.000 A 
ATOM     30  N   UNL     1      44.804   4.265  12.155  0.00  0.00    +0.000 NA
ATOM     31  C   UNL     1      45.422   3.374  12.857  0.00  0.00    +0.000 A 
ATOM     32  N   UNL     1      46.498   3.626  13.668  0.00  0.00    +0.000 N 
ATOM     33  C   UNL     1      47.055   4.875  13.804  0.00  0.00    +0.000 A 
ATOM     34  O   UNL     1      48.040   5.061  14.511  0.00  0.00    +0.000 OA
ATOM     35  C   UNL     1      46.393   5.916  13.040  0.00  0.00    +0.000 A 
ATOM     36  H   UNL     1      46.939   2.882  14.189  0.00  0.00    +0.000 HD
ENDBRANCH  23  26
ENDBRANCH  21  22
ENDBRANCH   4  21
TORSDOF 7
ENDMDL
MODEL 9
REMARK VINA RESULT:    -7.112      3.829      7.885
REMARK INTER + INTRA:         -10.927
REMARK INTER:                  -8.453
REMARK INTRA:                  -2.474
REMARK UNBOUND:                -0.905
REMARK  Name = 
REMARK  7 active torsions:
REMARK  status: ('A' for Active; 'I' for Inactive)
REMARK    1  A    between atoms: C_2  and  C_4
REMARK    2  A    between atoms: C_7  and  C_8
REMARK    3  A    between atoms: C_8  and  N_9
REMARK    4  A    between atoms: N_9  and  C_10
REMARK    5  A    between atoms: C_13  and  C_14
REMARK    6  A    between atoms: C_14  and  N_15
REMARK    7  A    between atoms: C_16  and  C_18
REMARK                            x       y       z     vdW  Elec       q    Type
REMARK                         _______ _______ _______ _____ _____    ______ ____
ROOT
ATOM      1  C   UNL     1      50.813   8.705  16.069  0.00  0.00    +0.000 A 
ATOM      2  C   UNL     1      49.883   9.753  16.042  0.00  0.00    +0.000 A 
ATOM      3  C   UNL     1      49.091   9.998  14.908  0.00  0.00    +0.000 A 
ATOM      4  C   UNL     1      49.230   9.208  13.760  0.00  0.00    +0.000 A 
ATOM      5  C   UNL     1      50.224   8.228  13.748  0.00  0.00    +0.000 A 
ATOM      6  C   UNL     1      51.007   7.990  14.881  0.00  0.00    +0.000 A 
ENDROOT
BRANCH   1   7
ATOM      7  N   UNL     1      51.600   8.497  17.217  0.00  0.00    +0.000 N 
ATOM      8  H   UNL     1      52.151   9.321  17.445  0.00  0.00    +0.000 HD
BRANCH   7   9
ATOM      9  C   UNL     1      50.906   7.983  18.396  0.00  0.00    +0.000 C 
BRANCH   9  13
ATOM     10  C   UNL     1      48.796   4.374  17.289  0.00  0.00    +0.000 A 
ATOM     11  C   UNL     1      48.080   5.527  17.634  0.00  0.00    +0.000 A 
ATOM     12  C   UNL     1      48.761   6.684  18.026  0.00  0.00    +0.000 A 
ATOM     13  C   UNL     1      50.163   6.704  18.081  0.00  0.00    +0.000 A 
ATOM     14  C   UNL     1      50.870   5.536  17.755  0.00  0.00    +0.000 A 
ATOM     15  C   UNL     1      50.192   4.378  17.367  0.00  0.00    +0.000 A 
BRANCH  10  17
ATOM     16  N   UNL     1      47.001   2.745  17.547  0.00  0.00    +0.000 N 
ATOM     17  C   UNL     1      48.113   3.129  16.850  0.00  0.00    +0.000 C 
ATOM     18  O   UNL     1      48.499   2.488  15.881  0.00  0.00    +0.000 OA
ATOM     19  H   UNL     1      46.484   1.962  17.167  0.00  0.00    +0.000 HD
ATOM     20  H   UNL     1      46.510   3.372  18.169  0.00  0.00    +0.000 HD
ENDBRANCH  10  17
ENDBRANCH   9  13
ENDBRANCH   7   9
ENDBRANCH   1   7
BRANCH   4  21
ATOM     21  C   UNL     1      48.371   9.419  12.543  0.00  0.00    +0.000 C 
BRANCH  21  22
ATOM     22  N   UNL     1      47.580   8.255  12.244  0.00  0.00    +0.000 N 
ATOM     23  C   UNL     1      46.268   8.176  12.636  0.00  0.00    +0.000 C 
ATOM     24  O   UNL     1      45.704   9.103  13.209  0.00  0.00    +0.000 OA
ATOM     25  H   UNL     1      48.081   7.406  11.996  0.00  0.00    +0.000 HD
BRANCH  23  26
ATOM     26  C   UNL     1      45.550   6.948  12.278  0.00  0.00    +0.000 A 
ATOM     27  C   UNL     1      44.409   7.024  11.490  0.00  0.00    +0.000 A 
ATOM     28  S   UNL     1      43.732   5.504  11.119  0.00  0.00    +0.000 S 
ATOM     29  C   UNL     1      44.907   4.694  12.045  0.00  0.00    +0.000 A 
ATOM     30  N   UNL     1      44.886   3.339  12.171  0.00  0.00    +0.000 NA
ATOM     31  C   UNL     1      45.816   2.860  12.928  0.00  0.00    +0.000 A 
ATOM     32  N   UNL     1      46.768   3.612  13.568  0.00  0.00    +0.000 N 
ATOM     33  C   UNL     1      46.843   4.979  13.449  0.00  0.00    +0.000 A 
ATOM     34  O   UNL     1      47.729   5.620  14.007  0.00  0.00    +0.000 OA
ATOM     35  C   UNL     1      45.815   5.569  12.613  0.00  0.00    +0.000 A 
ATOM     36  H   UNL     1      47.471   3.174  14.144  0.00  0.00    +0.000 HD
ENDBRANCH  23  26
ENDBRANCH  21  22
ENDBRANCH   4  21
TORSDOF 7
ENDMDL
