MODEL 1
REMARK VINA RESULT:    -8.538      0.000      0.000
REMARK INTER + INTRA:         -11.812
REMARK INTER:                 -11.532
REMARK INTRA:                  -0.280
REMARK UNBOUND:                -0.280
REMARK  Name = 
REMARK  7 active torsions:
REMARK  status: ('A' for Active; 'I' for Inactive)
REMARK    1  A    between atoms: C_1  and  C_2
REMARK    2  A    between atoms: C_2  and  N_3
REMARK    3  A    between atoms: C_2  and  C_16
REMARK    4  A    between atoms: C_4  and  C_6
REMARK    5  A    between atoms: C_19  and  C_20
REMARK    6  A    between atoms: C_20  and  N_21
REMARK    7  A    between atoms: C_22  and  C_24
REMARK                            x       y       z     vdW  Elec       q    Type
REMARK                         _______ _______ _______ _____ _____    ______ ____
ROOT
ATOM      1  C   UNL     1      46.082   7.166  12.346  0.00  0.00    +0.000 A 
ATOM      2  C   UNL     1      46.475   6.894  11.026  0.00  0.00    +0.000 A 
ATOM      3  C   UNL     1      45.842   5.900  10.272  0.00  0.00    +0.000 A 
ATOM      4  C   UNL     1      44.779   5.167  10.811  0.00  0.00    +0.000 A 
ATOM      5  C   UNL     1      44.359   5.458  12.115  0.00  0.00    +0.000 A 
ATOM      6  C   UNL     1      44.992   6.455  12.869  0.00  0.00    +0.000 A 
ENDROOT
BRANCH   1   8
ATOM      7  C   UNL     1      48.000   8.862  12.366  0.00  0.00    +0.000 C 
ATOM      8  C   UNL     1      46.863   8.196  13.148  0.00  0.00    +0.000 C 
BRANCH   8   9
ATOM      9  N   UNL     1      47.346   7.631  14.395  0.00  0.00    +0.000 N 
ATOM     10  C   UNL     1      48.338   6.679  14.407  0.00  0.00    +0.000 C 
ATOM     11  O   UNL     1      48.870   6.283  13.372  0.00  0.00    +0.000 OA
ATOM     12  H   UNL     1      46.801   7.801  15.235  0.00  0.00    +0.000 HD
BRANCH  10  13
ATOM     13  C   UNL     1      48.795   6.196  15.716  0.00  0.00    +0.000 A 
ATOM     14  C   UNL     1      49.809   6.880  16.374  0.00  0.00    +0.000 A 
ATOM     15  S   UNL     1      50.220   6.211  17.887  0.00  0.00    +0.000 S 
ATOM     16  C   UNL     1      49.095   4.950  17.693  0.00  0.00    +0.000 A 
ATOM     17  N   UNL     1      48.970   3.977  18.636  0.00  0.00    +0.000 NA
ATOM     18  C   UNL     1      48.111   3.060  18.342  0.00  0.00    +0.000 A 
ATOM     19  N   UNL     1      47.356   3.034  17.195  0.00  0.00    +0.000 N 
ATOM     20  C   UNL     1      47.414   4.022  16.239  0.00  0.00    +0.000 A 
ATOM     21  O   UNL     1      46.670   4.012  15.261  0.00  0.00    +0.000 OA
ATOM     22  C   UNL     1      48.392   5.057  16.504  0.00  0.00    +0.000 A 
ATOM     23  H   UNL     1      46.689   2.294  17.037  0.00  0.00    +0.000 HD
ENDBRANCH  10  13
ENDBRANCH   8   9
ENDBRANCH   1   8
BRANCH   4  24
ATOM     24  C   UNL     1      44.126   4.068  10.013  0.00  0.00    +0.000 C 
BRANCH  24  25
ATOM     25  N   UNL     1      44.847   3.796   8.788  0.00  0.00    +0.000 N 
ATOM     26  C   UNL     1      45.465   2.573   8.603  0.00  0.00    +0.000 C 
ATOM     27  O   UNL     1      45.445   1.695   9.458  0.00  0.00    +0.000 OA
ATOM     28  H   UNL     1      44.733   4.436   8.013  0.00  0.00    +0.000 HD
BRANCH  26  29
ATOM     29  C   UNL     1      46.210   2.389   7.325  0.00  0.00    +0.000 A 
ATOM     30  C   UNL     1      46.389   3.503   6.482  0.00  0.00    +0.000 A 
ATOM     31  C   UNL     1      47.154   3.403   5.317  0.00  0.00    +0.000 A 
ATOM     32  C   UNL     1      47.763   2.197   4.985  0.00  0.00    +0.000 A 
ATOM     33  C   UNL     1      47.592   1.084   5.809  0.00  0.00    +0.000 A 
ATOM     34  C   UNL     1      46.814   1.171   6.974  0.00  0.00    +0.000 A 
ATOM     35 CL   UNL     1      46.617  -0.290   7.876  0.00  0.00    +0.000 Cl
ENDBRANCH  26  29
ENDBRANCH  24  25
ENDBRANCH   4  24
TORSDOF 6
ENDMDL
MODEL 2
REMARK VINA RESULT:    -7.858      1.990      2.529
REMARK INTER + INTRA:         -10.895
REMARK INTER:                  -9.745
REMARK INTRA:                  -1.150
REMARK UNBOUND:                -0.280
REMARK  Name = 
REMARK  7 active torsions:
REMARK  status: ('A' for Active; 'I' for Inactive)
REMARK    1  A    between atoms: C_1  and  C_2
REMARK    2  A    between atoms: C_2  and  N_3
REMARK    3  A    between atoms: C_2  and  C_16
REMARK    4  A    between atoms: C_4  and  C_6
REMARK    5  A    between atoms: C_19  and  C_20
REMARK    6  A    between atoms: C_20  and  N_21
REMARK    7  A    between atoms: C_22  and  C_24
REMARK                            x       y       z     vdW  Elec       q    Type
REMARK                         _______ _______ _______ _____ _____    ______ ____
ROOT
ATOM      1  C   UNL     1      47.850   8.480  13.503  0.00  0.00    +0.000 A 
ATOM      2  C   UNL     1      48.228   7.394  12.695  0.00  0.00    +0.000 A 
ATOM      3  C   UNL     1      47.314   6.783  11.830  0.00  0.00    +0.000 A 
ATOM      4  C   UNL     1      46.002   7.258  11.729  0.00  0.00    +0.000 A 
ATOM      5  C   UNL     1      45.629   8.363  12.505  0.00  0.00    +0.000 A 
ATOM      6  C   UNL     1      46.545   8.976  13.370  0.00  0.00    +0.000 A 
ENDROOT
BRANCH   1   8
ATOM      7  C   UNL     1      50.209   9.409  13.859  0.00  0.00    +0.000 C 
ATOM      8  C   UNL     1      48.859   9.049  14.489  0.00  0.00    +0.000 C 
BRANCH   8   9
ATOM      9  N   UNL     1      49.031   8.165  15.629  0.00  0.00    +0.000 N 
ATOM     10  C   UNL     1      48.464   8.459  16.847  0.00  0.00    +0.000 C 
ATOM     11  O   UNL     1      47.777   9.464  17.017  0.00  0.00    +0.000 OA
ATOM     12  H   UNL     1      49.738   7.440  15.563  0.00  0.00    +0.000 HD
BRANCH  10  13
ATOM     13  C   UNL     1      48.652   7.488  17.931  0.00  0.00    +0.000 A 
ATOM     14  C   UNL     1      48.929   7.948  19.212  0.00  0.00    +0.000 A 
ATOM     15  S   UNL     1      49.105   6.704  20.365  0.00  0.00    +0.000 S 
ATOM     16  C   UNL     1      48.870   5.504  19.183  0.00  0.00    +0.000 A 
ATOM     17  N   UNL     1      48.942   4.184  19.507  0.00  0.00    +0.000 NA
ATOM     18  C   UNL     1      48.787   3.384  18.508  0.00  0.00    +0.000 A 
ATOM     19  N   UNL     1      48.554   3.782  17.215  0.00  0.00    +0.000 N 
ATOM     20  C   UNL     1      48.425   5.103  16.850  0.00  0.00    +0.000 A 
ATOM     21  O   UNL     1      48.139   5.426  15.700  0.00  0.00    +0.000 OA
ATOM     22  C   UNL     1      48.628   6.046  17.931  0.00  0.00    +0.000 A 
ATOM     23  H   UNL     1      48.425   3.100  16.483  0.00  0.00    +0.000 HD
ENDBRANCH  10  13
ENDBRANCH   8   9
ENDBRANCH   1   8
BRANCH   4  24
ATOM     24  C   UNL     1      45.008   6.572  10.828  0.00  0.00    +0.000 C 
BRANCH  24  25
ATOM     25  N   UNL     1      45.638   5.557  10.011  0.00  0.00    +0.000 N 
ATOM     26  C   UNL     1      44.863   4.644   9.319  0.00  0.00    +0.000 C 
ATOM     27  O   UNL     1      43.639   4.647   9.380  0.00  0.00    +0.000 OA
ATOM     28  H   UNL     1      46.626   5.644   9.817  0.00  0.00    +0.000 HD
BRANCH  26  29
ATOM     29  C   UNL     1      45.595   3.615   8.526  0.00  0.00    +0.000 A 
ATOM     30  C   UNL     1      46.557   4.041   7.591  0.00  0.00    +0.000 A 
ATOM     31  C   UNL     1      47.331   3.115   6.888  0.00  0.00    +0.000 A 
ATOM     32  C   UNL     1      47.167   1.753   7.119  0.00  0.00    +0.000 A 
ATOM     33  C   UNL     1      46.215   1.315   8.040  0.00  0.00    +0.000 A 
ATOM     34  C   UNL     1      45.424   2.238   8.741  0.00  0.00    +0.000 A 
ATOM     35 CL   UNL     1      44.231   1.576   9.803  0.00  0.00    +0.000 Cl
ENDBRANCH  26  29
ENDBRANCH  24  25
ENDBRANCH   4  24
TORSDOF 6
ENDMDL
MODEL 3
REMARK VINA RESULT:    -7.784      1.899      2.159
REMARK INTER + INTRA:         -10.794
REMARK INTER:                 -10.394
REMARK INTRA:                  -0.400
REMARK UNBOUND:                -0.280
REMARK  Name = 
REMARK  7 active torsions:
REMARK  status: ('A' for Active; 'I' for Inactive)
REMARK    1  A    between atoms: C_1  and  C_2
REMARK    2  A    between atoms: C_2  and  N_3
REMARK    3  A    between atoms: C_2  and  C_16
REMARK    4  A    between atoms: C_4  and  C_6
REMARK    5  A    between atoms: C_19  and  C_20
REMARK    6  A    between atoms: C_20  and  N_21
REMARK    7  A    between atoms: C_22  and  C_24
REMARK                            x       y       z     vdW  Elec       q    Type
REMARK                         _______ _______ _______ _____ _____    ______ ____
ROOT
ATOM      1  C   UNL     1      47.016   6.416  13.130  0.00  0.00    +0.000 A 
ATOM      2  C   UNL     1      46.748   6.886  11.834  0.00  0.00    +0.000 A 
ATOM      3  C   UNL     1      45.950   6.154  10.949  0.00  0.00    +0.000 A 
ATOM      4  C   UNL     1      45.376   4.941  11.346  0.00  0.00    +0.000 A 
ATOM      5  C   UNL     1      45.610   4.484  12.649  0.00  0.00    +0.000 A 
ATOM      6  C   UNL     1      46.408   5.219  13.536  0.00  0.00    +0.000 A 
ENDROOT
BRANCH   1   8
ATOM      7  C   UNL     1      49.161   7.806  13.275  0.00  0.00    +0.000 C 
ATOM      8  C   UNL     1      47.962   7.210  14.019  0.00  0.00    +0.000 C 
BRANCH   8   9
ATOM      9  N   UNL     1      48.392   6.421  15.160  0.00  0.00    +0.000 N 
ATOM     10  C   UNL     1      48.844   7.024  16.310  0.00  0.00    +0.000 C 
ATOM     11  O   UNL     1      48.884   8.246  16.430  0.00  0.00    +0.000 OA
ATOM     12  H   UNL     1      48.542   5.427  15.019  0.00  0.00    +0.000 HD
BRANCH  10  13
ATOM     13  C   UNL     1      49.216   6.149  17.430  0.00  0.00    +0.000 A 
ATOM     14  C   UNL     1      50.197   5.185  17.239  0.00  0.00    +0.000 A 
ATOM     15  S   UNL     1      50.530   4.260  18.631  0.00  0.00    +0.000 S 
ATOM     16  C   UNL     1      49.337   5.078  19.524  0.00  0.00    +0.000 A 
ATOM     17  N   UNL     1      49.071   4.732  20.814  0.00  0.00    +0.000 NA
ATOM     18  C   UNL     1      48.114   5.404  21.357  0.00  0.00    +0.000 A 
ATOM     19  N   UNL     1      47.405   6.400  20.734  0.00  0.00    +0.000 N 
ATOM     20  C   UNL     1      47.671   6.816  19.449  0.00  0.00    +0.000 A 
ATOM     21  O   UNL     1      47.071   7.762  18.944  0.00  0.00    +0.000 OA
ATOM     22  C   UNL     1      48.714   6.066  18.779  0.00  0.00    +0.000 A 
ATOM     23  H   UNL     1      46.679   6.898  21.225  0.00  0.00    +0.000 HD
ENDBRANCH  10  13
ENDBRANCH   8   9
ENDBRANCH   1   8
BRANCH   4  24
ATOM     24  C   UNL     1      44.551   4.134  10.377  0.00  0.00    +0.000 C 
BRANCH  24  25
ATOM     25  N   UNL     1      45.264   3.887   9.143  0.00  0.00    +0.000 N 
ATOM     26  C   UNL     1      45.380   2.599   8.653  0.00  0.00    +0.000 C 
ATOM     27  O   UNL     1      44.908   1.632   9.239  0.00  0.00    +0.000 OA
ATOM     28  H   UNL     1      45.511   4.680   8.565  0.00  0.00    +0.000 HD
BRANCH  26  29
ATOM     29  C   UNL     1      46.157   2.433   7.391  0.00  0.00    +0.000 A 
ATOM     30  C   UNL     1      46.329   3.551   6.553  0.00  0.00    +0.000 A 
ATOM     31  C   UNL     1      47.122   3.470   5.405  0.00  0.00    +0.000 A 
ATOM     32  C   UNL     1      47.764   2.277   5.086  0.00  0.00    +0.000 A 
ATOM     33  C   UNL     1      47.600   1.160   5.905  0.00  0.00    +0.000 A 
ATOM     34  C   UNL     1      46.794   1.229   7.052  0.00  0.00    +0.000 A 
ATOM     35 CL   UNL     1      46.609  -0.238   7.950  0.00  0.00    +0.000 Cl
ENDBRANCH  26  29
ENDBRANCH  24  25
ENDBRANCH   4  24
TORSDOF 6
ENDMDL
MODEL 4
REMARK VINA RESULT:    -7.685      2.737      3.777
REMARK INTER + INTRA:         -10.661
REMARK INTER:                  -9.446
REMARK INTRA:                  -1.215
REMARK UNBOUND:                -0.280
REMARK  Name = 
REMARK  7 active torsions:
REMARK  status: ('A' for Active; 'I' for Inactive)
REMARK    1  A    between atoms: C_1  and  C_2
REMARK    2  A    between atoms: C_2  and  N_3
REMARK    3  A    between atoms: C_2  and  C_16
REMARK    4  A    between atoms: C_4  and  C_6
REMARK    5  A    between atoms: C_19  and  C_20
REMARK    6  A    between atoms: C_20  and  N_21
REMARK    7  A    between atoms: C_22  and  C_24
REMARK                            x       y       z     vdW  Elec       q    Type
REMARK                         _______ _______ _______ _____ _____    ______ ____
ROOT
ATOM      1  C   UNL     1      48.774   7.800  14.660  0.00  0.00    +0.000 A 
ATOM      2  C   UNL     1      47.781   8.779  14.487  0.00  0.00    +0.000 A 
ATOM      3  C   UNL     1      46.685   8.557  13.646  0.00  0.00    +0.000 A 
ATOM      4  C   UNL     1      46.539   7.339  12.974  0.00  0.00    +0.000 A 
ATOM      5  C   UNL     1      47.507   6.346  13.170  0.00  0.00    +0.000 A 
ATOM      6  C   UNL     1      48.603   6.567  14.014  0.00  0.00    +0.000 A 
ENDROOT
BRANCH   1   8
ATOM      7  C   UNL     1      50.940   9.147  14.882  0.00  0.00    +0.000 C 
ATOM      8  C   UNL     1      49.988   8.128  15.516  0.00  0.00    +0.000 C 
BRANCH   8   9
ATOM      9  N   UNL     1      50.695   6.920  15.904  0.00  0.00    +0.000 N 
ATOM     10  C   UNL     1      51.155   6.749  17.189  0.00  0.00    +0.000 C 
ATOM     11  O   UNL     1      50.973   7.593  18.062  0.00  0.00    +0.000 OA
ATOM     12  H   UNL     1      51.017   6.302  15.166  0.00  0.00    +0.000 HD
BRANCH  10  13
ATOM     13  C   UNL     1      51.819   5.477  17.504  0.00  0.00    +0.000 A 
ATOM     14  C   UNL     1      53.153   5.488  17.891  0.00  0.00    +0.000 A 
ATOM     15  S   UNL     1      53.779   3.941  18.239  0.00  0.00    +0.000 S 
ATOM     16  C   UNL     1      52.306   3.196  17.831  0.00  0.00    +0.000 A 
ATOM     17  N   UNL     1      52.176   1.842  17.870  0.00  0.00    +0.000 NA
ATOM     18  C   UNL     1      51.021   1.409  17.496  0.00  0.00    +0.000 A 
ATOM     19  N   UNL     1      49.977   2.207  17.098  0.00  0.00    +0.000 N 
ATOM     20  C   UNL     1      50.047   3.581  17.090  0.00  0.00    +0.000 A 
ATOM     21  O   UNL     1      49.072   4.272  16.803  0.00  0.00    +0.000 OA
ATOM     22  C   UNL     1      51.339   4.119  17.466  0.00  0.00    +0.000 A 
ATOM     23  H   UNL     1      49.092   1.801  16.834  0.00  0.00    +0.000 HD
ENDBRANCH  10  13
ENDBRANCH   8   9
ENDBRANCH   1   8
BRANCH   4  24
ATOM     24  C   UNL     1      45.380   7.119  12.036  0.00  0.00    +0.000 C 
BRANCH  24  25
ATOM     25  N   UNL     1      45.624   6.015  11.133  0.00  0.00    +0.000 N 
ATOM     26  C   UNL     1      44.564   5.368  10.525  0.00  0.00    +0.000 C 
ATOM     27  O   UNL     1      43.399   5.685  10.733  0.00  0.00    +0.000 OA
ATOM     28  H   UNL     1      46.572   5.851  10.822  0.00  0.00    +0.000 HD
BRANCH  26  29
ATOM     29  C   UNL     1      44.905   4.222   9.633  0.00  0.00    +0.000 A 
ATOM     30  C   UNL     1      45.673   4.471   8.480  0.00  0.00    +0.000 A 
ATOM     31  C   UNL     1      46.093   3.420   7.660  0.00  0.00    +0.000 A 
ATOM     32  C   UNL     1      45.766   2.108   7.988  0.00  0.00    +0.000 A 
ATOM     33  C   UNL     1      45.004   1.847   9.127  0.00  0.00    +0.000 A 
ATOM     34  C   UNL     1      44.566   2.897   9.948  0.00  0.00    +0.000 A 
ATOM     35 CL   UNL     1      43.569   2.457  11.291  0.00  0.00    +0.000 Cl
ENDBRANCH  26  29
ENDBRANCH  24  25
ENDBRANCH   4  24
TORSDOF 6
ENDMDL
MODEL 5
REMARK VINA RESULT:    -7.683      5.054      7.282
REMARK INTER + INTRA:         -10.659
REMARK INTER:                  -9.639
REMARK INTRA:                  -1.019
REMARK UNBOUND:                -0.280
REMARK  Name = 
REMARK  7 active torsions:
REMARK  status: ('A' for Active; 'I' for Inactive)
REMARK    1  A    between atoms: C_1  and  C_2
REMARK    2  A    between atoms: C_2  and  N_3
REMARK    3  A    between atoms: C_2  and  C_16
REMARK    4  A    between atoms: C_4  and  C_6
REMARK    5  A    between atoms: C_19  and  C_20
REMARK    6  A    between atoms: C_20  and  N_21
REMARK    7  A    between atoms: C_22  and  C_24
REMARK                            x       y       z     vdW  Elec       q    Type
REMARK                         _______ _______ _______ _____ _____    ______ ____
ROOT
ATOM      1  C   UNL     1      45.287   6.468  12.433  0.00  0.00    +0.000 A 
ATOM      2  C   UNL     1      45.934   7.626  12.894  0.00  0.00    +0.000 A 
ATOM      3  C   UNL     1      45.587   8.891  12.406  0.00  0.00    +0.000 A 
ATOM      4  C   UNL     1      44.565   9.034  11.461  0.00  0.00    +0.000 A 
ATOM      5  C   UNL     1      43.892   7.886  11.025  0.00  0.00    +0.000 A 
ATOM      6  C   UNL     1      44.238   6.620  11.515  0.00  0.00    +0.000 A 
ENDROOT
BRANCH   1   8
ATOM      7  C   UNL     1      44.688   4.022  12.894  0.00  0.00    +0.000 C 
ATOM      8  C   UNL     1      45.764   5.112  12.933  0.00  0.00    +0.000 C 
BRANCH   8   9
ATOM      9  N   UNL     1      46.354   5.221  14.255  0.00  0.00    +0.000 N 
ATOM     10  C   UNL     1      47.119   4.205  14.777  0.00  0.00    +0.000 C 
ATOM     11  O   UNL     1      47.353   3.178  14.144  0.00  0.00    +0.000 OA
ATOM     12  H   UNL     1      46.024   5.966  14.861  0.00  0.00    +0.000 HD
BRANCH  10  13
ATOM     13  C   UNL     1      47.713   4.419  16.103  0.00  0.00    +0.000 A 
ATOM     14  C   UNL     1      47.365   3.570  17.145  0.00  0.00    +0.000 A 
ATOM     15  S   UNL     1      48.147   3.933  18.616  0.00  0.00    +0.000 S 
ATOM     16  C   UNL     1      48.937   5.272  17.926  0.00  0.00    +0.000 A 
ATOM     17  N   UNL     1      49.746   6.067  18.678  0.00  0.00    +0.000 NA
ATOM     18  C   UNL     1      50.247   7.069  18.039  0.00  0.00    +0.000 A 
ATOM     19  N   UNL     1      50.022   7.344  16.713  0.00  0.00    +0.000 N 
ATOM     20  C   UNL     1      49.251   6.541  15.903  0.00  0.00    +0.000 A 
ATOM     21  O   UNL     1      49.130   6.769  14.702  0.00  0.00    +0.000 OA
ATOM     22  C   UNL     1      48.634   5.420  16.582  0.00  0.00    +0.000 A 
ATOM     23  H   UNL     1      50.460   8.137  16.271  0.00  0.00    +0.000 HD
ENDBRANCH  10  13
ENDBRANCH   8   9
ENDBRANCH   1   8
BRANCH   4  24
ATOM     24  C   UNL     1      44.223  10.392  10.906  0.00  0.00    +0.000 C 
BRANCH  24  25
ATOM     25  N   UNL     1      42.850  10.456  10.455  0.00  0.00    +0.000 N 
ATOM     26  C   UNL     1      41.876  11.006  11.270  0.00  0.00    +0.000 C 
ATOM     27  O   UNL     1      42.128  11.437  12.389  0.00  0.00    +0.000 OA
ATOM     28  H   UNL     1      42.655  10.262   9.482  0.00  0.00    +0.000 HD
BRANCH  26  29
ATOM     29  C   UNL     1      40.483  11.003  10.739  0.00  0.00    +0.000 A 
ATOM     30  C   UNL     1      39.531  10.162  11.345  0.00  0.00    +0.000 A 
ATOM     31  C   UNL     1      38.194  10.187  10.942  0.00  0.00    +0.000 A 
ATOM     32  C   UNL     1      37.785  11.062   9.941  0.00  0.00    +0.000 A 
ATOM     33  C   UNL     1      38.718  11.899   9.328  0.00  0.00    +0.000 A 
ATOM     34  C   UNL     1      40.066  11.871   9.717  0.00  0.00    +0.000 A 
ATOM     35 CL   UNL     1      41.140  12.902   8.838  0.00  0.00    +0.000 Cl
ENDBRANCH  26  29
ENDBRANCH  24  25
ENDBRANCH   4  24
TORSDOF 6
ENDMDL
MODEL 6
REMARK VINA RESULT:    -7.618      3.385      4.312
REMARK INTER + INTRA:         -10.571
REMARK INTER:                  -9.180
REMARK INTRA:                  -1.391
REMARK UNBOUND:                -0.280
REMARK  Name = 
REMARK  7 active torsions:
REMARK  status: ('A' for Active; 'I' for Inactive)
REMARK    1  A    between atoms: C_1  and  C_2
REMARK    2  A    between atoms: C_2  and  N_3
REMARK    3  A    between atoms: C_2  and  C_16
REMARK    4  A    between atoms: C_4  and  C_6
REMARK    5  A    between atoms: C_19  and  C_20
REMARK    6  A    between atoms: C_20  and  N_21
REMARK    7  A    between atoms: C_22  and  C_24
REMARK                            x       y       z     vdW  Elec       q    Type
REMARK                         _______ _______ _______ _____ _____    ______ ____
ROOT
ATOM      1  C   UNL     1      45.674   7.414  12.699  0.00  0.00    +0.000 A 
ATOM      2  C   UNL     1      44.585   7.162  11.850  0.00  0.00    +0.000 A 
ATOM      3  C   UNL     1      44.199   5.854  11.536  0.00  0.00    +0.000 A 
ATOM      4  C   UNL     1      44.878   4.761  12.083  0.00  0.00    +0.000 A 
ATOM      5  C   UNL     1      45.944   5.006  12.959  0.00  0.00    +0.000 A 
ATOM      6  C   UNL     1      46.328   6.315  13.276  0.00  0.00    +0.000 A 
ENDROOT
BRANCH   1   8
ATOM      7  C   UNL     1      45.356   9.876  12.075  0.00  0.00    +0.000 C 
ATOM      8  C   UNL     1      46.104   8.854  12.937  0.00  0.00    +0.000 C 
BRANCH   8   9
ATOM      9  N   UNL     1      47.542   9.000  12.796  0.00  0.00    +0.000 N 
ATOM     10  C   UNL     1      48.357   9.102  13.899  0.00  0.00    +0.000 C 
ATOM     11  O   UNL     1      47.910   9.053  15.042  0.00  0.00    +0.000 OA
ATOM     12  H   UNL     1      47.907   9.229  11.876  0.00  0.00    +0.000 HD
BRANCH  10  13
ATOM     13  C   UNL     1      49.803   9.202  13.663  0.00  0.00    +0.000 A 
ATOM     14  C   UNL     1      50.565  10.032  14.474  0.00  0.00    +0.000 A 
ATOM     15  S   UNL     1      52.226  10.031  14.090  0.00  0.00    +0.000 S 
ATOM     16  C   UNL     1      51.978   8.962  12.791  0.00  0.00    +0.000 A 
ATOM     17  N   UNL     1      53.014   8.579  11.996  0.00  0.00    +0.000 NA
ATOM     18  C   UNL     1      52.678   7.801  11.024  0.00  0.00    +0.000 A 
ATOM     19  N   UNL     1      51.401   7.359  10.781  0.00  0.00    +0.000 N 
ATOM     20  C   UNL     1      50.332   7.681  11.586  0.00  0.00    +0.000 A 
ATOM     21  O   UNL     1      49.215   7.208  11.388  0.00  0.00    +0.000 OA
ATOM     22  C   UNL     1      50.650   8.585  12.673  0.00  0.00    +0.000 A 
ATOM     23  H   UNL     1      51.212   6.736  10.011  0.00  0.00    +0.000 HD
ENDBRANCH  10  13
ENDBRANCH   8   9
ENDBRANCH   1   8
BRANCH   4  24
ATOM     24  C   UNL     1      44.489   3.355  11.710  0.00  0.00    +0.000 C 
BRANCH  24  25
ATOM     25  N   UNL     1      45.361   2.809  10.693  0.00  0.00    +0.000 N 
ATOM     26  C   UNL     1      45.017   2.907   9.357  0.00  0.00    +0.000 C 
ATOM     27  O   UNL     1      43.973   3.433   8.988  0.00  0.00    +0.000 OA
ATOM     28  H   UNL     1      46.294   2.526  10.963  0.00  0.00    +0.000 HD
BRANCH  26  29
ATOM     29  C   UNL     1      45.959   2.291   8.379  0.00  0.00    +0.000 A 
ATOM     30  C   UNL     1      45.998   0.888   8.272  0.00  0.00    +0.000 A 
ATOM     31  C   UNL     1      46.799   0.266   7.310  0.00  0.00    +0.000 A 
ATOM     32  C   UNL     1      47.559   1.035   6.434  0.00  0.00    +0.000 A 
ATOM     33  C   UNL     1      47.533   2.427   6.531  0.00  0.00    +0.000 A 
ATOM     34  C   UNL     1      46.742   3.060   7.502  0.00  0.00    +0.000 A 
ATOM     35 CL   UNL     1      46.845   4.784   7.572  0.00  0.00    +0.000 Cl
ENDBRANCH  26  29
ENDBRANCH  24  25
ENDBRANCH   4  24
TORSDOF 6
ENDMDL
MODEL 7
REMARK VINA RESULT:    -7.370      5.661      7.959
REMARK INTER + INTRA:         -10.236
REMARK INTER:                  -9.120
REMARK INTRA:                  -1.115
REMARK UNBOUND:                -0.280
REMARK  Name = 
REMARK  7 active torsions:
REMARK  status: ('A' for Active; 'I' for Inactive)
REMARK    1  A    between atoms: C_1  and  C_2
REMARK    2  A    between atoms: C_2  and  N_3
REMARK    3  A    between atoms: C_2  and  C_16
REMARK    4  A    between atoms: C_4  and  C_6
REMARK    5  A    between atoms: C_19  and  C_20
REMARK    6  A    between atoms: C_20  and  N_21
REMARK    7  A    between atoms: C_22  and  C_24
REMARK                            x       y       z     vdW  Elec       q    Type
REMARK                         _______ _______ _______ _____ _____    ______ ____
ROOT
ATOM      1  C   UNL     1      50.573   9.320  11.209  0.00  0.00    +0.000 A 
ATOM      2  C   UNL     1      50.591   7.966  11.581  0.00  0.00    +0.000 A 
ATOM      3  C   UNL     1      49.464   7.353  12.139  0.00  0.00    +0.000 A 
ATOM      4  C   UNL     1      48.278   8.073  12.317  0.00  0.00    +0.000 A 
ATOM      5  C   UNL     1      48.242   9.414  11.916  0.00  0.00    +0.000 A 
ATOM      6  C   UNL     1      49.370  10.027  11.354  0.00  0.00    +0.000 A 
ENDROOT
BRANCH   1   8
ATOM      7  C   UNL     1      51.800  11.486  10.613  0.00  0.00    +0.000 C 
ATOM      8  C   UNL     1      51.852   9.957  10.688  0.00  0.00    +0.000 C 
BRANCH   8   9
ATOM      9  N   UNL     1      52.241   9.381   9.413  0.00  0.00    +0.000 N 
ATOM     10  C   UNL     1      53.393   8.642   9.289  0.00  0.00    +0.000 C 
ATOM     11  O   UNL     1      54.128   8.420  10.248  0.00  0.00    +0.000 OA
ATOM     12  H   UNL     1      51.756   9.704   8.581  0.00  0.00    +0.000 HD
BRANCH  10  13
ATOM     13  C   UNL     1      53.685   8.061   7.972  0.00  0.00    +0.000 A 
ATOM     14  C   UNL     1      53.878   8.906   6.887  0.00  0.00    +0.000 A 
ATOM     15  S   UNL     1      54.223   8.087   5.432  0.00  0.00    +0.000 S 
ATOM     16  C   UNL     1      54.072   6.571   6.189  0.00  0.00    +0.000 A 
ATOM     17  N   UNL     1      54.208   5.420   5.476  0.00  0.00    +0.000 NA
ATOM     18  C   UNL     1      54.027   4.345   6.165  0.00  0.00    +0.000 A 
ATOM     19  N   UNL     1      53.735   4.314   7.506  0.00  0.00    +0.000 N 
ATOM     20  C   UNL     1      53.638   5.451   8.276  0.00  0.00    +0.000 A 
ATOM     21  O   UNL     1      53.452   5.389   9.489  0.00  0.00    +0.000 OA
ATOM     22  C   UNL     1      53.795   6.689   7.541  0.00  0.00    +0.000 A 
ATOM     23  H   UNL     1      53.624   3.435   7.986  0.00  0.00    +0.000 HD
ENDBRANCH  10  13
ENDBRANCH   8   9
ENDBRANCH   1   8
BRANCH   4  24
ATOM     24  C   UNL     1      47.079   7.423  12.958  0.00  0.00    +0.000 C 
BRANCH  24  25
ATOM     25  N   UNL     1      46.613   6.287  12.193  0.00  0.00    +0.000 N 
ATOM     26  C   UNL     1      45.466   6.389  11.427  0.00  0.00    +0.000 C 
ATOM     27  O   UNL     1      44.801   7.417  11.380  0.00  0.00    +0.000 OA
ATOM     28  H   UNL     1      47.232   5.494  12.087  0.00  0.00    +0.000 HD
BRANCH  26  29
ATOM     29  C   UNL     1      45.042   5.161  10.695  0.00  0.00    +0.000 A 
ATOM     30  C   UNL     1      45.487   4.976   9.372  0.00  0.00    +0.000 A 
ATOM     31  C   UNL     1      45.191   3.803   8.675  0.00  0.00    +0.000 A 
ATOM     32  C   UNL     1      44.460   2.792   9.291  0.00  0.00    +0.000 A 
ATOM     33  C   UNL     1      44.008   2.962  10.600  0.00  0.00    +0.000 A 
ATOM     34  C   UNL     1      44.290   4.143  11.304  0.00  0.00    +0.000 A 
ATOM     35 CL   UNL     1      43.619   4.269  12.893  0.00  0.00    +0.000 Cl
ENDBRANCH  26  29
ENDBRANCH  24  25
ENDBRANCH   4  24
TORSDOF 6
ENDMDL
MODEL 8
REMARK VINA RESULT:    -7.314      2.552      3.683
REMARK INTER + INTRA:         -10.160
REMARK INTER:                  -9.324
REMARK INTRA:                  -0.836
REMARK UNBOUND:                -0.280
REMARK  Name = 
REMARK  7 active torsions:
REMARK  status: ('A' for Active; 'I' for Inactive)
REMARK    1  A    between atoms: C_1  and  C_2
REMARK    2  A    between atoms: C_2  and  N_3
REMARK    3  A    between atoms: C_2  and  C_16
REMARK    4  A    between atoms: C_4  and  C_6
REMARK    5  A    between atoms: C_19  and  C_20
REMARK    6  A    between atoms: C_20  and  N_21
REMARK    7  A    between atoms: C_22  and  C_24
REMARK                            x       y       z     vdW  Elec       q    Type
REMARK                         _______ _______ _______ _____ _____    ______ ____
ROOT
ATOM      1  C   UNL     1      49.068   8.773  12.817  0.00  0.00    +0.000 A 
ATOM      2  C   UNL     1      48.782   7.561  12.167  0.00  0.00    +0.000 A 
ATOM      3  C   UNL     1      47.478   7.241  11.773  0.00  0.00    +0.000 A 
ATOM      4  C   UNL     1      46.427   8.136  11.996  0.00  0.00    +0.000 A 
ATOM      5  C   UNL     1      46.711   9.362  12.612  0.00  0.00    +0.000 A 
ATOM      6  C   UNL     1      48.018   9.683  13.004  0.00  0.00    +0.000 A 
ENDROOT
BRANCH   1   8
ATOM      7  C   UNL     1      51.477   9.359  12.181  0.00  0.00    +0.000 C 
ATOM      8  C   UNL     1      50.486   9.030  13.302  0.00  0.00    +0.000 C 
BRANCH   8   9
ATOM      9  N   UNL     1      50.966   7.931  14.121  0.00  0.00    +0.000 N 
ATOM     10  C   UNL     1      51.495   8.154  15.370  0.00  0.00    +0.000 C 
ATOM     11  O   UNL     1      51.565   9.281  15.854  0.00  0.00    +0.000 OA
ATOM     12  H   UNL     1      51.090   7.027  13.674  0.00  0.00    +0.000 HD
BRANCH  10  13
ATOM     13  C   UNL     1      51.914   6.979  16.146  0.00  0.00    +0.000 A 
ATOM     14  C   UNL     1      53.268   6.766  16.372  0.00  0.00    +0.000 A 
ATOM     15  S   UNL     1      53.597   5.374  17.300  0.00  0.00    +0.000 S 
ATOM     16  C   UNL     1      51.946   4.977  17.386  0.00  0.00    +0.000 A 
ATOM     17  N   UNL     1      51.533   3.845  18.018  0.00  0.00    +0.000 NA
ATOM     18  C   UNL     1      50.260   3.644  17.971  0.00  0.00    +0.000 A 
ATOM     19  N   UNL     1      49.358   4.479  17.359  0.00  0.00    +0.000 N 
ATOM     20  C   UNL     1      49.724   5.658  16.751  0.00  0.00    +0.000 A 
ATOM     21  O   UNL     1      48.887   6.423  16.279  0.00  0.00    +0.000 OA
ATOM     22  C   UNL     1      51.151   5.912  16.743  0.00  0.00    +0.000 A 
ATOM     23  H   UNL     1      48.372   4.269  17.375  0.00  0.00    +0.000 HD
ENDBRANCH  10  13
ENDBRANCH   8   9
ENDBRANCH   1   8
BRANCH   4  24
ATOM     24  C   UNL     1      45.018   7.771  11.609  0.00  0.00    +0.000 C 
BRANCH  24  25
ATOM     25  N   UNL     1      44.988   6.671  10.669  0.00  0.00    +0.000 N 
ATOM     26  C   UNL     1      44.830   5.374  11.123  0.00  0.00    +0.000 C 
ATOM     27  O   UNL     1      44.727   5.107  12.315  0.00  0.00    +0.000 OA
ATOM     28  H   UNL     1      44.903   6.884   9.684  0.00  0.00    +0.000 HD
BRANCH  26  29
ATOM     29  C   UNL     1      44.841   4.300  10.089  0.00  0.00    +0.000 A 
ATOM     30  C   UNL     1      45.567   4.514   8.902  0.00  0.00    +0.000 A 
ATOM     31  C   UNL     1      45.682   3.506   7.941  0.00  0.00    +0.000 A 
ATOM     32  C   UNL     1      45.087   2.267   8.158  0.00  0.00    +0.000 A 
ATOM     33  C   UNL     1      44.361   2.042   9.328  0.00  0.00    +0.000 A 
ATOM     34  C   UNL     1      44.229   3.053  10.292  0.00  0.00    +0.000 A 
ATOM     35 CL   UNL     1      43.249   2.680  11.667  0.00  0.00    +0.000 Cl
ENDBRANCH  26  29
ENDBRANCH  24  25
ENDBRANCH   4  24
TORSDOF 6
ENDMDL
MODEL 9
REMARK VINA RESULT:    -7.300      5.249      7.402
REMARK INTER + INTRA:         -10.141
REMARK INTER:                  -9.093
REMARK INTRA:                  -1.048
REMARK UNBOUND:                -0.280
REMARK  Name = 
REMARK  7 active torsions:
REMARK  status: ('A' for Active; 'I' for Inactive)
REMARK    1  A    between atoms: C_1  and  C_2
REMARK    2  A    between atoms: C_2  and  N_3
REMARK    3  A    between atoms: C_2  and  C_16
REMARK    4  A    between atoms: C_4  and  C_6
REMARK    5  A    between atoms: C_19  and  C_20
REMARK    6  A    between atoms: C_20  and  N_21
REMARK    7  A    between atoms: C_22  and  C_24
REMARK                            x       y       z     vdW  Elec       q    Type
REMARK                         _______ _______ _______ _____ _____    ______ ____
ROOT
ATOM      1  C   UNL     1      45.267   6.453  12.268  0.00  0.00    +0.000 A 
ATOM      2  C   UNL     1      45.792   7.741  12.466  0.00  0.00    +0.000 A 
ATOM      3  C   UNL     1      45.159   8.870  11.935  0.00  0.00    +0.000 A 
ATOM      4  C   UNL     1      43.968   8.744  11.212  0.00  0.00    +0.000 A 
ATOM      5  C   UNL     1      43.420   7.466  11.041  0.00  0.00    +0.000 A 
ATOM      6  C   UNL     1      44.053   6.336  11.575  0.00  0.00    +0.000 A 
ENDROOT
BRANCH   1   8
ATOM      7  C   UNL     1      45.237   3.952  12.812  0.00  0.00    +0.000 C 
ATOM      8  C   UNL     1      46.043   5.255  12.792  0.00  0.00    +0.000 C 
BRANCH   8   9
ATOM      9  N   UNL     1      46.620   5.535  14.095  0.00  0.00    +0.000 N 
ATOM     10  C   UNL     1      47.952   5.851  14.230  0.00  0.00    +0.000 C 
ATOM     11  O   UNL     1      48.701   5.929  13.259  0.00  0.00    +0.000 OA
ATOM     12  H   UNL     1      46.073   5.296  14.917  0.00  0.00    +0.000 HD
BRANCH  10  13
ATOM     13  C   UNL     1      48.439   6.163  15.579  0.00  0.00    +0.000 A 
ATOM     14  C   UNL     1      49.167   7.328  15.783  0.00  0.00    +0.000 A 
ATOM     15  S   UNL     1      49.649   7.562  17.401  0.00  0.00    +0.000 S 
ATOM     16  C   UNL     1      48.949   6.088  17.878  0.00  0.00    +0.000 A 
ATOM     17  N   UNL     1      49.045   5.654  19.164  0.00  0.00    +0.000 NA
ATOM     18  C   UNL     1      48.506   4.502  19.378  0.00  0.00    +0.000 A 
ATOM     19  N   UNL     1      47.869   3.747  18.424  0.00  0.00    +0.000 N 
ATOM     20  C   UNL     1      47.706   4.167  17.124  0.00  0.00    +0.000 A 
ATOM     21  O   UNL     1      47.064   3.505  16.312  0.00  0.00    +0.000 OA
ATOM     22  C   UNL     1      48.327   5.441  16.822  0.00  0.00    +0.000 A 
ATOM     23  H   UNL     1      47.455   2.860  18.665  0.00  0.00    +0.000 HD
ENDBRANCH  10  13
ENDBRANCH   8   9
ENDBRANCH   1   8
BRANCH   4  24
ATOM     24  C   UNL     1      43.311   9.957  10.606  0.00  0.00    +0.000 C 
BRANCH  24  25
ATOM     25  N   UNL     1      41.892   9.994  10.887  0.00  0.00    +0.000 N 
ATOM     26  C   UNL     1      41.224  11.205  10.931  0.00  0.00    +0.000 C 
ATOM     27  O   UNL     1      41.797  12.273  10.754  0.00  0.00    +0.000 OA
ATOM     28  H   UNL     1      41.377   9.124  10.868  0.00  0.00    +0.000 HD
BRANCH  26  29
ATOM     29  C   UNL     1      39.770  11.152  11.257  0.00  0.00    +0.000 A 
ATOM     30  C   UNL     1      38.884  10.618  10.302  0.00  0.00    +0.000 A 
ATOM     31  C   UNL     1      37.526  10.466  10.593  0.00  0.00    +0.000 A 
ATOM     32  C   UNL     1      37.037  10.830  11.844  0.00  0.00    +0.000 A 
ATOM     33  C   UNL     1      37.903  11.365  12.798  0.00  0.00    +0.000 A 
ATOM     34  C   UNL     1      39.266  11.534  12.510  0.00  0.00    +0.000 A 
ATOM     35 CL   UNL     1      40.226  12.270  13.745  0.00  0.00    +0.000 Cl
ENDBRANCH  26  29
ENDBRANCH  24  25
ENDBRANCH   4  24
TORSDOF 6
ENDMDL
