MODEL 1
REMARK VINA RESULT:    -8.088      0.000      0.000
REMARK INTER + INTRA:         -12.796
REMARK INTER:                 -11.398
REMARK INTRA:                  -1.398
REMARK UNBOUND:                -1.398
REMARK  Name = 
REMARK  8 active torsions:
REMARK  status: ('A' for Active; 'I' for Inactive)
REMARK    1  A    between atoms: C_1  and  N_2
REMARK    2  A    between atoms: C_4  and  C_5
REMARK    3  A    between atoms: N_7  and  C_8
REMARK    4  A    between atoms: C_8  and  C_9
REMARK    5  A    between atoms: C_12  and  C_13
REMARK    6  A    between atoms: C_13  and  N_14
REMARK    7  A    between atoms: N_14  and  C_15
REMARK    8  A    between atoms: C_15  and  C_16
REMARK                            x       y       z     vdW  Elec       q    Type
REMARK                         _______ _______ _______ _____ _____    ______ ____
ROOT
ATOM      1  C   UNL     1      46.914   7.918  12.825  0.00  0.00    +0.000 C 
ENDROOT
BRANCH   1   2
ATOM      2  C   UNL     1      46.056   6.817  12.275  0.00  0.00    +0.000 A 
ATOM      3  C   UNL     1      46.205   6.403  10.946  0.00  0.00    +0.000 A 
ATOM      4  C   UNL     1      45.420   5.370  10.439  0.00  0.00    +0.000 A 
ATOM      5  C   UNL     1      44.496   4.701  11.255  0.00  0.00    +0.000 A 
ATOM      6  C   UNL     1      44.314   5.154  12.569  0.00  0.00    +0.000 A 
ATOM      7  C   UNL     1      45.084   6.203  13.073  0.00  0.00    +0.000 A 
BRANCH   5   8
ATOM      8  C   UNL     1      43.678   3.525  10.766  0.00  0.00    +0.000 C 
BRANCH   8   9
ATOM      9  N   UNL     1      43.935   3.106   9.389  0.00  0.00    +0.000 NA
ATOM     10  H   UNL     1      44.311   3.883   8.854  0.00  0.00    +0.000 HD
BRANCH   9  11
ATOM     11  C   UNL     1      44.818   1.942   9.290  0.00  0.00    +0.000 C 
BRANCH  11  12
ATOM     12  C   UNL     1      46.025   2.272   8.397  0.00  0.00    +0.000 C 
ATOM     13  C   UNL     1      45.661   3.311   7.326  0.00  0.00    +0.000 C 
ATOM     14  C   UNL     1      46.835   3.597   6.397  0.00  0.00    +0.000 C 
ATOM     15  C   UNL     1      47.364   2.318   5.760  0.00  0.00    +0.000 C 
ATOM     16  C   UNL     1      47.742   1.283   6.816  0.00  0.00    +0.000 C 
ATOM     17  C   UNL     1      46.574   0.988   7.753  0.00  0.00    +0.000 C 
ENDBRANCH  11  12
ENDBRANCH   9  11
ENDBRANCH   8   9
ENDBRANCH   5   8
ENDBRANCH   1   2
BRANCH   1  20
ATOM     18  C   UNL     1      48.576   6.943  14.320  0.00  0.00    +0.000 C 
ATOM     19  O   UNL     1      49.238   6.540  13.373  0.00  0.00    +0.000 OA
ATOM     20  N   UNL     1      47.381   7.605  14.152  0.00  0.00    +0.000 N 
ATOM     21  H   UNL     1      46.911   8.016  14.945  0.00  0.00    +0.000 HD
BRANCH  18  25
ATOM     22  C   UNL     1      50.633   7.803  18.778  0.00  0.00    +0.000 C 
ATOM     23  N   UNL     1      49.904   7.162  17.708  0.00  0.00    +0.000 N 
ATOM     24  C   UNL     1      49.794   7.625  16.425  0.00  0.00    +0.000 A 
ATOM     25  C   UNL     1      48.980   6.752  15.710  0.00  0.00    +0.000 A 
ATOM     26  C   UNL     1      48.609   5.697  16.617  0.00  0.00    +0.000 A 
ATOM     27  C   UNL     1      47.876   4.512  16.623  0.00  0.00    +0.000 A 
ATOM     28 CL   UNL     1      47.165   3.902  15.212  0.00  0.00    +0.000 Cl
ATOM     29  N   UNL     1      47.755   3.747  17.722  0.00  0.00    +0.000 NA
ATOM     30  C   UNL     1      48.369   4.178  18.831  0.00  0.00    +0.000 A 
ATOM     31  N   UNL     1      49.114   5.284  18.978  0.00  0.00    +0.000 NA
ATOM     32  C   UNL     1      49.199   5.998  17.842  0.00  0.00    +0.000 A 
ENDBRANCH  18  25
ENDBRANCH   1  20
TORSDOF 7
ENDMDL
MODEL 2
REMARK VINA RESULT:    -7.850      1.585      1.913
REMARK INTER + INTRA:         -12.460
REMARK INTER:                 -11.335
REMARK INTRA:                  -1.125
REMARK UNBOUND:                -1.398
REMARK  Name = 
REMARK  8 active torsions:
REMARK  status: ('A' for Active; 'I' for Inactive)
REMARK    1  A    between atoms: C_1  and  N_2
REMARK    2  A    between atoms: C_4  and  C_5
REMARK    3  A    between atoms: N_7  and  C_8
REMARK    4  A    between atoms: C_8  and  C_9
REMARK    5  A    between atoms: C_12  and  C_13
REMARK    6  A    between atoms: C_13  and  N_14
REMARK    7  A    between atoms: N_14  and  C_15
REMARK    8  A    between atoms: C_15  and  C_16
REMARK                            x       y       z     vdW  Elec       q    Type
REMARK                         _______ _______ _______ _____ _____    ______ ____
ROOT
ATOM      1  C   UNL     1      48.243   6.609  13.498  0.00  0.00    +0.000 C 
ENDROOT
BRANCH   1   2
ATOM      2  C   UNL     1      47.087   5.917  12.838  0.00  0.00    +0.000 A 
ATOM      3  C   UNL     1      46.500   4.796  13.436  0.00  0.00    +0.000 A 
ATOM      4  C   UNL     1      45.417   4.162  12.832  0.00  0.00    +0.000 A 
ATOM      5  C   UNL     1      44.870   4.653  11.638  0.00  0.00    +0.000 A 
ATOM      6  C   UNL     1      45.494   5.744  11.016  0.00  0.00    +0.000 A 
ATOM      7  C   UNL     1      46.593   6.368  11.608  0.00  0.00    +0.000 A 
BRANCH   5   8
ATOM      8  C   UNL     1      43.647   4.041  10.988  0.00  0.00    +0.000 C 
BRANCH   8   9
ATOM      9  N   UNL     1      43.832   3.566   9.618  0.00  0.00    +0.000 NA
ATOM     10  H   UNL     1      44.289   4.281   9.061  0.00  0.00    +0.000 HD
BRANCH   9  11
ATOM     11  C   UNL     1      44.567   2.302   9.535  0.00  0.00    +0.000 C 
BRANCH  11  12
ATOM     12  C   UNL     1      45.800   2.471   8.632  0.00  0.00    +0.000 C 
ATOM     13  C   UNL     1      45.543   3.499   7.519  0.00  0.00    +0.000 C 
ATOM     14  C   UNL     1      46.738   3.625   6.582  0.00  0.00    +0.000 C 
ATOM     15  C   UNL     1      47.131   2.274   5.998  0.00  0.00    +0.000 C 
ATOM     16  C   UNL     1      47.403   1.249   7.095  0.00  0.00    +0.000 C 
ATOM     17  C   UNL     1      46.213   1.113   8.040  0.00  0.00    +0.000 C 
ENDBRANCH  11  12
ENDBRANCH   9  11
ENDBRANCH   8   9
ENDBRANCH   5   8
ENDBRANCH   1   2
BRANCH   1  20
ATOM     18  C   UNL     1      49.051   6.828  15.789  0.00  0.00    +0.000 C 
ATOM     19  O   UNL     1      50.202   6.605  15.438  0.00  0.00    +0.000 OA
ATOM     20  N   UNL     1      47.997   6.811  14.904  0.00  0.00    +0.000 N 
ATOM     21  H   UNL     1      47.077   7.101  15.203  0.00  0.00    +0.000 HD
BRANCH  18  25
ATOM     22  C   UNL     1      47.398   9.289  19.796  0.00  0.00    +0.000 C 
ATOM     23  N   UNL     1      47.929   8.239  18.958  0.00  0.00    +0.000 N 
ATOM     24  C   UNL     1      48.241   8.355  17.631  0.00  0.00    +0.000 A 
ATOM     25  C   UNL     1      48.685   7.119  17.172  0.00  0.00    +0.000 A 
ATOM     26  C   UNL     1      48.659   6.227  18.301  0.00  0.00    +0.000 A 
ATOM     27  C   UNL     1      48.971   4.907  18.618  0.00  0.00    +0.000 A 
ATOM     28 CL   UNL     1      49.671   3.863  17.481  0.00  0.00    +0.000 Cl
ATOM     29  N   UNL     1      48.810   4.406  19.856  0.00  0.00    +0.000 NA
ATOM     30  C   UNL     1      48.323   5.236  20.786  0.00  0.00    +0.000 A 
ATOM     31  N   UNL     1      47.987   6.526  20.638  0.00  0.00    +0.000 NA
ATOM     32  C   UNL     1      48.179   6.964  19.382  0.00  0.00    +0.000 A 
ENDBRANCH  18  25
ENDBRANCH   1  20
TORSDOF 7
ENDMDL
MODEL 3
REMARK VINA RESULT:    -7.845      1.993      2.906
REMARK INTER + INTRA:         -12.453
REMARK INTER:                 -11.364
REMARK INTRA:                  -1.089
REMARK UNBOUND:                -1.398
REMARK  Name = 
REMARK  8 active torsions:
REMARK  status: ('A' for Active; 'I' for Inactive)
REMARK    1  A    between atoms: C_1  and  N_2
REMARK    2  A    between atoms: C_4  and  C_5
REMARK    3  A    between atoms: N_7  and  C_8
REMARK    4  A    between atoms: C_8  and  C_9
REMARK    5  A    between atoms: C_12  and  C_13
REMARK    6  A    between atoms: C_13  and  N_14
REMARK    7  A    between atoms: N_14  and  C_15
REMARK    8  A    between atoms: C_15  and  C_16
REMARK                            x       y       z     vdW  Elec       q    Type
REMARK                         _______ _______ _______ _____ _____    ______ ____
ROOT
ATOM      1  C   UNL     1      48.249   6.627  13.828  0.00  0.00    +0.000 C 
ENDROOT
BRANCH   1   2
ATOM      2  C   UNL     1      47.072   6.165  13.021  0.00  0.00    +0.000 A 
ATOM      3  C   UNL     1      46.148   5.269  13.572  0.00  0.00    +0.000 A 
ATOM      4  C   UNL     1      45.046   4.850  12.830  0.00  0.00    +0.000 A 
ATOM      5  C   UNL     1      44.820   5.344  11.537  0.00  0.00    +0.000 A 
ATOM      6  C   UNL     1      45.775   6.199  10.971  0.00  0.00    +0.000 A 
ATOM      7  C   UNL     1      46.892   6.603  11.705  0.00  0.00    +0.000 A 
BRANCH   5   8
ATOM      8  C   UNL     1      43.596   4.974  10.726  0.00  0.00    +0.000 C 
BRANCH   8   9
ATOM      9  N   UNL     1      43.862   4.389   9.413  0.00  0.00    +0.000 NA
ATOM     10  H   UNL     1      44.491   4.988   8.887  0.00  0.00    +0.000 HD
BRANCH   9  11
ATOM     11  C   UNL     1      44.390   3.025   9.481  0.00  0.00    +0.000 C 
BRANCH  11  12
ATOM     12  C   UNL     1      45.210   2.716   8.217  0.00  0.00    +0.000 C 
ATOM     13  C   UNL     1      46.093   1.474   8.414  0.00  0.00    +0.000 C 
ATOM     14  C   UNL     1      46.956   1.198   7.188  0.00  0.00    +0.000 C 
ATOM     15  C   UNL     1      47.796   2.413   6.814  0.00  0.00    +0.000 C 
ATOM     16  C   UNL     1      46.927   3.649   6.603  0.00  0.00    +0.000 C 
ATOM     17  C   UNL     1      46.058   3.937   7.824  0.00  0.00    +0.000 C 
ENDBRANCH  11  12
ENDBRANCH   9  11
ENDBRANCH   8   9
ENDBRANCH   5   8
ENDBRANCH   1   2
BRANCH   1  20
ATOM     18  C   UNL     1      49.101   6.392  16.102  0.00  0.00    +0.000 C 
ATOM     19  O   UNL     1      50.258   6.460  15.710  0.00  0.00    +0.000 OA
ATOM     20  N   UNL     1      48.029   6.424  15.238  0.00  0.00    +0.000 N 
ATOM     21  H   UNL     1      47.087   6.472  15.598  0.00  0.00    +0.000 HD
BRANCH  18  25
ATOM     22  C   UNL     1      48.530   4.409  20.639  0.00  0.00    +0.000 C 
ATOM     23  N   UNL     1      48.508   5.353  19.546  0.00  0.00    +0.000 N 
ATOM     24  C   UNL     1      48.866   5.088  18.252  0.00  0.00    +0.000 A 
ATOM     25  C   UNL     1      48.747   6.259  17.512  0.00  0.00    +0.000 A 
ATOM     26  C   UNL     1      48.264   7.270  18.416  0.00  0.00    +0.000 A 
ATOM     27  C   UNL     1      47.891   8.613  18.405  0.00  0.00    +0.000 A 
ATOM     28 CL   UNL     1      47.865   9.515  16.971  0.00  0.00    +0.000 Cl
ATOM     29  N   UNL     1      47.459   9.249  19.508  0.00  0.00    +0.000 NA
ATOM     30  C   UNL     1      47.407   8.533  20.638  0.00  0.00    +0.000 A 
ATOM     31  N   UNL     1      47.720   7.240  20.804  0.00  0.00    +0.000 NA
ATOM     32  C   UNL     1      48.137   6.664  19.663  0.00  0.00    +0.000 A 
ENDBRANCH  18  25
ENDBRANCH   1  20
TORSDOF 7
ENDMDL
MODEL 4
REMARK VINA RESULT:    -7.071      2.331      3.128
REMARK INTER + INTRA:         -11.363
REMARK INTER:                 -10.333
REMARK INTRA:                  -1.031
REMARK UNBOUND:                -1.398
REMARK  Name = 
REMARK  8 active torsions:
REMARK  status: ('A' for Active; 'I' for Inactive)
REMARK    1  A    between atoms: C_1  and  N_2
REMARK    2  A    between atoms: C_4  and  C_5
REMARK    3  A    between atoms: N_7  and  C_8
REMARK    4  A    between atoms: C_8  and  C_9
REMARK    5  A    between atoms: C_12  and  C_13
REMARK    6  A    between atoms: C_13  and  N_14
REMARK    7  A    between atoms: N_14  and  C_15
REMARK    8  A    between atoms: C_15  and  C_16
REMARK                            x       y       z     vdW  Elec       q    Type
REMARK                         _______ _______ _______ _____ _____    ______ ____
ROOT
ATOM      1  C   UNL     1      47.543   4.829  14.598  0.00  0.00    +0.000 C 
ENDROOT
BRANCH   1   2
ATOM      2  C   UNL     1      46.546   4.690  13.485  0.00  0.00    +0.000 A 
ATOM      3  C   UNL     1      46.041   5.828  12.845  0.00  0.00    +0.000 A 
ATOM      4  C   UNL     1      45.127   5.701  11.801  0.00  0.00    +0.000 A 
ATOM      5  C   UNL     1      44.725   4.436  11.347  0.00  0.00    +0.000 A 
ATOM      6  C   UNL     1      45.194   3.302  12.025  0.00  0.00    +0.000 A 
ATOM      7  C   UNL     1      46.093   3.428  13.086  0.00  0.00    +0.000 A 
BRANCH   5   8
ATOM      8  C   UNL     1      43.794   4.251  10.168  0.00  0.00    +0.000 C 
BRANCH   8   9
ATOM      9  N   UNL     1      44.352   3.522   9.031  0.00  0.00    +0.000 NA
ATOM     10  H   UNL     1      43.613   3.276   8.379  0.00  0.00    +0.000 HD
BRANCH   9  11
ATOM     11  C   UNL     1      45.423   4.248   8.344  0.00  0.00    +0.000 C 
BRANCH  11  12
ATOM     12  C   UNL     1      46.446   3.254   7.771  0.00  0.00    +0.000 C 
ATOM     13  C   UNL     1      46.566   3.392   6.245  0.00  0.00    +0.000 C 
ATOM     14  C   UNL     1      47.532   2.368   5.661  0.00  0.00    +0.000 C 
ATOM     15  C   UNL     1      47.140   0.949   6.052  0.00  0.00    +0.000 C 
ATOM     16  C   UNL     1      47.032   0.796   7.566  0.00  0.00    +0.000 C 
ATOM     17  C   UNL     1      46.067   1.816   8.164  0.00  0.00    +0.000 C 
ENDBRANCH  11  12
ENDBRANCH   9  11
ENDBRANCH   8   9
ENDBRANCH   5   8
ENDBRANCH   1   2
BRANCH   1  20
ATOM     18  C   UNL     1      48.776   6.639  15.672  0.00  0.00    +0.000 C 
ATOM     19  O   UNL     1      49.718   5.897  15.914  0.00  0.00    +0.000 OA
ATOM     20  N   UNL     1      47.628   6.193  15.056  0.00  0.00    +0.000 N 
ATOM     21  H   UNL     1      46.913   6.849  14.775  0.00  0.00    +0.000 HD
BRANCH  18  25
ATOM     22  C   UNL     1      49.322  11.578  15.277  0.00  0.00    +0.000 C 
ATOM     23  N   UNL     1      49.016  10.274  15.819  0.00  0.00    +0.000 N 
ATOM     24  C   UNL     1      49.236   9.076  15.195  0.00  0.00    +0.000 A 
ATOM     25  C   UNL     1      48.773   8.057  16.020  0.00  0.00    +0.000 A 
ATOM     26  C   UNL     1      48.273   8.688  17.213  0.00  0.00    +0.000 A 
ATOM     27  C   UNL     1      47.709   8.343  18.440  0.00  0.00    +0.000 A 
ATOM     28 CL   UNL     1      47.517   6.724  18.904  0.00  0.00    +0.000 Cl
ATOM     29  N   UNL     1      47.358   9.263  19.355  0.00  0.00    +0.000 NA
ATOM     30  C   UNL     1      47.566  10.545  19.035  0.00  0.00    +0.000 A 
ATOM     31  N   UNL     1      48.105  11.031  17.907  0.00  0.00    +0.000 NA
ATOM     32  C   UNL     1      48.439  10.059  17.040  0.00  0.00    +0.000 A 
ENDBRANCH  18  25
ENDBRANCH   1  20
TORSDOF 7
ENDMDL
MODEL 5
REMARK VINA RESULT:    -6.959      1.799      2.321
REMARK INTER + INTRA:         -11.204
REMARK INTER:                 -10.042
REMARK INTRA:                  -1.162
REMARK UNBOUND:                -1.398
REMARK  Name = 
REMARK  8 active torsions:
REMARK  status: ('A' for Active; 'I' for Inactive)
REMARK    1  A    between atoms: C_1  and  N_2
REMARK    2  A    between atoms: C_4  and  C_5
REMARK    3  A    between atoms: N_7  and  C_8
REMARK    4  A    between atoms: C_8  and  C_9
REMARK    5  A    between atoms: C_12  and  C_13
REMARK    6  A    between atoms: C_13  and  N_14
REMARK    7  A    between atoms: N_14  and  C_15
REMARK    8  A    between atoms: C_15  and  C_16
REMARK                            x       y       z     vdW  Elec       q    Type
REMARK                         _______ _______ _______ _____ _____    ______ ____
ROOT
ATOM      1  C   UNL     1      48.031   7.735  12.957  0.00  0.00    +0.000 C 
ENDROOT
BRANCH   1   2
ATOM      2  C   UNL     1      46.866   6.791  12.904  0.00  0.00    +0.000 A 
ATOM      3  C   UNL     1      45.561   7.286  12.798  0.00  0.00    +0.000 A 
ATOM      4  C   UNL     1      44.479   6.411  12.734  0.00  0.00    +0.000 A 
ATOM      5  C   UNL     1      44.676   5.022  12.736  0.00  0.00    +0.000 A 
ATOM      6  C   UNL     1      45.980   4.532  12.895  0.00  0.00    +0.000 A 
ATOM      7  C   UNL     1      47.064   5.407  12.981  0.00  0.00    +0.000 A 
BRANCH   5   8
ATOM      8  C   UNL     1      43.536   4.037  12.591  0.00  0.00    +0.000 C 
BRANCH   8   9
ATOM      9  N   UNL     1      43.243   3.607  11.225  0.00  0.00    +0.000 NA
ATOM     10  H   UNL     1      42.239   3.529  11.093  0.00  0.00    +0.000 HD
BRANCH   9  11
ATOM     11  C   UNL     1      43.828   4.477  10.203  0.00  0.00    +0.000 C 
BRANCH  11  12
ATOM     12  C   UNL     1      44.423   3.628   9.068  0.00  0.00    +0.000 C 
ATOM     13  C   UNL     1      44.940   2.278   9.590  0.00  0.00    +0.000 C 
ATOM     14  C   UNL     1      45.587   1.457   8.482  0.00  0.00    +0.000 C 
ATOM     15  C   UNL     1      46.698   2.236   7.789  0.00  0.00    +0.000 C 
ATOM     16  C   UNL     1      46.192   3.572   7.253  0.00  0.00    +0.000 C 
ATOM     17  C   UNL     1      45.541   4.405   8.354  0.00  0.00    +0.000 C 
ENDBRANCH  11  12
ENDBRANCH   9  11
ENDBRANCH   8   9
ENDBRANCH   5   8
ENDBRANCH   1   2
BRANCH   1  20
ATOM     18  C   UNL     1      49.213   7.559  15.083  0.00  0.00    +0.000 C 
ATOM     19  O   UNL     1      48.470   8.381  15.600  0.00  0.00    +0.000 OA
ATOM     20  N   UNL     1      49.102   7.199  13.759  0.00  0.00    +0.000 N 
ATOM     21  H   UNL     1      49.659   6.443  13.388  0.00  0.00    +0.000 HD
BRANCH  18  25
ATOM     22  C   UNL     1      53.732   6.596  16.953  0.00  0.00    +0.000 C 
ATOM     23  N   UNL     1      52.324   6.482  16.649  0.00  0.00    +0.000 N 
ATOM     24  C   UNL     1      51.619   7.299  15.808  0.00  0.00    +0.000 A 
ATOM     25  C   UNL     1      50.288   6.891  15.811  0.00  0.00    +0.000 A 
ATOM     26  C   UNL     1      50.209   5.750  16.684  0.00  0.00    +0.000 A 
ATOM     27  C   UNL     1      49.270   4.829  17.144  0.00  0.00    +0.000 A 
ATOM     28 CL   UNL     1      47.672   4.835  16.580  0.00  0.00    +0.000 Cl
ATOM     29  N   UNL     1      49.590   3.840  17.997  0.00  0.00    +0.000 NA
ATOM     30  C   UNL     1      50.864   3.777  18.400  0.00  0.00    +0.000 A 
ATOM     31  N   UNL     1      51.878   4.578  18.041  0.00  0.00    +0.000 NA
ATOM     32  C   UNL     1      51.492   5.538  17.183  0.00  0.00    +0.000 A 
ENDBRANCH  18  25
ENDBRANCH   1  20
TORSDOF 7
ENDMDL
MODEL 6
REMARK VINA RESULT:    -6.817      2.554      3.805
REMARK INTER + INTRA:         -11.004
REMARK INTER:                  -9.937
REMARK INTRA:                  -1.067
REMARK UNBOUND:                -1.398
REMARK  Name = 
REMARK  8 active torsions:
REMARK  status: ('A' for Active; 'I' for Inactive)
REMARK    1  A    between atoms: C_1  and  N_2
REMARK    2  A    between atoms: C_4  and  C_5
REMARK    3  A    between atoms: N_7  and  C_8
REMARK    4  A    between atoms: C_8  and  C_9
REMARK    5  A    between atoms: C_12  and  C_13
REMARK    6  A    between atoms: C_13  and  N_14
REMARK    7  A    between atoms: N_14  and  C_15
REMARK    8  A    between atoms: C_15  and  C_16
REMARK                            x       y       z     vdW  Elec       q    Type
REMARK                         _______ _______ _______ _____ _____    ______ ____
ROOT
ATOM      1  C   UNL     1      47.639   5.367  14.422  0.00  0.00    +0.000 C 
ENDROOT
BRANCH   1   2
ATOM      2  C   UNL     1      46.581   5.218  13.368  0.00  0.00    +0.000 A 
ATOM      3  C   UNL     1      46.569   6.067  12.256  0.00  0.00    +0.000 A 
ATOM      4  C   UNL     1      45.597   5.921  11.269  0.00  0.00    +0.000 A 
ATOM      5  C   UNL     1      44.638   4.900  11.350  0.00  0.00    +0.000 A 
ATOM      6  C   UNL     1      44.623   4.086  12.491  0.00  0.00    +0.000 A 
ATOM      7  C   UNL     1      45.583   4.245  13.492  0.00  0.00    +0.000 A 
BRANCH   5   8
ATOM      8  C   UNL     1      43.612   4.657  10.263  0.00  0.00    +0.000 C 
BRANCH   8   9
ATOM      9  N   UNL     1      44.149   4.231   8.972  0.00  0.00    +0.000 NA
ATOM     10  H   UNL     1      44.946   4.807   8.720  0.00  0.00    +0.000 HD
BRANCH   9  11
ATOM     11  C   UNL     1      44.508   2.812   8.932  0.00  0.00    +0.000 C 
BRANCH  11  12
ATOM     12  C   UNL     1      45.843   2.629   8.191  0.00  0.00    +0.000 C 
ATOM     13  C   UNL     1      45.814   3.303   6.811  0.00  0.00    +0.000 C 
ATOM     14  C   UNL     1      47.112   3.072   6.045  0.00  0.00    +0.000 C 
ATOM     15  C   UNL     1      47.427   1.587   5.922  0.00  0.00    +0.000 C 
ATOM     16  C   UNL     1      47.472   0.910   7.288  0.00  0.00    +0.000 C 
ATOM     17  C   UNL     1      46.178   1.133   8.066  0.00  0.00    +0.000 C 
ENDBRANCH  11  12
ENDBRANCH   9  11
ENDBRANCH   8   9
ENDBRANCH   5   8
ENDBRANCH   1   2
BRANCH   1  20
ATOM     18  C   UNL     1      48.965   7.195  15.344  0.00  0.00    +0.000 C 
ATOM     19  O   UNL     1      49.926   6.456  15.512  0.00  0.00    +0.000 OA
ATOM     20  N   UNL     1      47.766   6.739  14.845  0.00  0.00    +0.000 N 
ATOM     21  H   UNL     1      47.028   7.390  14.619  0.00  0.00    +0.000 HD
BRANCH  18  25
ATOM     22  C   UNL     1      49.059  11.416  17.992  0.00  0.00    +0.000 C 
ATOM     23  N   UNL     1      49.045  10.503  16.872  0.00  0.00    +0.000 N 
ATOM     24  C   UNL     1      48.923   9.143  16.951  0.00  0.00    +0.000 A 
ATOM     25  C   UNL     1      48.994   8.619  15.664  0.00  0.00    +0.000 A 
ATOM     26  C   UNL     1      49.140   9.738  14.771  0.00  0.00    +0.000 A 
ATOM     27  C   UNL     1      49.240  10.000  13.406  0.00  0.00    +0.000 A 
ATOM     28 CL   UNL     1      49.114   8.765  12.254  0.00  0.00    +0.000 Cl
ATOM     29  N   UNL     1      49.365  11.248  12.920  0.00  0.00    +0.000 NA
ATOM     30  C   UNL     1      49.397  12.245  13.813  0.00  0.00    +0.000 A 
ATOM     31  N   UNL     1      49.301  12.153  15.147  0.00  0.00    +0.000 NA
ATOM     32  C   UNL     1      49.172  10.882  15.565  0.00  0.00    +0.000 A 
ENDBRANCH  18  25
ENDBRANCH   1  20
TORSDOF 7
ENDMDL
MODEL 7
REMARK VINA RESULT:    -6.769      3.728      5.089
REMARK INTER + INTRA:         -10.938
REMARK INTER:                  -9.764
REMARK INTRA:                  -1.174
REMARK UNBOUND:                -1.398
REMARK  Name = 
REMARK  8 active torsions:
REMARK  status: ('A' for Active; 'I' for Inactive)
REMARK    1  A    between atoms: C_1  and  N_2
REMARK    2  A    between atoms: C_4  and  C_5
REMARK    3  A    between atoms: N_7  and  C_8
REMARK    4  A    between atoms: C_8  and  C_9
REMARK    5  A    between atoms: C_12  and  C_13
REMARK    6  A    between atoms: C_13  and  N_14
REMARK    7  A    between atoms: N_14  and  C_15
REMARK    8  A    between atoms: C_15  and  C_16
REMARK                            x       y       z     vdW  Elec       q    Type
REMARK                         _______ _______ _______ _____ _____    ______ ____
ROOT
ATOM      1  C   UNL     1      47.792   6.920  13.618  0.00  0.00    +0.000 C 
ENDROOT
BRANCH   1   2
ATOM      2  C   UNL     1      46.724   6.163  12.884  0.00  0.00    +0.000 A 
ATOM      3  C   UNL     1      46.049   5.111  13.512  0.00  0.00    +0.000 A 
ATOM      4  C   UNL     1      45.046   4.417  12.838  0.00  0.00    +0.000 A 
ATOM      5  C   UNL     1      44.669   4.781  11.537  0.00  0.00    +0.000 A 
ATOM      6  C   UNL     1      45.384   5.801  10.895  0.00  0.00    +0.000 A 
ATOM      7  C   UNL     1      46.404   6.484  11.560  0.00  0.00    +0.000 A 
BRANCH   5   8
ATOM      8  C   UNL     1      43.534   4.104  10.798  0.00  0.00    +0.000 C 
BRANCH   8   9
ATOM      9  N   UNL     1      43.875   3.555   9.487  0.00  0.00    +0.000 NA
ATOM     10  H   UNL     1      44.337   4.262   8.923  0.00  0.00    +0.000 HD
BRANCH   9  11
ATOM     11  C   UNL     1      44.692   2.342   9.559  0.00  0.00    +0.000 C 
BRANCH  11  12
ATOM     12  C   UNL     1      45.917   2.478   8.639  0.00  0.00    +0.000 C 
ATOM     13  C   UNL     1      45.686   3.541   7.554  0.00  0.00    +0.000 C 
ATOM     14  C   UNL     1      46.871   3.638   6.600  0.00  0.00    +0.000 C 
ATOM     15  C   UNL     1      47.196   2.284   5.979  0.00  0.00    +0.000 C 
ATOM     16  C   UNL     1      47.441   1.224   7.048  0.00  0.00    +0.000 C 
ATOM     17  C   UNL     1      46.261   1.117   8.011  0.00  0.00    +0.000 C 
ENDBRANCH  11  12
ENDBRANCH   9  11
ENDBRANCH   8   9
ENDBRANCH   5   8
ENDBRANCH   1   2
BRANCH   1  20
ATOM     18  C   UNL     1      49.609   8.134  12.534  0.00  0.00    +0.000 C 
ATOM     19  O   UNL     1      49.079   9.209  12.779  0.00  0.00    +0.000 OA
ATOM     20  N   UNL     1      49.028   6.934  12.875  0.00  0.00    +0.000 N 
ATOM     21  H   UNL     1      49.536   6.070  12.755  0.00  0.00    +0.000 HD
BRANCH  18  25
ATOM     22  C   UNL     1      52.992   7.108   9.020  0.00  0.00    +0.000 C 
ATOM     23  N   UNL     1      52.398   7.560  10.257  0.00  0.00    +0.000 N 
ATOM     24  C   UNL     1      51.082   7.425  10.609  0.00  0.00    +0.000 A 
ATOM     25  C   UNL     1      50.895   8.020  11.853  0.00  0.00    +0.000 A 
ATOM     26  C   UNL     1      52.181   8.512  12.272  0.00  0.00    +0.000 A 
ATOM     27  C   UNL     1      52.767   9.161  13.356  0.00  0.00    +0.000 A 
ATOM     28 CL   UNL     1      51.883   9.526  14.755  0.00  0.00    +0.000 Cl
ATOM     29  N   UNL     1      54.076   9.466  13.392  0.00  0.00    +0.000 NA
ATOM     30  C   UNL     1      54.807   9.123  12.324  0.00  0.00    +0.000 A 
ATOM     31  N   UNL     1      54.392   8.490  11.217  0.00  0.00    +0.000 NA
ATOM     32  C   UNL     1      53.078   8.209  11.250  0.00  0.00    +0.000 A 
ENDBRANCH  18  25
ENDBRANCH   1  20
TORSDOF 7
ENDMDL
MODEL 8
REMARK VINA RESULT:    -6.691      3.762      9.441
REMARK INTER + INTRA:         -10.827
REMARK INTER:                  -8.805
REMARK INTRA:                  -2.022
REMARK UNBOUND:                -1.398
REMARK  Name = 
REMARK  8 active torsions:
REMARK  status: ('A' for Active; 'I' for Inactive)
REMARK    1  A    between atoms: C_1  and  N_2
REMARK    2  A    between atoms: C_4  and  C_5
REMARK    3  A    between atoms: N_7  and  C_8
REMARK    4  A    between atoms: C_8  and  C_9
REMARK    5  A    between atoms: C_12  and  C_13
REMARK    6  A    between atoms: C_13  and  N_14
REMARK    7  A    between atoms: N_14  and  C_15
REMARK    8  A    between atoms: C_15  and  C_16
REMARK                            x       y       z     vdW  Elec       q    Type
REMARK                         _______ _______ _______ _____ _____    ______ ____
ROOT
ATOM      1  C   UNL     1      47.583   3.583  16.624  0.00  0.00    +0.000 C 
ENDROOT
BRANCH   1   2
ATOM      2  C   UNL     1      47.739   4.285  17.941  0.00  0.00    +0.000 A 
ATOM      3  C   UNL     1      48.647   3.807  18.892  0.00  0.00    +0.000 A 
ATOM      4  C   UNL     1      48.804   4.466  20.109  0.00  0.00    +0.000 A 
ATOM      5  C   UNL     1      48.087   5.638  20.390  0.00  0.00    +0.000 A 
ATOM      6  C   UNL     1      47.141   6.082  19.456  0.00  0.00    +0.000 A 
ATOM      7  C   UNL     1      46.966   5.411  18.245  0.00  0.00    +0.000 A 
BRANCH   5   8
ATOM      8  C   UNL     1      48.282   6.427  21.667  0.00  0.00    +0.000 C 
BRANCH   8   9
ATOM      9  N   UNL     1      48.034   7.864  21.565  0.00  0.00    +0.000 NA
ATOM     10  H   UNL     1      47.544   8.191  22.392  0.00  0.00    +0.000 HD
BRANCH   9  11
ATOM     11  C   UNL     1      49.250   8.650  21.344  0.00  0.00    +0.000 C 
BRANCH  11  12
ATOM     12  C   UNL     1      49.241   9.241  19.924  0.00  0.00    +0.000 C 
ATOM     13  C   UNL     1      47.810   9.539  19.450  0.00  0.00    +0.000 C 
ATOM     14  C   UNL     1      47.789  10.066  18.021  0.00  0.00    +0.000 C 
ATOM     15  C   UNL     1      48.494   9.111  17.066  0.00  0.00    +0.000 C 
ATOM     16  C   UNL     1      49.921   8.820  17.519  0.00  0.00    +0.000 C 
ATOM     17  C   UNL     1      49.956   8.290  18.950  0.00  0.00    +0.000 C 
ENDBRANCH  11  12
ENDBRANCH   9  11
ENDBRANCH   8   9
ENDBRANCH   5   8
ENDBRANCH   1   2
BRANCH   1  20
ATOM     18  C   UNL     1      46.805   4.058  14.361  0.00  0.00    +0.000 C 
ATOM     19  O   UNL     1      47.514   3.176  13.898  0.00  0.00    +0.000 OA
ATOM     20  N   UNL     1      46.798   4.367  15.703  0.00  0.00    +0.000 N 
ATOM     21  H   UNL     1      46.127   5.026  16.071  0.00  0.00    +0.000 HD
BRANCH  18  25
ATOM     22  C   UNL     1      42.812   5.451  11.722  0.00  0.00    +0.000 C 
ATOM     23  N   UNL     1      44.104   5.481  12.368  0.00  0.00    +0.000 N 
ATOM     24  C   UNL     1      44.695   4.436  13.024  0.00  0.00    +0.000 A 
ATOM     25  C   UNL     1      45.911   4.871  13.542  0.00  0.00    +0.000 A 
ATOM     26  C   UNL     1      46.058   6.247  13.146  0.00  0.00    +0.000 A 
ATOM     27  C   UNL     1      46.975   7.291  13.256  0.00  0.00    +0.000 A 
ATOM     28 CL   UNL     1      48.483   7.072  13.997  0.00  0.00    +0.000 Cl
ATOM     29  N   UNL     1      46.754   8.503  12.718  0.00  0.00    +0.000 NA
ATOM     30  C   UNL     1      45.596   8.675  12.069  0.00  0.00    +0.000 A 
ATOM     31  N   UNL     1      44.626   7.771  11.871  0.00  0.00    +0.000 NA
ATOM     32  C   UNL     1      44.913   6.581  12.427  0.00  0.00    +0.000 A 
ENDBRANCH  18  25
ENDBRANCH   1  20
TORSDOF 7
ENDMDL
MODEL 9
REMARK VINA RESULT:    -6.643      3.777      5.668
REMARK INTER + INTRA:         -10.759
REMARK INTER:                  -9.696
REMARK INTRA:                  -1.064
REMARK UNBOUND:                -1.398
REMARK  Name = 
REMARK  8 active torsions:
REMARK  status: ('A' for Active; 'I' for Inactive)
REMARK    1  A    between atoms: C_1  and  N_2
REMARK    2  A    between atoms: C_4  and  C_5
REMARK    3  A    between atoms: N_7  and  C_8
REMARK    4  A    between atoms: C_8  and  C_9
REMARK    5  A    between atoms: C_12  and  C_13
REMARK    6  A    between atoms: C_13  and  N_14
REMARK    7  A    between atoms: N_14  and  C_15
REMARK    8  A    between atoms: C_15  and  C_16
REMARK                            x       y       z     vdW  Elec       q    Type
REMARK                         _______ _______ _______ _____ _____    ______ ____
ROOT
ATOM      1  C   UNL     1      47.692   7.126  13.679  0.00  0.00    +0.000 C 
ENDROOT
BRANCH   1   2
ATOM      2  C   UNL     1      46.600   6.368  12.982  0.00  0.00    +0.000 A 
ATOM      3  C   UNL     1      46.281   6.657  11.650  0.00  0.00    +0.000 A 
ATOM      4  C   UNL     1      45.279   5.944  10.996  0.00  0.00    +0.000 A 
ATOM      5  C   UNL     1      44.598   4.902  11.643  0.00  0.00    +0.000 A 
ATOM      6  C   UNL     1      44.885   4.652  12.992  0.00  0.00    +0.000 A 
ATOM      7  C   UNL     1      45.874   5.380  13.656  0.00  0.00    +0.000 A 
BRANCH   5   8
ATOM      8  C   UNL     1      43.556   4.052  10.947  0.00  0.00    +0.000 C 
BRANCH   8   9
ATOM      9  N   UNL     1      43.871   3.668   9.573  0.00  0.00    +0.000 NA
ATOM     10  H   UNL     1      44.432   4.389   9.130  0.00  0.00    +0.000 HD
BRANCH   9  11
ATOM     11  C   UNL     1      44.536   2.367   9.471  0.00  0.00    +0.000 C 
BRANCH  11  12
ATOM     12  C   UNL     1      45.800   2.490   8.603  0.00  0.00    +0.000 C 
ATOM     13  C   UNL     1      45.602   3.505   7.466  0.00  0.00    +0.000 C 
ATOM     14  C   UNL     1      46.827   3.585   6.564  0.00  0.00    +0.000 C 
ATOM     15  C   UNL     1      47.203   2.215   6.014  0.00  0.00    +0.000 C 
ATOM     16  C   UNL     1      47.417   1.203   7.135  0.00  0.00    +0.000 C 
ATOM     17  C   UNL     1      46.196   1.112   8.046  0.00  0.00    +0.000 C 
ENDBRANCH  11  12
ENDBRANCH   9  11
ENDBRANCH   8   9
ENDBRANCH   5   8
ENDBRANCH   1   2
BRANCH   1  20
ATOM     18  C   UNL     1      49.026   9.034  12.953  0.00  0.00    +0.000 C 
ATOM     19  O   UNL     1      48.638   9.706  13.899  0.00  0.00    +0.000 OA
ATOM     20  N   UNL     1      48.582   7.751  12.732  0.00  0.00    +0.000 N 
ATOM     21  H   UNL     1      48.998   7.185  12.006  0.00  0.00    +0.000 HD
BRANCH  18  25
ATOM     22  C   UNL     1      53.195   9.470  10.256  0.00  0.00    +0.000 C 
ATOM     23  N   UNL     1      51.861   9.702  10.760  0.00  0.00    +0.000 N 
ATOM     24  C   UNL     1      51.283   9.057  11.820  0.00  0.00    +0.000 A 
ATOM     25  C   UNL     1      49.983   9.529  11.967  0.00  0.00    +0.000 A 
ATOM     26  C   UNL     1      49.790  10.530  10.951  0.00  0.00    +0.000 A 
ATOM     27  C   UNL     1      48.813  11.420  10.510  0.00  0.00    +0.000 A 
ATOM     28 CL   UNL     1      47.331  11.581  11.317  0.00  0.00    +0.000 Cl
ATOM     29  N   UNL     1      49.012  12.252   9.474  0.00  0.00    +0.000 NA
ATOM     30  C   UNL     1      50.203  12.188   8.866  0.00  0.00    +0.000 A 
ATOM     31  N   UNL     1      51.241  11.398   9.179  0.00  0.00    +0.000 NA
ATOM     32  C   UNL     1      50.977  10.598  10.226  0.00  0.00    +0.000 A 
ENDBRANCH  18  25
ENDBRANCH   1  20
TORSDOF 7
ENDMDL
