MODEL 1
REMARK VINA RESULT:    -8.522      0.000      0.000
REMARK INTER + INTRA:         -12.545
REMARK INTER:                 -12.010
REMARK INTRA:                  -0.535
REMARK UNBOUND:                -0.535
REMARK  Name = 
REMARK  8 active torsions:
REMARK  status: ('A' for Active; 'I' for Inactive)
REMARK    1  A    between atoms: C_1  and  O_2
REMARK    2  A    between atoms: O_2  and  C_3
REMARK    3  A    between atoms: C_3  and  C_4
REMARK    4  A    between atoms: C_3  and  C_18
REMARK    5  A    between atoms: C_4  and  N_5
REMARK    6  A    between atoms: C_6  and  C_8
REMARK    7  A    between atoms: C_21  and  O_22
REMARK    8  A    between atoms: O_22  and  C_23
REMARK                            x       y       z     vdW  Elec       q    Type
REMARK                         _______ _______ _______ _____ _____    ______ ____
ROOT
ATOM      1  C   UNL     1      44.224   4.984  12.120  0.00  0.00    +0.000 C 
ENDROOT
BRANCH   1   2
ATOM      2  C   UNL     1      44.798   4.816  10.712  0.00  0.00    +0.000 A 
ATOM      3  C   UNL     1      44.268   3.824   9.866  0.00  0.00    +0.000 A 
ATOM      4  C   UNL     1      44.793   3.597   8.592  0.00  0.00    +0.000 A 
ATOM      5  C   UNL     1      45.808   4.415   8.100  0.00  0.00    +0.000 A 
ATOM      6  C   UNL     1      46.342   5.408   8.917  0.00  0.00    +0.000 A 
ATOM      7  C   UNL     1      45.833   5.616  10.205  0.00  0.00    +0.000 A 
BRANCH   5   8
ATOM      8  O   UNL     1      46.388   4.274   6.860  0.00  0.00    +0.000 OA
BRANCH   8   9
ATOM      9  C   UNL     1      46.701   3.021   6.383  0.00  0.00    +0.000 A 
ATOM     10  C   UNL     1      46.811   2.691   5.029  0.00  0.00    +0.000 A 
ATOM     11  C   UNL     1      47.106   1.382   4.648  0.00  0.00    +0.000 A 
ATOM     12  C   UNL     1      47.350   0.411   5.618  0.00  0.00    +0.000 A 
ATOM     13  C   UNL     1      47.306   0.750   6.970  0.00  0.00    +0.000 A 
ATOM     14  C   UNL     1      46.980   2.053   7.351  0.00  0.00    +0.000 A 
ENDBRANCH   8   9
ENDBRANCH   5   8
ENDBRANCH   1   2
BRANCH   1  16
ATOM     15  C   UNL     1      42.038   5.942  11.791  0.00  0.00    +0.000 C 
ATOM     16  O   UNL     1      42.801   4.768  12.018  0.00  0.00    +0.000 OA
ENDBRANCH   1  16
BRANCH   1  17
ATOM     17  C   UNL     1      44.837   4.066  13.208  0.00  0.00    +0.000 C 
BRANCH  17  18
ATOM     18  N   UNL     1      45.727   4.771  14.118  0.00  0.00    +0.000 N 
ATOM     19  C   UNL     1      46.922   4.225  14.532  0.00  0.00    +0.000 C 
ATOM     20  O   UNL     1      47.335   3.158  14.092  0.00  0.00    +0.000 OA
ATOM     21  H   UNL     1      45.347   5.582  14.595  0.00  0.00    +0.000 HD
BRANCH  19  22
ATOM     22  C   UNL     1      47.712   5.047  15.453  0.00  0.00    +0.000 A 
ATOM     23  C   UNL     1      48.418   6.141  14.980  0.00  0.00    +0.000 A 
ATOM     24  S   UNL     1      49.189   7.038  16.211  0.00  0.00    +0.000 S 
ATOM     25  C   UNL     1      48.647   5.961  17.414  0.00  0.00    +0.000 A 
ATOM     26  N   UNL     1      48.944   6.154  18.728  0.00  0.00    +0.000 NA
ATOM     27  C   UNL     1      48.478   5.245  19.520  0.00  0.00    +0.000 A 
ATOM     28  N   UNL     1      47.767   4.148  19.109  0.00  0.00    +0.000 N 
ATOM     29  C   UNL     1      47.480   3.893  17.792  0.00  0.00    +0.000 A 
ATOM     30  O   UNL     1      46.914   2.868  17.449  0.00  0.00    +0.000 OA
ATOM     31  C   UNL     1      47.916   4.917  16.875  0.00  0.00    +0.000 A 
ATOM     32  H   UNL     1      47.459   3.450  19.775  0.00  0.00    +0.000 HD
ENDBRANCH  19  22
ENDBRANCH  17  18
ENDBRANCH   1  17
TORSDOF 7
ENDMDL
MODEL 2
REMARK VINA RESULT:    -8.239      3.839      5.611
REMARK INTER + INTRA:         -12.145
REMARK INTER:                 -10.770
REMARK INTRA:                  -1.375
REMARK UNBOUND:                -0.535
REMARK  Name = 
REMARK  8 active torsions:
REMARK  status: ('A' for Active; 'I' for Inactive)
REMARK    1  A    between atoms: C_1  and  O_2
REMARK    2  A    between atoms: O_2  and  C_3
REMARK    3  A    between atoms: C_3  and  C_4
REMARK    4  A    between atoms: C_3  and  C_18
REMARK    5  A    between atoms: C_4  and  N_5
REMARK    6  A    between atoms: C_6  and  C_8
REMARK    7  A    between atoms: C_21  and  O_22
REMARK    8  A    between atoms: O_22  and  C_23
REMARK                            x       y       z     vdW  Elec       q    Type
REMARK                         _______ _______ _______ _____ _____    ______ ____
ROOT
ATOM      1  C   UNL     1      46.018   5.402  13.593  0.00  0.00    +0.000 C 
ENDROOT
BRANCH   1   2
ATOM      2  C   UNL     1      45.638   4.853  12.217  0.00  0.00    +0.000 A 
ATOM      3  C   UNL     1      45.051   3.578  12.122  0.00  0.00    +0.000 A 
ATOM      4  C   UNL     1      44.735   3.012  10.885  0.00  0.00    +0.000 A 
ATOM      5  C   UNL     1      44.923   3.744   9.714  0.00  0.00    +0.000 A 
ATOM      6  C   UNL     1      45.495   5.011   9.786  0.00  0.00    +0.000 A 
ATOM      7  C   UNL     1      45.837   5.566  11.026  0.00  0.00    +0.000 A 
BRANCH   5   8
ATOM      8  O   UNL     1      44.640   3.276   8.451  0.00  0.00    +0.000 OA
BRANCH   8   9
ATOM      9  C   UNL     1      45.644   2.748   7.671  0.00  0.00    +0.000 A 
ATOM     10  C   UNL     1      46.202   3.384   6.558  0.00  0.00    +0.000 A 
ATOM     11  C   UNL     1      47.198   2.750   5.815  0.00  0.00    +0.000 A 
ATOM     12  C   UNL     1      47.683   1.505   6.216  0.00  0.00    +0.000 A 
ATOM     13  C   UNL     1      47.176   0.897   7.363  0.00  0.00    +0.000 A 
ATOM     14  C   UNL     1      46.156   1.517   8.089  0.00  0.00    +0.000 A 
ENDBRANCH   8   9
ENDBRANCH   5   8
ENDBRANCH   1   2
BRANCH   1  16
ATOM     15  C   UNL     1      47.227   4.417  15.430  0.00  0.00    +0.000 C 
ATOM     16  O   UNL     1      46.205   4.262  14.459  0.00  0.00    +0.000 OA
ENDBRANCH   1  16
BRANCH   1  17
ATOM     17  C   UNL     1      47.265   6.322  13.628  0.00  0.00    +0.000 C 
BRANCH  17  18
ATOM     18  N   UNL     1      46.952   7.721  13.378  0.00  0.00    +0.000 N 
ATOM     19  C   UNL     1      47.612   8.450  12.414  0.00  0.00    +0.000 C 
ATOM     20  O   UNL     1      48.436   7.938  11.663  0.00  0.00    +0.000 OA
ATOM     21  H   UNL     1      46.380   8.194  14.070  0.00  0.00    +0.000 HD
BRANCH  19  22
ATOM     22  C   UNL     1      47.196   9.848  12.277  0.00  0.00    +0.000 A 
ATOM     23  C   UNL     1      48.091  10.871  12.546  0.00  0.00    +0.000 A 
ATOM     24  S   UNL     1      47.463  12.427  12.228  0.00  0.00    +0.000 S 
ATOM     25  C   UNL     1      45.953  11.786  11.772  0.00  0.00    +0.000 A 
ATOM     26  N   UNL     1      44.934  12.589  11.361  0.00  0.00    +0.000 NA
ATOM     27  C   UNL     1      43.844  11.961  11.065  0.00  0.00    +0.000 A 
ATOM     28  N   UNL     1      43.678  10.604  11.170  0.00  0.00    +0.000 N 
ATOM     29  C   UNL     1      44.663   9.762  11.617  0.00  0.00    +0.000 A 
ATOM     30  O   UNL     1      44.461   8.569  11.775  0.00  0.00    +0.000 OA
ATOM     31  C   UNL     1      45.924  10.408  11.892  0.00  0.00    +0.000 A 
ATOM     32  H   UNL     1      42.787  10.174  10.956  0.00  0.00    +0.000 HD
ENDBRANCH  19  22
ENDBRANCH  17  18
ENDBRANCH   1  17
TORSDOF 7
ENDMDL
MODEL 3
REMARK VINA RESULT:    -8.053      3.277      4.908
REMARK INTER + INTRA:         -11.883
REMARK INTER:                 -10.933
REMARK INTRA:                  -0.951
REMARK UNBOUND:                -0.535
REMARK  Name = 
REMARK  8 active torsions:
REMARK  status: ('A' for Active; 'I' for Inactive)
REMARK    1  A    between atoms: C_1  and  O_2
REMARK    2  A    between atoms: O_2  and  C_3
REMARK    3  A    between atoms: C_3  and  C_4
REMARK    4  A    between atoms: C_3  and  C_18
REMARK    5  A    between atoms: C_4  and  N_5
REMARK    6  A    between atoms: C_6  and  C_8
REMARK    7  A    between atoms: C_21  and  O_22
REMARK    8  A    between atoms: O_22  and  C_23
REMARK                            x       y       z     vdW  Elec       q    Type
REMARK                         _______ _______ _______ _____ _____    ______ ____
ROOT
ATOM      1  C   UNL     1      48.731   6.897  14.569  0.00  0.00    +0.000 C 
ENDROOT
BRANCH   1   2
ATOM      2  C   UNL     1      47.643   6.442  13.596  0.00  0.00    +0.000 A 
ATOM      3  C   UNL     1      47.008   5.203  13.803  0.00  0.00    +0.000 A 
ATOM      4  C   UNL     1      46.047   4.720  12.913  0.00  0.00    +0.000 A 
ATOM      5  C   UNL     1      45.635   5.504  11.837  0.00  0.00    +0.000 A 
ATOM      6  C   UNL     1      46.244   6.737  11.618  0.00  0.00    +0.000 A 
ATOM      7  C   UNL     1      47.229   7.208  12.496  0.00  0.00    +0.000 A 
BRANCH   5   8
ATOM      8  O   UNL     1      44.695   5.119  10.909  0.00  0.00    +0.000 OA
BRANCH   8   9
ATOM      9  C   UNL     1      45.017   4.189   9.946  0.00  0.00    +0.000 A 
ATOM     10  C   UNL     1      44.688   2.832  10.012  0.00  0.00    +0.000 A 
ATOM     11  C   UNL     1      45.086   1.964   8.994  0.00  0.00    +0.000 A 
ATOM     12  C   UNL     1      45.761   2.459   7.879  0.00  0.00    +0.000 A 
ATOM     13  C   UNL     1      46.033   3.823   7.778  0.00  0.00    +0.000 A 
ATOM     14  C   UNL     1      45.662   4.686   8.811  0.00  0.00    +0.000 A 
ENDBRANCH   8   9
ENDBRANCH   5   8
ENDBRANCH   1   2
BRANCH   1  16
ATOM     15  C   UNL     1      48.319   9.029  15.614  0.00  0.00    +0.000 C 
ATOM     16  O   UNL     1      48.801   8.336  14.474  0.00  0.00    +0.000 OA
ENDBRANCH   1  16
BRANCH   1  17
ATOM     17  C   UNL     1      48.540   6.458  16.043  0.00  0.00    +0.000 C 
BRANCH  17  18
ATOM     18  N   UNL     1      49.720   5.821  16.610  0.00  0.00    +0.000 N 
ATOM     19  C   UNL     1      49.625   4.726  17.438  0.00  0.00    +0.000 C 
ATOM     20  O   UNL     1      48.552   4.181  17.674  0.00  0.00    +0.000 OA
ATOM     21  H   UNL     1      50.594   6.332  16.540  0.00  0.00    +0.000 HD
BRANCH  19  22
ATOM     22  C   UNL     1      50.895   4.194  17.939  0.00  0.00    +0.000 A 
ATOM     23  C   UNL     1      51.743   5.000  18.681  0.00  0.00    +0.000 A 
ATOM     24  S   UNL     1      53.121   4.180  19.268  0.00  0.00    +0.000 S 
ATOM     25  C   UNL     1      52.656   2.732  18.503  0.00  0.00    +0.000 A 
ATOM     26  N   UNL     1      53.400   1.597  18.612  0.00  0.00    +0.000 NA
ATOM     27  C   UNL     1      52.929   0.585  17.962  0.00  0.00    +0.000 A 
ATOM     28  N   UNL     1      51.795   0.615  17.193  0.00  0.00    +0.000 N 
ATOM     29  C   UNL     1      51.038   1.746  17.022  0.00  0.00    +0.000 A 
ATOM     30  O   UNL     1      50.079   1.764  16.268  0.00  0.00    +0.000 OA
ATOM     31  C   UNL     1      51.482   2.886  17.785  0.00  0.00    +0.000 A 
ATOM     32  H   UNL     1      51.496  -0.203  16.677  0.00  0.00    +0.000 HD
ENDBRANCH  19  22
ENDBRANCH  17  18
ENDBRANCH   1  17
TORSDOF 7
ENDMDL
MODEL 4
REMARK VINA RESULT:    -7.910      1.723      2.431
REMARK INTER + INTRA:         -11.681
REMARK INTER:                 -11.229
REMARK INTRA:                  -0.452
REMARK UNBOUND:                -0.535
REMARK  Name = 
REMARK  8 active torsions:
REMARK  status: ('A' for Active; 'I' for Inactive)
REMARK    1  A    between atoms: C_1  and  O_2
REMARK    2  A    between atoms: O_2  and  C_3
REMARK    3  A    between atoms: C_3  and  C_4
REMARK    4  A    between atoms: C_3  and  C_18
REMARK    5  A    between atoms: C_4  and  N_5
REMARK    6  A    between atoms: C_6  and  C_8
REMARK    7  A    between atoms: C_21  and  O_22
REMARK    8  A    between atoms: O_22  and  C_23
REMARK                            x       y       z     vdW  Elec       q    Type
REMARK                         _______ _______ _______ _____ _____    ______ ____
ROOT
ATOM      1  C   UNL     1      45.955   5.617  13.289  0.00  0.00    +0.000 C 
ENDROOT
BRANCH   1   2
ATOM      2  C   UNL     1      45.657   5.164  11.859  0.00  0.00    +0.000 A 
ATOM      3  C   UNL     1      44.838   4.039  11.649  0.00  0.00    +0.000 A 
ATOM      4  C   UNL     1      44.580   3.555  10.365  0.00  0.00    +0.000 A 
ATOM      5  C   UNL     1      45.067   4.237   9.252  0.00  0.00    +0.000 A 
ATOM      6  C   UNL     1      45.873   5.357   9.436  0.00  0.00    +0.000 A 
ATOM      7  C   UNL     1      46.154   5.825  10.726  0.00  0.00    +0.000 A 
BRANCH   5   8
ATOM      8  O   UNL     1      44.865   3.842   7.949  0.00  0.00    +0.000 OA
BRANCH   8   9
ATOM      9  C   UNL     1      45.796   3.050   7.316  0.00  0.00    +0.000 A 
ATOM     10  C   UNL     1      46.453   3.391   6.129  0.00  0.00    +0.000 A 
ATOM     11  C   UNL     1      47.362   2.504   5.551  0.00  0.00    +0.000 A 
ATOM     12  C   UNL     1      47.662   1.300   6.187  0.00  0.00    +0.000 A 
ATOM     13  C   UNL     1      47.059   0.985   7.404  0.00  0.00    +0.000 A 
ATOM     14  C   UNL     1      46.126   1.859   7.967  0.00  0.00    +0.000 A 
ENDBRANCH   8   9
ENDBRANCH   5   8
ENDBRANCH   1   2
BRANCH   1  16
ATOM     15  C   UNL     1      46.961   3.540  13.981  0.00  0.00    +0.000 C 
ATOM     16  O   UNL     1      45.876   4.442  14.123  0.00  0.00    +0.000 OA
ENDBRANCH   1  16
BRANCH   1  17
ATOM     17  C   UNL     1      47.310   6.341  13.495  0.00  0.00    +0.000 C 
BRANCH  17  18
ATOM     18  N   UNL     1      47.660   6.515  14.897  0.00  0.00    +0.000 N 
ATOM     19  C   UNL     1      48.945   6.809  15.292  0.00  0.00    +0.000 C 
ATOM     20  O   UNL     1      49.842   7.020  14.483  0.00  0.00    +0.000 OA
ATOM     21  H   UNL     1      46.974   6.214  15.582  0.00  0.00    +0.000 HD
BRANCH  19  22
ATOM     22  C   UNL     1      49.151   6.952  16.737  0.00  0.00    +0.000 A 
ATOM     23  C   UNL     1      49.379   8.202  17.287  0.00  0.00    +0.000 A 
ATOM     24  S   UNL     1      49.487   8.186  18.991  0.00  0.00    +0.000 S 
ATOM     25  C   UNL     1      49.284   6.497  19.045  0.00  0.00    +0.000 A 
ATOM     26  N   UNL     1      49.262   5.819  20.226  0.00  0.00    +0.000 NA
ATOM     27  C   UNL     1      49.118   4.541  20.105  0.00  0.00    +0.000 A 
ATOM     28  N   UNL     1      49.022   3.880  18.909  0.00  0.00    +0.000 N 
ATOM     29  C   UNL     1      49.081   4.517  17.696  0.00  0.00    +0.000 A 
ATOM     30  O   UNL     1      49.073   3.894  16.647  0.00  0.00    +0.000 OA
ATOM     31  C   UNL     1      49.169   5.954  17.778  0.00  0.00    +0.000 A 
ATOM     32  H   UNL     1      48.947   2.870  18.879  0.00  0.00    +0.000 HD
ENDBRANCH  19  22
ENDBRANCH  17  18
ENDBRANCH   1  17
TORSDOF 7
ENDMDL
MODEL 5
REMARK VINA RESULT:    -7.788      1.533      2.145
REMARK INTER + INTRA:         -11.510
REMARK INTER:                 -10.954
REMARK INTRA:                  -0.556
REMARK UNBOUND:                -0.535
REMARK  Name = 
REMARK  8 active torsions:
REMARK  status: ('A' for Active; 'I' for Inactive)
REMARK    1  A    between atoms: C_1  and  O_2
REMARK    2  A    between atoms: O_2  and  C_3
REMARK    3  A    between atoms: C_3  and  C_4
REMARK    4  A    between atoms: C_3  and  C_18
REMARK    5  A    between atoms: C_4  and  N_5
REMARK    6  A    between atoms: C_6  and  C_8
REMARK    7  A    between atoms: C_21  and  O_22
REMARK    8  A    between atoms: O_22  and  C_23
REMARK                            x       y       z     vdW  Elec       q    Type
REMARK                         _______ _______ _______ _____ _____    ______ ____
ROOT
ATOM      1  C   UNL     1      45.211   4.815  12.990  0.00  0.00    +0.000 C 
ENDROOT
BRANCH   1   2
ATOM      2  C   UNL     1      45.310   4.599  11.479  0.00  0.00    +0.000 A 
ATOM      3  C   UNL     1      45.882   5.603  10.676  0.00  0.00    +0.000 A 
ATOM      4  C   UNL     1      45.947   5.476   9.287  0.00  0.00    +0.000 A 
ATOM      5  C   UNL     1      45.516   4.301   8.673  0.00  0.00    +0.000 A 
ATOM      6  C   UNL     1      44.955   3.292   9.450  0.00  0.00    +0.000 A 
ATOM      7  C   UNL     1      44.864   3.433  10.840  0.00  0.00    +0.000 A 
BRANCH   5   8
ATOM      8  O   UNL     1      45.542   4.079   7.315  0.00  0.00    +0.000 OA
BRANCH   8   9
ATOM      9  C   UNL     1      46.269   3.029   6.801  0.00  0.00    +0.000 A 
ATOM     10  C   UNL     1      46.614   1.878   7.516  0.00  0.00    +0.000 A 
ATOM     11  C   UNL     1      47.380   0.881   6.910  0.00  0.00    +0.000 A 
ATOM     12  C   UNL     1      47.753   1.003   5.572  0.00  0.00    +0.000 A 
ATOM     13  C   UNL     1      47.355   2.119   4.837  0.00  0.00    +0.000 A 
ATOM     14  C   UNL     1      46.615   3.132   5.452  0.00  0.00    +0.000 A 
ENDBRANCH   8   9
ENDBRANCH   5   8
ENDBRANCH   1   2
BRANCH   1  16
ATOM     15  C   UNL     1      42.813   4.999  13.121  0.00  0.00    +0.000 C 
ATOM     16  O   UNL     1      43.964   4.226  13.415  0.00  0.00    +0.000 OA
ENDBRANCH   1  16
BRANCH   1  17
ATOM     17  C   UNL     1      46.390   4.257  13.826  0.00  0.00    +0.000 C 
BRANCH  17  18
ATOM     18  N   UNL     1      47.025   5.262  14.666  0.00  0.00    +0.000 N 
ATOM     19  C   UNL     1      48.075   6.027  14.212  0.00  0.00    +0.000 C 
ATOM     20  O   UNL     1      48.475   5.961  13.054  0.00  0.00    +0.000 OA
ATOM     21  H   UNL     1      46.804   5.238  15.656  0.00  0.00    +0.000 HD
BRANCH  19  22
ATOM     22  C   UNL     1      48.618   6.995  15.169  0.00  0.00    +0.000 A 
ATOM     23  C   UNL     1      48.683   8.339  14.840  0.00  0.00    +0.000 A 
ATOM     24  S   UNL     1      49.241   9.327  16.116  0.00  0.00    +0.000 S 
ATOM     25  C   UNL     1      49.467   7.982  17.134  0.00  0.00    +0.000 A 
ATOM     26  N   UNL     1      49.921   8.122  18.410  0.00  0.00    +0.000 NA
ATOM     27  C   UNL     1      50.058   7.010  19.054  0.00  0.00    +0.000 A 
ATOM     28  N   UNL     1      49.806   5.771  18.526  0.00  0.00    +0.000 N 
ATOM     29  C   UNL     1      49.386   5.580  17.234  0.00  0.00    +0.000 A 
ATOM     30  O   UNL     1      49.247   4.461  16.767  0.00  0.00    +0.000 OA
ATOM     31  C   UNL     1      49.149   6.796  16.495  0.00  0.00    +0.000 A 
ATOM     32  H   UNL     1      49.967   4.933  19.070  0.00  0.00    +0.000 HD
ENDBRANCH  19  22
ENDBRANCH  17  18
ENDBRANCH   1  17
TORSDOF 7
ENDMDL
MODEL 6
REMARK VINA RESULT:    -7.573      4.720      9.349
REMARK INTER + INTRA:         -11.206
REMARK INTER:                 -10.154
REMARK INTRA:                  -1.052
REMARK UNBOUND:                -0.535
REMARK  Name = 
REMARK  8 active torsions:
REMARK  status: ('A' for Active; 'I' for Inactive)
REMARK    1  A    between atoms: C_1  and  O_2
REMARK    2  A    between atoms: O_2  and  C_3
REMARK    3  A    between atoms: C_3  and  C_4
REMARK    4  A    between atoms: C_3  and  C_18
REMARK    5  A    between atoms: C_4  and  N_5
REMARK    6  A    between atoms: C_6  and  C_8
REMARK    7  A    between atoms: C_21  and  O_22
REMARK    8  A    between atoms: O_22  and  C_23
REMARK                            x       y       z     vdW  Elec       q    Type
REMARK                         _______ _______ _______ _____ _____    ______ ____
ROOT
ATOM      1  C   UNL     1      48.305   3.898  16.728  0.00  0.00    +0.000 C 
ENDROOT
BRANCH   1   2
ATOM      2  C   UNL     1      49.680   3.388  17.160  0.00  0.00    +0.000 A 
ATOM      3  C   UNL     1      49.997   2.028  16.983  0.00  0.00    +0.000 A 
ATOM      4  C   UNL     1      51.220   1.504  17.410  0.00  0.00    +0.000 A 
ATOM      5  C   UNL     1      52.190   2.346  17.949  0.00  0.00    +0.000 A 
ATOM      6  C   UNL     1      51.900   3.697  18.125  0.00  0.00    +0.000 A 
ATOM      7  C   UNL     1      50.663   4.216  17.723  0.00  0.00    +0.000 A 
BRANCH   5   8
ATOM      8  O   UNL     1      53.422   1.927  18.394  0.00  0.00    +0.000 OA
BRANCH   8   9
ATOM      9  C   UNL     1      54.017   0.818  17.836  0.00  0.00    +0.000 A 
ATOM     10  C   UNL     1      54.676   0.808  16.602  0.00  0.00    +0.000 A 
ATOM     11  C   UNL     1      55.223  -0.378  16.110  0.00  0.00    +0.000 A 
ATOM     12  C   UNL     1      55.167  -1.542  16.875  0.00  0.00    +0.000 A 
ATOM     13  C   UNL     1      54.569  -1.521  18.134  0.00  0.00    +0.000 A 
ATOM     14  C   UNL     1      53.993  -0.342  18.613  0.00  0.00    +0.000 A 
ENDBRANCH   8   9
ENDBRANCH   5   8
ENDBRANCH   1   2
BRANCH   1  16
ATOM     15  C   UNL     1      47.338   5.173  18.529  0.00  0.00    +0.000 C 
ATOM     16  O   UNL     1      47.473   3.906  17.908  0.00  0.00    +0.000 OA
ENDBRANCH   1  16
BRANCH   1  17
ATOM     17  C   UNL     1      48.289   5.288  16.043  0.00  0.00    +0.000 C 
BRANCH  17  18
ATOM     18  N   UNL     1      47.223   5.432  15.062  0.00  0.00    +0.000 N 
ATOM     19  C   UNL     1      47.473   5.859  13.778  0.00  0.00    +0.000 C 
ATOM     20  O   UNL     1      48.611   6.060  13.369  0.00  0.00    +0.000 OA
ATOM     21  H   UNL     1      46.271   5.405  15.413  0.00  0.00    +0.000 HD
BRANCH  19  22
ATOM     22  C   UNL     1      46.302   5.963  12.902  0.00  0.00    +0.000 A 
ATOM     23  C   UNL     1      45.821   7.207  12.526  0.00  0.00    +0.000 A 
ATOM     24  S   UNL     1      44.522   7.129  11.421  0.00  0.00    +0.000 S 
ATOM     25  C   UNL     1      44.524   5.426  11.451  0.00  0.00    +0.000 A 
ATOM     26  N   UNL     1      43.652   4.700  10.699  0.00  0.00    +0.000 NA
ATOM     27  C   UNL     1      43.762   3.420  10.841  0.00  0.00    +0.000 A 
ATOM     28  N   UNL     1      44.649   2.806  11.686  0.00  0.00    +0.000 N 
ATOM     29  C   UNL     1      45.517   3.499  12.491  0.00  0.00    +0.000 A 
ATOM     30  O   UNL     1      46.240   2.928  13.291  0.00  0.00    +0.000 OA
ATOM     31  C   UNL     1      45.482   4.930  12.317  0.00  0.00    +0.000 A 
ATOM     32  H   UNL     1      44.663   1.798  11.780  0.00  0.00    +0.000 HD
ENDBRANCH  19  22
ENDBRANCH  17  18
ENDBRANCH   1  17
TORSDOF 7
ENDMDL
MODEL 7
REMARK VINA RESULT:    -7.509      2.909      3.759
REMARK INTER + INTRA:         -11.116
REMARK INTER:                 -10.264
REMARK INTRA:                  -0.852
REMARK UNBOUND:                -0.535
REMARK  Name = 
REMARK  8 active torsions:
REMARK  status: ('A' for Active; 'I' for Inactive)
REMARK    1  A    between atoms: C_1  and  O_2
REMARK    2  A    between atoms: O_2  and  C_3
REMARK    3  A    between atoms: C_3  and  C_4
REMARK    4  A    between atoms: C_3  and  C_18
REMARK    5  A    between atoms: C_4  and  N_5
REMARK    6  A    between atoms: C_6  and  C_8
REMARK    7  A    between atoms: C_21  and  O_22
REMARK    8  A    between atoms: O_22  and  C_23
REMARK                            x       y       z     vdW  Elec       q    Type
REMARK                         _______ _______ _______ _____ _____    ______ ____
ROOT
ATOM      1  C   UNL     1      46.364   5.445  13.935  0.00  0.00    +0.000 C 
ENDROOT
BRANCH   1   2
ATOM      2  C   UNL     1      45.902   4.981  12.553  0.00  0.00    +0.000 A 
ATOM      3  C   UNL     1      45.327   3.704  12.412  0.00  0.00    +0.000 A 
ATOM      4  C   UNL     1      44.938   3.214  11.163  0.00  0.00    +0.000 A 
ATOM      5  C   UNL     1      45.037   4.025  10.034  0.00  0.00    +0.000 A 
ATOM      6  C   UNL     1      45.595   5.295  10.153  0.00  0.00    +0.000 A 
ATOM      7  C   UNL     1      46.011   5.774  11.401  0.00  0.00    +0.000 A 
BRANCH   5   8
ATOM      8  O   UNL     1      44.679   3.635   8.764  0.00  0.00    +0.000 OA
BRANCH   8   9
ATOM      9  C   UNL     1      45.582   2.970   7.966  0.00  0.00    +0.000 A 
ATOM     10  C   UNL     1      46.221   3.528   6.854  0.00  0.00    +0.000 A 
ATOM     11  C   UNL     1      47.100   2.758   6.092  0.00  0.00    +0.000 A 
ATOM     12  C   UNL     1      47.391   1.449   6.472  0.00  0.00    +0.000 A 
ATOM     13  C   UNL     1      46.806   0.910   7.617  0.00  0.00    +0.000 A 
ATOM     14  C   UNL     1      45.902   1.669   8.362  0.00  0.00    +0.000 A 
ENDBRANCH   8   9
ENDBRANCH   5   8
ENDBRANCH   1   2
BRANCH   1  16
ATOM     15  C   UNL     1      47.349   4.196  15.744  0.00  0.00    +0.000 C 
ATOM     16  O   UNL     1      46.290   4.297  14.807  0.00  0.00    +0.000 OA
ENDBRANCH   1  16
BRANCH   1  17
ATOM     17  C   UNL     1      47.776   6.081  13.992  0.00  0.00    +0.000 C 
BRANCH  17  18
ATOM     18  N   UNL     1      47.802   7.358  14.691  0.00  0.00    +0.000 N 
ATOM     19  C   UNL     1      48.897   7.760  15.423  0.00  0.00    +0.000 C 
ATOM     20  O   UNL     1      49.933   7.106  15.455  0.00  0.00    +0.000 OA
ATOM     21  H   UNL     1      46.918   7.845  14.790  0.00  0.00    +0.000 HD
BRANCH  19  22
ATOM     22  C   UNL     1      48.779   9.066  16.077  0.00  0.00    +0.000 A 
ATOM     23  C   UNL     1      49.264  10.204  15.453  0.00  0.00    +0.000 A 
ATOM     24  S   UNL     1      48.942  11.643  16.315  0.00  0.00    +0.000 S 
ATOM     25  C   UNL     1      48.191  10.785  17.579  0.00  0.00    +0.000 A 
ATOM     26  N   UNL     1      47.660  11.424  18.657  0.00  0.00    +0.000 NA
ATOM     27  C   UNL     1      47.140  10.639  19.542  0.00  0.00    +0.000 A 
ATOM     28  N   UNL     1      47.127   9.272  19.454  0.00  0.00    +0.000 N 
ATOM     29  C   UNL     1      47.685   8.584  18.407  0.00  0.00    +0.000 A 
ATOM     30  O   UNL     1      47.728   7.365  18.394  0.00  0.00    +0.000 OA
ATOM     31  C   UNL     1      48.215   9.419  17.357  0.00  0.00    +0.000 A 
ATOM     32  H   UNL     1      46.735   8.708  20.198  0.00  0.00    +0.000 HD
ENDBRANCH  19  22
ENDBRANCH  17  18
ENDBRANCH   1  17
TORSDOF 7
ENDMDL
MODEL 8
REMARK VINA RESULT:    -7.435      4.474     10.669
REMARK INTER + INTRA:         -11.012
REMARK INTER:                  -9.928
REMARK INTRA:                  -1.084
REMARK UNBOUND:                -0.535
REMARK  Name = 
REMARK  8 active torsions:
REMARK  status: ('A' for Active; 'I' for Inactive)
REMARK    1  A    between atoms: C_1  and  O_2
REMARK    2  A    between atoms: O_2  and  C_3
REMARK    3  A    between atoms: C_3  and  C_4
REMARK    4  A    between atoms: C_3  and  C_18
REMARK    5  A    between atoms: C_4  and  N_5
REMARK    6  A    between atoms: C_6  and  C_8
REMARK    7  A    between atoms: C_21  and  O_22
REMARK    8  A    between atoms: O_22  and  C_23
REMARK                            x       y       z     vdW  Elec       q    Type
REMARK                         _______ _______ _______ _____ _____    ______ ____
ROOT
ATOM      1  C   UNL     1      48.883   4.080  17.228  0.00  0.00    +0.000 C 
ENDROOT
BRANCH   1   2
ATOM      2  C   UNL     1      48.853   5.232  18.234  0.00  0.00    +0.000 A 
ATOM      3  C   UNL     1      47.731   5.388  19.069  0.00  0.00    +0.000 A 
ATOM      4  C   UNL     1      47.633   6.453  19.966  0.00  0.00    +0.000 A 
ATOM      5  C   UNL     1      48.694   7.344  20.110  0.00  0.00    +0.000 A 
ATOM      6  C   UNL     1      49.817   7.204  19.299  0.00  0.00    +0.000 A 
ATOM      7  C   UNL     1      49.903   6.151  18.380  0.00  0.00    +0.000 A 
BRANCH   5   8
ATOM      8  O   UNL     1      48.694   8.422  20.966  0.00  0.00    +0.000 OA
BRANCH   8   9
ATOM      9  C   UNL     1      47.595   9.247  21.036  0.00  0.00    +0.000 A 
ATOM     10  C   UNL     1      46.756   9.359  22.149  0.00  0.00    +0.000 A 
ATOM     11  C   UNL     1      45.648  10.207  22.110  0.00  0.00    +0.000 A 
ATOM     12  C   UNL     1      45.408  10.989  20.981  0.00  0.00    +0.000 A 
ATOM     13  C   UNL     1      46.279  10.929  19.894  0.00  0.00    +0.000 A 
ATOM     14  C   UNL     1      47.370  10.058  19.921  0.00  0.00    +0.000 A 
ENDBRANCH   8   9
ENDBRANCH   5   8
ENDBRANCH   1   2
BRANCH   1  16
ATOM     15  C   UNL     1      50.254   2.108  17.034  0.00  0.00    +0.000 C 
ATOM     16  O   UNL     1      49.517   2.965  17.891  0.00  0.00    +0.000 OA
ENDBRANCH   1  16
BRANCH   1  17
ATOM     17  C   UNL     1      47.509   3.659  16.648  0.00  0.00    +0.000 C 
BRANCH  17  18
ATOM     18  N   UNL     1      46.963   4.627  15.708  0.00  0.00    +0.000 N 
ATOM     19  C   UNL     1      46.868   4.355  14.361  0.00  0.00    +0.000 C 
ATOM     20  O   UNL     1      47.160   3.258  13.898  0.00  0.00    +0.000 OA
ATOM     21  H   UNL     1      46.846   5.577  16.044  0.00  0.00    +0.000 HD
BRANCH  19  22
ATOM     22  C   UNL     1      46.303   5.425  13.534  0.00  0.00    +0.000 A 
ATOM     23  C   UNL     1      47.035   6.576  13.290  0.00  0.00    +0.000 A 
ATOM     24  S   UNL     1      46.261   7.660  12.221  0.00  0.00    +0.000 S 
ATOM     25  C   UNL     1      44.898   6.649  12.092  0.00  0.00    +0.000 A 
ATOM     26  N   UNL     1      43.839   6.978  11.302  0.00  0.00    +0.000 NA
ATOM     27  C   UNL     1      42.872   6.121  11.320  0.00  0.00    +0.000 A 
ATOM     28  N   UNL     1      42.860   4.980  12.078  0.00  0.00    +0.000 N 
ATOM     29  C   UNL     1      43.886   4.629  12.918  0.00  0.00    +0.000 A 
ATOM     30  O   UNL     1      43.813   3.648  13.640  0.00  0.00    +0.000 OA
ATOM     31  C   UNL     1      45.022   5.517  12.879  0.00  0.00    +0.000 A 
ATOM     32  H   UNL     1      42.056   4.365  12.077  0.00  0.00    +0.000 HD
ENDBRANCH  19  22
ENDBRANCH  17  18
ENDBRANCH   1  17
TORSDOF 7
ENDMDL
MODEL 9
REMARK VINA RESULT:    -7.332      4.038     10.867
REMARK INTER + INTRA:         -10.866
REMARK INTER:                  -9.617
REMARK INTRA:                  -1.249
REMARK UNBOUND:                -0.535
REMARK  Name = 
REMARK  8 active torsions:
REMARK  status: ('A' for Active; 'I' for Inactive)
REMARK    1  A    between atoms: C_1  and  O_2
REMARK    2  A    between atoms: O_2  and  C_3
REMARK    3  A    between atoms: C_3  and  C_4
REMARK    4  A    between atoms: C_3  and  C_18
REMARK    5  A    between atoms: C_4  and  N_5
REMARK    6  A    between atoms: C_6  and  C_8
REMARK    7  A    between atoms: C_21  and  O_22
REMARK    8  A    between atoms: O_22  and  C_23
REMARK                            x       y       z     vdW  Elec       q    Type
REMARK                         _______ _______ _______ _____ _____    ______ ____
ROOT
ATOM      1  C   UNL     1      48.487   5.382  17.274  0.00  0.00    +0.000 C 
ENDROOT
BRANCH   1   2
ATOM      2  C   UNL     1      48.361   6.511  18.298  0.00  0.00    +0.000 A 
ATOM      3  C   UNL     1      47.602   6.302  19.465  0.00  0.00    +0.000 A 
ATOM      4  C   UNL     1      47.415   7.319  20.403  0.00  0.00    +0.000 A 
ATOM      5  C   UNL     1      48.053   8.547  20.239  0.00  0.00    +0.000 A 
ATOM      6  C   UNL     1      48.815   8.772  19.096  0.00  0.00    +0.000 A 
ATOM      7  C   UNL     1      48.980   7.760  18.142  0.00  0.00    +0.000 A 
BRANCH   5   8
ATOM      8  O   UNL     1      47.933   9.607  21.107  0.00  0.00    +0.000 OA
BRANCH   8   9
ATOM      9  C   UNL     1      46.736  10.279  21.215  0.00  0.00    +0.000 A 
ATOM     10  C   UNL     1      45.845  10.147  22.284  0.00  0.00    +0.000 A 
ATOM     11  C   UNL     1      44.642  10.854  22.284  0.00  0.00    +0.000 A 
ATOM     12  C   UNL     1      44.352  11.739  21.247  0.00  0.00    +0.000 A 
ATOM     13  C   UNL     1      45.267  11.923  20.212  0.00  0.00    +0.000 A 
ATOM     14  C   UNL     1      46.457  11.193  20.195  0.00  0.00    +0.000 A 
ENDBRANCH   8   9
ENDBRANCH   5   8
ENDBRANCH   1   2
BRANCH   1  16
ATOM     15  C   UNL     1      47.418   3.227  17.421  0.00  0.00    +0.000 C 
ATOM     16  O   UNL     1      47.254   4.633  17.327  0.00  0.00    +0.000 OA
ENDBRANCH   1  16
BRANCH   1  17
ATOM     17  C   UNL     1      48.793   5.824  15.821  0.00  0.00    +0.000 C 
BRANCH  17  18
ATOM     18  N   UNL     1      47.623   5.799  14.955  0.00  0.00    +0.000 N 
ATOM     19  C   UNL     1      47.713   6.071  13.609  0.00  0.00    +0.000 C 
ATOM     20  O   UNL     1      48.789   6.268  13.056  0.00  0.00    +0.000 OA
ATOM     21  H   UNL     1      46.717   5.774  15.410  0.00  0.00    +0.000 HD
BRANCH  19  22
ATOM     22  C   UNL     1      46.453   6.014  12.863  0.00  0.00    +0.000 A 
ATOM     23  C   UNL     1      45.884   7.175  12.365  0.00  0.00    +0.000 A 
ATOM     24  S   UNL     1      44.480   6.900  11.434  0.00  0.00    +0.000 S 
ATOM     25  C   UNL     1      44.555   5.222  11.710  0.00  0.00    +0.000 A 
ATOM     26  N   UNL     1      43.640   4.370  11.174  0.00  0.00    +0.000 NA
ATOM     27  C   UNL     1      43.817   3.129  11.486  0.00  0.00    +0.000 A 
ATOM     28  N   UNL     1      44.813   2.670  12.309  0.00  0.00    +0.000 N 
ATOM     29  C   UNL     1      45.731   3.497  12.903  0.00  0.00    +0.000 A 
ATOM     30  O   UNL     1      46.557   3.070  13.693  0.00  0.00    +0.000 OA
ATOM     31  C   UNL     1      45.620   4.885  12.528  0.00  0.00    +0.000 A 
ATOM     32  H   UNL     1      44.878   1.688  12.546  0.00  0.00    +0.000 HD
ENDBRANCH  19  22
ENDBRANCH  17  18
ENDBRANCH   1  17
TORSDOF 7
ENDMDL
