MODEL 1
REMARK VINA RESULT:    -8.379      0.000      0.000
REMARK INTER + INTRA:         -10.564
REMARK INTER:                 -10.829
REMARK INTRA:                   0.264
REMARK UNBOUND:                 0.264
REMARK  Name = 
REMARK  5 active torsions:
REMARK  status: ('A' for Active; 'I' for Inactive)
REMARK    1  A    between atoms: C_2  and  C_4
REMARK    2  A    between atoms: C_8  and  C_9
REMARK    3  A    between atoms: C_9  and  O_10
REMARK    4  A    between atoms: O_10  and  C_11
REMARK    5  A    between atoms: C_16  and  C_17
REMARK                            x       y       z     vdW  Elec       q    Type
REMARK                         _______ _______ _______ _____ _____    ______ ____
ROOT
ATOM      1  C   UNL     1      45.004   4.938  11.809  0.00  0.00    +0.000 A 
ATOM      2  C   UNL     1      45.373   3.931  12.694  0.00  0.00    +0.000 A 
ATOM      3  F   UNL     1      44.733   2.750  12.680  0.00  0.00    +0.000 F 
ATOM      4  C   UNL     1      46.393   4.127  13.616  0.00  0.00    +0.000 A 
ATOM      5  C   UNL     1      47.053   5.359  13.674  0.00  0.00    +0.000 A 
ATOM      6  C   UNL     1      46.706   6.405  12.804  0.00  0.00    +0.000 A 
ATOM      7  C   UNL     1      45.718   6.140  11.841  0.00  0.00    +0.000 A 
ATOM      8  F   UNL     1      45.473   7.076  10.910  0.00  0.00    +0.000 F 
ENDROOT
BRANCH   6   9
ATOM      9  C   UNL     1      47.366   7.784  12.818  0.00  0.00    +0.000 C 
ATOM     10  C   UNL     1      48.427   8.043  11.730  0.00  0.00    +0.000 C 
ATOM     11  C   UNL     1      49.759   7.350  12.035  0.00  0.00    +0.000 C 
ATOM     12  N   UNL     1      50.290   7.713  13.347  0.00  0.00    +0.000 NA
ATOM     13  C   UNL     1      49.329   7.429  14.412  0.00  0.00    +0.000 C 
ATOM     14  C   UNL     1      48.001   8.148  14.182  0.00  0.00    +0.000 C 
ATOM     15  H   UNL     1      50.518   8.707  13.356  0.00  0.00    +0.000 HD
ENDBRANCH   6   9
BRANCH   1  16
ATOM     16  O   UNL     1      43.960   4.668  10.963  0.00  0.00    +0.000 OA
BRANCH  16  17
ATOM     17  C   UNL     1      43.968   3.348  10.418  0.00  0.00    +0.000 C 
BRANCH  17  22
ATOM     18  C   UNL     1      46.404   2.103   7.783  0.00  0.00    +0.000 A 
ATOM     19  C   UNL     1      46.751   3.324   7.225  0.00  0.00    +0.000 A 
ATOM     20  N   UNL     1      46.222   4.511   7.616  0.00  0.00    +0.000 NA
ATOM     21  C   UNL     1      45.315   4.469   8.618  0.00  0.00    +0.000 A 
ATOM     22  C   UNL     1      44.921   3.299   9.262  0.00  0.00    +0.000 A 
ATOM     23  C   UNL     1      45.487   2.094   8.833  0.00  0.00    +0.000 A 
BRANCH  18  25
ATOM     24  N   UNL     1      47.786   0.990   6.125  0.00  0.00    +0.000 N 
ATOM     25  C   UNL     1      47.031   0.872   7.260  0.00  0.00    +0.000 C 
ATOM     26  O   UNL     1      46.909  -0.202   7.832  0.00  0.00    +0.000 OA
ATOM     27  H   UNL     1      48.307   0.165   5.851  0.00  0.00    +0.000 HD
ATOM     28  H   UNL     1      48.120   1.881   5.786  0.00  0.00    +0.000 HD
ENDBRANCH  18  25
ENDBRANCH  17  22
ENDBRANCH  16  17
ENDBRANCH   1  16
TORSDOF 5
ENDMDL
MODEL 2
REMARK VINA RESULT:    -7.762      1.896      2.451
REMARK INTER + INTRA:          -9.766
REMARK INTER:                  -9.020
REMARK INTRA:                  -0.746
REMARK UNBOUND:                 0.264
REMARK  Name = 
REMARK  5 active torsions:
REMARK  status: ('A' for Active; 'I' for Inactive)
REMARK    1  A    between atoms: C_2  and  C_4
REMARK    2  A    between atoms: C_8  and  C_9
REMARK    3  A    between atoms: C_9  and  O_10
REMARK    4  A    between atoms: O_10  and  C_11
REMARK    5  A    between atoms: C_16  and  C_17
REMARK                            x       y       z     vdW  Elec       q    Type
REMARK                         _______ _______ _______ _____ _____    ______ ____
ROOT
ATOM      1  C   UNL     1      45.319   6.251  12.707  0.00  0.00    +0.000 A 
ATOM      2  C   UNL     1      45.985   5.225  13.371  0.00  0.00    +0.000 A 
ATOM      3  F   UNL     1      45.298   4.186  13.872  0.00  0.00    +0.000 F 
ATOM      4  C   UNL     1      47.363   5.260  13.541  0.00  0.00    +0.000 A 
ATOM      5  C   UNL     1      48.097   6.348  13.058  0.00  0.00    +0.000 A 
ATOM      6  C   UNL     1      47.463   7.408  12.390  0.00  0.00    +0.000 A 
ATOM      7  C   UNL     1      46.078   7.297  12.177  0.00  0.00    +0.000 A 
ATOM      8  F   UNL     1      45.478   8.228  11.417  0.00  0.00    +0.000 F 
ENDROOT
BRANCH   6   9
ATOM      9  C   UNL     1      48.192   8.639  11.850  0.00  0.00    +0.000 C 
ATOM     10  C   UNL     1      49.709   8.487  11.625  0.00  0.00    +0.000 C 
ATOM     11  C   UNL     1      50.503   8.533  12.935  0.00  0.00    +0.000 C 
ATOM     12  N   UNL     1      50.231   9.740  13.712  0.00  0.00    +0.000 NA
ATOM     13  C   UNL     1      48.803   9.888  13.992  0.00  0.00    +0.000 C 
ATOM     14  C   UNL     1      47.975   9.908  12.709  0.00  0.00    +0.000 C 
ATOM     15  H   UNL     1      50.558  10.555  13.193  0.00  0.00    +0.000 HD
ENDBRANCH   6   9
BRANCH   1  16
ATOM     16  O   UNL     1      43.954   6.150  12.622  0.00  0.00    +0.000 OA
BRANCH  16  17
ATOM     17  C   UNL     1      43.450   6.067  11.288  0.00  0.00    +0.000 C 
BRANCH  17  22
ATOM     18  C   UNL     1      45.069   3.485   9.019  0.00  0.00    +0.000 A 
ATOM     19  C   UNL     1      44.500   2.343   9.564  0.00  0.00    +0.000 A 
ATOM     20  N   UNL     1      43.665   2.351  10.633  0.00  0.00    +0.000 NA
ATOM     21  C   UNL     1      43.381   3.558  11.171  0.00  0.00    +0.000 A 
ATOM     22  C   UNL     1      43.877   4.763  10.682  0.00  0.00    +0.000 A 
ATOM     23  C   UNL     1      44.734   4.718   9.578  0.00  0.00    +0.000 A 
BRANCH  18  25
ATOM     24  N   UNL     1      46.548   2.123   7.658  0.00  0.00    +0.000 N 
ATOM     25  C   UNL     1      45.982   3.351   7.867  0.00  0.00    +0.000 C 
ATOM     26  O   UNL     1      46.199   4.287   7.109  0.00  0.00    +0.000 OA
ATOM     27  H   UNL     1      47.071   2.016   6.797  0.00  0.00    +0.000 HD
ATOM     28  H   UNL     1      46.194   1.283   8.091  0.00  0.00    +0.000 HD
ENDBRANCH  18  25
ENDBRANCH  17  22
ENDBRANCH  16  17
ENDBRANCH   1  16
TORSDOF 5
ENDMDL
MODEL 3
REMARK VINA RESULT:    -7.724      4.023      7.690
REMARK INTER + INTRA:          -9.717
REMARK INTER:                  -8.979
REMARK INTRA:                  -0.737
REMARK UNBOUND:                 0.264
REMARK  Name = 
REMARK  5 active torsions:
REMARK  status: ('A' for Active; 'I' for Inactive)
REMARK    1  A    between atoms: C_2  and  C_4
REMARK    2  A    between atoms: C_8  and  C_9
REMARK    3  A    between atoms: C_9  and  O_10
REMARK    4  A    between atoms: O_10  and  C_11
REMARK    5  A    between atoms: C_16  and  C_17
REMARK                            x       y       z     vdW  Elec       q    Type
REMARK                         _______ _______ _______ _____ _____    ______ ____
ROOT
ATOM      1  C   UNL     1      47.845   6.539  13.901  0.00  0.00    +0.000 A 
ATOM      2  C   UNL     1      47.602   7.693  13.163  0.00  0.00    +0.000 A 
ATOM      3  F   UNL     1      48.476   8.711  13.191  0.00  0.00    +0.000 F 
ATOM      4  C   UNL     1      46.450   7.822  12.397  0.00  0.00    +0.000 A 
ATOM      5  C   UNL     1      45.507   6.790  12.377  0.00  0.00    +0.000 A 
ATOM      6  C   UNL     1      45.710   5.611  13.113  0.00  0.00    +0.000 A 
ATOM      7  C   UNL     1      46.921   5.493  13.817  0.00  0.00    +0.000 A 
ATOM      8  F   UNL     1      47.197   4.321  14.409  0.00  0.00    +0.000 F 
ENDROOT
BRANCH   6   9
ATOM      9  C   UNL     1      44.720   4.447  13.157  0.00  0.00    +0.000 C 
ATOM     10  C   UNL     1      45.016   3.265  12.214  0.00  0.00    +0.000 C 
ATOM     11  C   UNL     1      44.660   3.575  10.757  0.00  0.00    +0.000 C 
ATOM     12  N   UNL     1      43.272   4.004  10.600  0.00  0.00    +0.000 NA
ATOM     13  C   UNL     1      42.969   5.161  11.440  0.00  0.00    +0.000 C 
ATOM     14  C   UNL     1      43.252   4.879  12.914  0.00  0.00    +0.000 C 
ATOM     15  H   UNL     1      42.651   3.235  10.850  0.00  0.00    +0.000 HD
ENDBRANCH   6   9
BRANCH   1  16
ATOM     16  O   UNL     1      48.988   6.517  14.658  0.00  0.00    +0.000 OA
BRANCH  16  17
ATOM     17  C   UNL     1      48.815   6.973  16.001  0.00  0.00    +0.000 C 
BRANCH  17  22
ATOM     18  C   UNL     1      49.448   3.512  17.434  0.00  0.00    +0.000 A 
ATOM     19  C   UNL     1      48.771   3.657  18.636  0.00  0.00    +0.000 A 
ATOM     20  N   UNL     1      48.163   4.805  19.027  0.00  0.00    +0.000 NA
ATOM     21  C   UNL     1      48.227   5.847  18.169  0.00  0.00    +0.000 A 
ATOM     22  C   UNL     1      48.857   5.795  16.929  0.00  0.00    +0.000 A 
ATOM     23  C   UNL     1      49.473   4.597  16.558  0.00  0.00    +0.000 A 
BRANCH  18  25
ATOM     24  N   UNL     1      51.046   1.773  17.999  0.00  0.00    +0.000 N 
ATOM     25  C   UNL     1      50.092   2.220  17.125  0.00  0.00    +0.000 C 
ATOM     26  O   UNL     1      49.767   1.559  16.149  0.00  0.00    +0.000 OA
ATOM     27  H   UNL     1      51.387   0.833  17.840  0.00  0.00    +0.000 HD
ATOM     28  H   UNL     1      51.147   2.150  18.930  0.00  0.00    +0.000 HD
ENDBRANCH  18  25
ENDBRANCH  17  22
ENDBRANCH  16  17
ENDBRANCH   1  16
TORSDOF 5
ENDMDL
MODEL 4
REMARK VINA RESULT:    -7.657      3.704      7.809
REMARK INTER + INTRA:          -9.631
REMARK INTER:                  -9.002
REMARK INTRA:                  -0.629
REMARK UNBOUND:                 0.264
REMARK  Name = 
REMARK  5 active torsions:
REMARK  status: ('A' for Active; 'I' for Inactive)
REMARK    1  A    between atoms: C_2  and  C_4
REMARK    2  A    between atoms: C_8  and  C_9
REMARK    3  A    between atoms: C_9  and  O_10
REMARK    4  A    between atoms: O_10  and  C_11
REMARK    5  A    between atoms: C_16  and  C_17
REMARK                            x       y       z     vdW  Elec       q    Type
REMARK                         _______ _______ _______ _____ _____    ______ ____
ROOT
ATOM      1  C   UNL     1      47.822   6.778  13.340  0.00  0.00    +0.000 A 
ATOM      2  C   UNL     1      47.382   7.932  12.698  0.00  0.00    +0.000 A 
ATOM      3  F   UNL     1      48.196   8.993  12.582  0.00  0.00    +0.000 F 
ATOM      4  C   UNL     1      46.096   8.016  12.180  0.00  0.00    +0.000 A 
ATOM      5  C   UNL     1      45.217   6.936  12.317  0.00  0.00    +0.000 A 
ATOM      6  C   UNL     1      45.619   5.757  12.964  0.00  0.00    +0.000 A 
ATOM      7  C   UNL     1      46.950   5.688  13.410  0.00  0.00    +0.000 A 
ATOM      8  F   UNL     1      47.393   4.520  13.902  0.00  0.00    +0.000 F 
ENDROOT
BRANCH   6   9
ATOM      9  C   UNL     1      44.712   4.542  13.171  0.00  0.00    +0.000 C 
ATOM     10  C   UNL     1      45.047   3.293  12.333  0.00  0.00    +0.000 C 
ATOM     11  C   UNL     1      44.608   3.432  10.872  0.00  0.00    +0.000 C 
ATOM     12  N   UNL     1      43.189   3.754  10.743  0.00  0.00    +0.000 NA
ATOM     13  C   UNL     1      42.844   4.968  11.482  0.00  0.00    +0.000 C 
ATOM     14  C   UNL     1      43.210   4.853  12.960  0.00  0.00    +0.000 C 
ATOM     15  H   UNL     1      42.633   2.976  11.098  0.00  0.00    +0.000 HD
ENDBRANCH   6   9
BRANCH   1  16
ATOM     16  O   UNL     1      49.092   6.801  13.854  0.00  0.00    +0.000 OA
BRANCH  16  17
ATOM     17  C   UNL     1      49.189   7.365  15.163  0.00  0.00    +0.000 C 
BRANCH  17  22
ATOM     18  C   UNL     1      48.870   4.438  17.563  0.00  0.00    +0.000 A 
ATOM     19  C   UNL     1      50.177   4.406  18.029  0.00  0.00    +0.000 A 
ATOM     20  N   UNL     1      51.155   5.238  17.591  0.00  0.00    +0.000 NA
ATOM     21  C   UNL     1      50.804   6.147  16.654  0.00  0.00    +0.000 A 
ATOM     22  C   UNL     1      49.515   6.278  16.144  0.00  0.00    +0.000 A 
ATOM     23  C   UNL     1      48.531   5.405  16.618  0.00  0.00    +0.000 A 
BRANCH  18  25
ATOM     24  N   UNL     1      48.157   2.932  19.330  0.00  0.00    +0.000 N 
ATOM     25  C   UNL     1      47.895   3.467  18.098  0.00  0.00    +0.000 C 
ATOM     26  O   UNL     1      46.878   3.175  17.485  0.00  0.00    +0.000 OA
ATOM     27  H   UNL     1      47.422   2.366  19.734  0.00  0.00    +0.000 HD
ATOM     28  H   UNL     1      48.829   3.339  19.965  0.00  0.00    +0.000 HD
ENDBRANCH  18  25
ENDBRANCH  17  22
ENDBRANCH  16  17
ENDBRANCH   1  16
TORSDOF 5
ENDMDL
MODEL 5
REMARK VINA RESULT:    -7.579      3.273      4.959
REMARK INTER + INTRA:          -9.530
REMARK INTER:                  -8.775
REMARK INTRA:                  -0.755
REMARK UNBOUND:                 0.264
REMARK  Name = 
REMARK  5 active torsions:
REMARK  status: ('A' for Active; 'I' for Inactive)
REMARK    1  A    between atoms: C_2  and  C_4
REMARK    2  A    between atoms: C_8  and  C_9
REMARK    3  A    between atoms: C_9  and  O_10
REMARK    4  A    between atoms: O_10  and  C_11
REMARK    5  A    between atoms: C_16  and  C_17
REMARK                            x       y       z     vdW  Elec       q    Type
REMARK                         _______ _______ _______ _____ _____    ______ ____
ROOT
ATOM      1  C   UNL     1      47.936   6.317  13.502  0.00  0.00    +0.000 A 
ATOM      2  C   UNL     1      48.911   7.220  13.912  0.00  0.00    +0.000 A 
ATOM      3  F   UNL     1      49.423   8.104  13.040  0.00  0.00    +0.000 F 
ATOM      4  C   UNL     1      49.386   7.218  15.217  0.00  0.00    +0.000 A 
ATOM      5  C   UNL     1      48.893   6.285  16.136  0.00  0.00    +0.000 A 
ATOM      6  C   UNL     1      47.913   5.351  15.762  0.00  0.00    +0.000 A 
ATOM      7  C   UNL     1      47.411   5.435  14.452  0.00  0.00    +0.000 A 
ATOM      8  F   UNL     1      46.377   4.648  14.119  0.00  0.00    +0.000 F 
ENDROOT
BRANCH   6   9
ATOM      9  C   UNL     1      47.339   4.290  16.701  0.00  0.00    +0.000 C 
ATOM     10  C   UNL     1      47.296   4.656  18.197  0.00  0.00    +0.000 C 
ATOM     11  C   UNL     1      48.674   4.568  18.862  0.00  0.00    +0.000 C 
ATOM     12  N   UNL     1      49.296   3.257  18.686  0.00  0.00    +0.000 NA
ATOM     13  C   UNL     1      49.405   2.900  17.272  0.00  0.00    +0.000 C 
ATOM     14  C   UNL     1      48.044   2.916  16.579  0.00  0.00    +0.000 C 
ATOM     15  H   UNL     1      48.740   2.552  19.169  0.00  0.00    +0.000 HD
ENDBRANCH   6   9
BRANCH   1  16
ATOM     16  O   UNL     1      47.558   6.367  12.185  0.00  0.00    +0.000 OA
BRANCH  16  17
ATOM     17  C   UNL     1      46.356   7.099  11.943  0.00  0.00    +0.000 C 
BRANCH  17  22
ATOM     18  C   UNL     1      44.461   4.327  10.167  0.00  0.00    +0.000 A 
ATOM     19  C   UNL     1      43.210   4.534  10.730  0.00  0.00    +0.000 A 
ATOM     20  N   UNL     1      42.952   5.479  11.669  0.00  0.00    +0.000 NA
ATOM     21  C   UNL     1      43.991   6.256  12.049  0.00  0.00    +0.000 A 
ATOM     22  C   UNL     1      45.276   6.146  11.524  0.00  0.00    +0.000 A 
ATOM     23  C   UNL     1      45.507   5.162  10.559  0.00  0.00    +0.000 A 
BRANCH  18  25
ATOM     24  N   UNL     1      44.667   1.966   9.636  0.00  0.00    +0.000 N 
ATOM     25  C   UNL     1      44.628   3.251   9.169  0.00  0.00    +0.000 C 
ATOM     26  O   UNL     1      44.696   3.493   7.972  0.00  0.00    +0.000 OA
ATOM     27  H   UNL     1      44.658   1.238   8.933  0.00  0.00    +0.000 HD
ATOM     28  H   UNL     1      44.355   1.717  10.563  0.00  0.00    +0.000 HD
ENDBRANCH  18  25
ENDBRANCH  17  22
ENDBRANCH  16  17
ENDBRANCH   1  16
TORSDOF 5
ENDMDL
MODEL 6
REMARK VINA RESULT:    -7.460      2.372      7.140
REMARK INTER + INTRA:          -9.377
REMARK INTER:                  -9.411
REMARK INTRA:                   0.034
REMARK UNBOUND:                 0.264
REMARK  Name = 
REMARK  5 active torsions:
REMARK  status: ('A' for Active; 'I' for Inactive)
REMARK    1  A    between atoms: C_2  and  C_4
REMARK    2  A    between atoms: C_8  and  C_9
REMARK    3  A    between atoms: C_9  and  O_10
REMARK    4  A    between atoms: O_10  and  C_11
REMARK    5  A    between atoms: C_16  and  C_17
REMARK                            x       y       z     vdW  Elec       q    Type
REMARK                         _______ _______ _______ _____ _____    ______ ____
ROOT
ATOM      1  C   UNL     1      44.923   4.218   9.650  0.00  0.00    +0.000 A 
ATOM      2  C   UNL     1      44.201   3.062   9.932  0.00  0.00    +0.000 A 
ATOM      3  F   UNL     1      43.249   3.074  10.879  0.00  0.00    +0.000 F 
ATOM      4  C   UNL     1      44.456   1.877   9.255  0.00  0.00    +0.000 A 
ATOM      5  C   UNL     1      45.465   1.829   8.288  0.00  0.00    +0.000 A 
ATOM      6  C   UNL     1      46.223   2.971   7.978  0.00  0.00    +0.000 A 
ATOM      7  C   UNL     1      45.883   4.166   8.635  0.00  0.00    +0.000 A 
ATOM      8  F   UNL     1      46.498   5.296   8.252  0.00  0.00    +0.000 F 
ENDROOT
BRANCH   6   9
ATOM      9  C   UNL     1      47.353   2.995   6.949  0.00  0.00    +0.000 C 
ATOM     10  C   UNL     1      46.949   3.341   5.502  0.00  0.00    +0.000 C 
ATOM     11  C   UNL     1      46.262   2.171   4.791  0.00  0.00    +0.000 C 
ATOM     12  N   UNL     1      47.071   0.954   4.806  0.00  0.00    +0.000 NA
ATOM     13  C   UNL     1      47.428   0.564   6.169  0.00  0.00    +0.000 C 
ATOM     14  C   UNL     1      48.170   1.680   6.901  0.00  0.00    +0.000 C 
ATOM     15  H   UNL     1      47.923   1.109   4.267  0.00  0.00    +0.000 HD
ENDBRANCH   6   9
BRANCH   1  16
ATOM     16  O   UNL     1      44.629   5.330  10.396  0.00  0.00    +0.000 OA
BRANCH  16  17
ATOM     17  C   UNL     1      45.770   6.088  10.801  0.00  0.00    +0.000 C 
BRANCH  17  22
ATOM     18  C   UNL     1      47.572   5.867  14.138  0.00  0.00    +0.000 A 
ATOM     19  C   UNL     1      46.909   4.766  14.661  0.00  0.00    +0.000 A 
ATOM     20  N   UNL     1      45.898   4.122  14.026  0.00  0.00    +0.000 NA
ATOM     21  C   UNL     1      45.546   4.595  12.810  0.00  0.00    +0.000 A 
ATOM     22  C   UNL     1      46.168   5.674  12.186  0.00  0.00    +0.000 A 
ATOM     23  C   UNL     1      47.206   6.315  12.869  0.00  0.00    +0.000 A 
BRANCH  18  25
ATOM     24  N   UNL     1      48.432   6.632  16.276  0.00  0.00    +0.000 N 
ATOM     25  C   UNL     1      48.644   6.501  14.931  0.00  0.00    +0.000 C 
ATOM     26  O   UNL     1      49.693   6.865  14.416  0.00  0.00    +0.000 OA
ATOM     27  H   UNL     1      49.222   6.954  16.820  0.00  0.00    +0.000 HD
ATOM     28  H   UNL     1      47.714   6.117  16.764  0.00  0.00    +0.000 HD
ENDBRANCH  18  25
ENDBRANCH  17  22
ENDBRANCH  16  17
ENDBRANCH   1  16
TORSDOF 5
ENDMDL
MODEL 7
REMARK VINA RESULT:    -7.333      2.651      7.407
REMARK INTER + INTRA:          -9.212
REMARK INTER:                  -8.736
REMARK INTRA:                  -0.475
REMARK UNBOUND:                 0.264
REMARK  Name = 
REMARK  5 active torsions:
REMARK  status: ('A' for Active; 'I' for Inactive)
REMARK    1  A    between atoms: C_2  and  C_4
REMARK    2  A    between atoms: C_8  and  C_9
REMARK    3  A    between atoms: C_9  and  O_10
REMARK    4  A    between atoms: O_10  and  C_11
REMARK    5  A    between atoms: C_16  and  C_17
REMARK                            x       y       z     vdW  Elec       q    Type
REMARK                         _______ _______ _______ _____ _____    ______ ____
ROOT
ATOM      1  C   UNL     1      44.924   4.264   9.753  0.00  0.00    +0.000 A 
ATOM      2  C   UNL     1      44.174   3.119  10.003  0.00  0.00    +0.000 A 
ATOM      3  F   UNL     1      43.222   3.127  10.950  0.00  0.00    +0.000 F 
ATOM      4  C   UNL     1      44.402   1.946   9.295  0.00  0.00    +0.000 A 
ATOM      5  C   UNL     1      45.411   1.901   8.327  0.00  0.00    +0.000 A 
ATOM      6  C   UNL     1      46.195   3.033   8.049  0.00  0.00    +0.000 A 
ATOM      7  C   UNL     1      45.883   4.217   8.737  0.00  0.00    +0.000 A 
ATOM      8  F   UNL     1      46.524   5.342   8.384  0.00  0.00    +0.000 F 
ENDROOT
BRANCH   6   9
ATOM      9  C   UNL     1      47.326   3.058   7.020  0.00  0.00    +0.000 C 
ATOM     10  C   UNL     1      46.923   3.398   5.572  0.00  0.00    +0.000 C 
ATOM     11  C   UNL     1      46.241   2.224   4.863  0.00  0.00    +0.000 C 
ATOM     12  N   UNL     1      47.054   1.010   4.883  0.00  0.00    +0.000 NA
ATOM     13  C   UNL     1      47.411   0.625   6.248  0.00  0.00    +0.000 C 
ATOM     14  C   UNL     1      48.148   1.746   6.977  0.00  0.00    +0.000 C 
ATOM     15  H   UNL     1      47.906   1.166   4.345  0.00  0.00    +0.000 HD
ENDBRANCH   6   9
BRANCH   1  16
ATOM     16  O   UNL     1      44.655   5.362  10.528  0.00  0.00    +0.000 OA
BRANCH  16  17
ATOM     17  C   UNL     1      45.348   5.388  11.777  0.00  0.00    +0.000 C 
BRANCH  17  22
ATOM     18  C   UNL     1      45.514   9.177  11.979  0.00  0.00    +0.000 A 
ATOM     19  C   UNL     1      46.808   9.305  12.464  0.00  0.00    +0.000 A 
ATOM     20  N   UNL     1      47.609   8.251  12.764  0.00  0.00    +0.000 NA
ATOM     21  C   UNL     1      47.092   7.019  12.559  0.00  0.00    +0.000 A 
ATOM     22  C   UNL     1      45.817   6.786  12.050  0.00  0.00    +0.000 A 
ATOM     23  C   UNL     1      45.019   7.894  11.751  0.00  0.00    +0.000 A 
BRANCH  18  25
ATOM     24  N   UNL     1      43.444  10.431  12.182  0.00  0.00    +0.000 N 
ATOM     25  C   UNL     1      44.727  10.397  11.708  0.00  0.00    +0.000 C 
ATOM     26  O   UNL     1      45.209  11.352  11.115  0.00  0.00    +0.000 OA
ATOM     27  H   UNL     1      42.962  11.317  12.096  0.00  0.00    +0.000 HD
ATOM     28  H   UNL     1      43.110   9.790  12.887  0.00  0.00    +0.000 HD
ENDBRANCH  18  25
ENDBRANCH  17  22
ENDBRANCH  16  17
ENDBRANCH   1  16
TORSDOF 5
ENDMDL
MODEL 8
REMARK VINA RESULT:    -7.165      3.671      7.362
REMARK INTER + INTRA:          -8.995
REMARK INTER:                  -8.172
REMARK INTRA:                  -0.823
REMARK UNBOUND:                 0.264
REMARK  Name = 
REMARK  5 active torsions:
REMARK  status: ('A' for Active; 'I' for Inactive)
REMARK    1  A    between atoms: C_2  and  C_4
REMARK    2  A    between atoms: C_8  and  C_9
REMARK    3  A    between atoms: C_9  and  O_10
REMARK    4  A    between atoms: O_10  and  C_11
REMARK    5  A    between atoms: C_16  and  C_17
REMARK                            x       y       z     vdW  Elec       q    Type
REMARK                         _______ _______ _______ _____ _____    ______ ____
ROOT
ATOM      1  C   UNL     1      47.168   6.908  12.269  0.00  0.00    +0.000 A 
ATOM      2  C   UNL     1      47.611   6.105  13.315  0.00  0.00    +0.000 A 
ATOM      3  F   UNL     1      48.724   6.430  13.993  0.00  0.00    +0.000 F 
ATOM      4  C   UNL     1      46.927   4.950  13.670  0.00  0.00    +0.000 A 
ATOM      5  C   UNL     1      45.784   4.571  12.958  0.00  0.00    +0.000 A 
ATOM      6  C   UNL     1      45.307   5.349  11.891  0.00  0.00    +0.000 A 
ATOM      7  C   UNL     1      45.988   6.546  11.613  0.00  0.00    +0.000 A 
ATOM      8  F   UNL     1      45.466   7.373  10.693  0.00  0.00    +0.000 F 
ENDROOT
BRANCH   6   9
ATOM      9  C   UNL     1      44.077   4.993  11.054  0.00  0.00    +0.000 C 
ATOM     10  C   UNL     1      43.010   4.124  11.746  0.00  0.00    +0.000 C 
ATOM     11  C   UNL     1      43.427   2.653  11.846  0.00  0.00    +0.000 C 
ATOM     12  N   UNL     1      43.772   2.081  10.547  0.00  0.00    +0.000 NA
ATOM     13  C   UNL     1      44.823   2.850   9.882  0.00  0.00    +0.000 C 
ATOM     14  C   UNL     1      44.427   4.314   9.707  0.00  0.00    +0.000 C 
ATOM     15  H   UNL     1      42.942   2.065   9.954  0.00  0.00    +0.000 HD
ENDBRANCH   6   9
BRANCH   1  16
ATOM     16  O   UNL     1      47.930   8.007  11.965  0.00  0.00    +0.000 OA
BRANCH  16  17
ATOM     17  C   UNL     1      47.683   9.144  12.794  0.00  0.00    +0.000 C 
BRANCH  17  22
ATOM     18  C   UNL     1      44.944  11.223  11.177  0.00  0.00    +0.000 A 
ATOM     19  C   UNL     1      45.741  12.048  10.397  0.00  0.00    +0.000 A 
ATOM     20  N   UNL     1      47.097  12.002  10.391  0.00  0.00    +0.000 NA
ATOM     21  C   UNL     1      47.676  11.081  11.193  0.00  0.00    +0.000 A 
ATOM     22  C   UNL     1      46.966  10.189  11.991  0.00  0.00    +0.000 A 
ATOM     23  C   UNL     1      45.570  10.264  11.974  0.00  0.00    +0.000 A 
BRANCH  18  25
ATOM     24  N   UNL     1      42.922  11.602   9.888  0.00  0.00    +0.000 N 
ATOM     25  C   UNL     1      43.477  11.379  11.118  0.00  0.00    +0.000 C 
ATOM     26  O   UNL     1      42.781  11.280  12.120  0.00  0.00    +0.000 OA
ATOM     27  H   UNL     1      41.910  11.584   9.848  0.00  0.00    +0.000 HD
ATOM     28  H   UNL     1      43.422  11.429   9.028  0.00  0.00    +0.000 HD
ENDBRANCH  18  25
ENDBRANCH  17  22
ENDBRANCH  16  17
ENDBRANCH   1  16
TORSDOF 5
ENDMDL
MODEL 9
REMARK VINA RESULT:    -6.882      1.690      2.873
REMARK INTER + INTRA:          -8.629
REMARK INTER:                  -8.313
REMARK INTRA:                  -0.317
REMARK UNBOUND:                 0.264
REMARK  Name = 
REMARK  5 active torsions:
REMARK  status: ('A' for Active; 'I' for Inactive)
REMARK    1  A    between atoms: C_2  and  C_4
REMARK    2  A    between atoms: C_8  and  C_9
REMARK    3  A    between atoms: C_9  and  O_10
REMARK    4  A    between atoms: O_10  and  C_11
REMARK    5  A    between atoms: C_16  and  C_17
REMARK                            x       y       z     vdW  Elec       q    Type
REMARK                         _______ _______ _______ _____ _____    ______ ____
ROOT
ATOM      1  C   UNL     1      45.429   6.469  12.010  0.00  0.00    +0.000 A 
ATOM      2  C   UNL     1      44.981   7.766  11.776  0.00  0.00    +0.000 A 
ATOM      3  F   UNL     1      43.698   7.990  11.449  0.00  0.00    +0.000 F 
ATOM      4  C   UNL     1      45.848   8.848  11.860  0.00  0.00    +0.000 A 
ATOM      5  C   UNL     1      47.197   8.639  12.166  0.00  0.00    +0.000 A 
ATOM      6  C   UNL     1      47.691   7.345  12.402  0.00  0.00    +0.000 A 
ATOM      7  C   UNL     1      46.766   6.288  12.377  0.00  0.00    +0.000 A 
ATOM      8  F   UNL     1      47.189   5.067  12.739  0.00  0.00    +0.000 F 
ENDROOT
BRANCH   6   9
ATOM      9  C   UNL     1      49.153   7.033  12.723  0.00  0.00    +0.000 C 
ATOM     10  C   UNL     1      49.627   7.381  14.148  0.00  0.00    +0.000 C 
ATOM     11  C   UNL     1      49.856   8.883  14.338  0.00  0.00    +0.000 C 
ATOM     12  N   UNL     1      50.785   9.436  13.354  0.00  0.00    +0.000 NA
ATOM     13  C   UNL     1      50.338   9.173  11.987  0.00  0.00    +0.000 C 
ATOM     14  C   UNL     1      50.152   7.678  11.731  0.00  0.00    +0.000 C 
ATOM     15  H   UNL     1      51.707   9.023  13.492  0.00  0.00    +0.000 HD
ENDBRANCH   6   9
BRANCH   1  16
ATOM     16  O   UNL     1      44.512   5.461  11.865  0.00  0.00    +0.000 OA
BRANCH  16  17
ATOM     17  C   UNL     1      43.967   5.343  10.549  0.00  0.00    +0.000 C 
BRANCH  17  22
ATOM     18  C   UNL     1      45.887   2.982   8.275  0.00  0.00    +0.000 A 
ATOM     19  C   UNL     1      45.334   1.783   8.703  0.00  0.00    +0.000 A 
ATOM     20  N   UNL     1      44.418   1.688   9.699  0.00  0.00    +0.000 NA
ATOM     21  C   UNL     1      44.032   2.845  10.281  0.00  0.00    +0.000 A 
ATOM     22  C   UNL     1      44.505   4.099   9.906  0.00  0.00    +0.000 A 
ATOM     23  C   UNL     1      45.448   4.161   8.876  0.00  0.00    +0.000 A 
BRANCH  18  25
ATOM     24  N   UNL     1      46.937   4.044   6.360  0.00  0.00    +0.000 N 
ATOM     25  C   UNL     1      46.894   2.961   7.195  0.00  0.00    +0.000 C 
ATOM     26  O   UNL     1      47.680   2.032   7.070  0.00  0.00    +0.000 OA
ATOM     27  H   UNL     1      47.710   4.070   5.706  0.00  0.00    +0.000 HD
ATOM     28  H   UNL     1      46.496   4.923   6.590  0.00  0.00    +0.000 HD
ENDBRANCH  18  25
ENDBRANCH  17  22
ENDBRANCH  16  17
ENDBRANCH   1  16
TORSDOF 5
ENDMDL
