MODEL 1
REMARK VINA RESULT:    -7.228      0.000      0.000
REMARK INTER + INTRA:          -8.519
REMARK INTER:                  -8.073
REMARK INTRA:                  -0.447
REMARK UNBOUND:                -0.447
REMARK  Name = 
REMARK  2 active torsions:
REMARK  status: ('A' for Active; 'I' for Inactive)
REMARK    1  A    between atoms: N_6  and  C_7
REMARK    2  A    between atoms: C_7  and  C_8
REMARK                            x       y       z     vdW  Elec       q    Type
REMARK                         _______ _______ _______ _____ _____    ______ ____
ROOT
ATOM      1  C   UNL     1      44.360   4.460  11.387  0.00  0.00    +0.000 C 
ATOM      2  C   UNL     1      43.617   5.782  11.398  0.00  0.00    +0.000 C 
ATOM      3  C   UNL     1      42.841   4.515  11.530  0.00  0.00    +0.000 C 
ENDROOT
BRANCH   1   9
ATOM      4  F   UNL     1      49.066   6.521  15.396  0.00  0.00    +0.000 F 
ATOM      5  C   UNL     1      48.097   5.949  14.672  0.00  0.00    +0.000 A 
ATOM      6  C   UNL     1      47.822   6.389  13.392  0.00  0.00    +0.000 A 
ATOM      7  C   UNL     1      46.808   5.765  12.660  0.00  0.00    +0.000 A 
ATOM      8  C   UNL     1      46.096   4.714  13.237  0.00  0.00    +0.000 A 
ATOM      9  N   UNL     1      45.104   4.005  12.564  0.00  0.00    +0.000 N 
ATOM     10  N   UNL     1      46.360   4.285  14.490  0.00  0.00    +0.000 NA
ATOM     11  C   UNL     1      47.348   4.908  15.183  0.00  0.00    +0.000 A 
ATOM     12  H   UNL     1      44.683   3.347  13.212  0.00  0.00    +0.000 HD
ENDBRANCH   1   9
BRANCH   1  13
ATOM     13  C   UNL     1      44.862   3.909  10.052  0.00  0.00    +0.000 A 
ATOM     14  C   UNL     1      45.413   4.766   9.075  0.00  0.00    +0.000 A 
ATOM     15  C   UNL     1      46.034   4.261   7.927  0.00  0.00    +0.000 A 
ATOM     16  C   UNL     1      46.095   2.889   7.731  0.00  0.00    +0.000 A 
ATOM     17  F   UNL     1      46.743   2.401   6.665  0.00  0.00    +0.000 F 
ATOM     18  C   UNL     1      45.506   2.028   8.646  0.00  0.00    +0.000 A 
ATOM     19  F   UNL     1      45.562   0.702   8.461  0.00  0.00    +0.000 F 
ATOM     20  C   UNL     1      44.886   2.528   9.787  0.00  0.00    +0.000 A 
ENDBRANCH   1  13
TORSDOF 2
ENDMDL
MODEL 2
REMARK VINA RESULT:    -6.547      1.764      6.361
REMARK INTER + INTRA:          -7.759
REMARK INTER:                  -7.381
REMARK INTRA:                  -0.378
REMARK UNBOUND:                -0.447
REMARK  Name = 
REMARK  2 active torsions:
REMARK  status: ('A' for Active; 'I' for Inactive)
REMARK    1  A    between atoms: N_6  and  C_7
REMARK    2  A    between atoms: C_7  and  C_8
REMARK                            x       y       z     vdW  Elec       q    Type
REMARK                         _______ _______ _______ _____ _____    ______ ____
ROOT
ATOM      1  C   UNL     1      44.567   5.095  10.864  0.00  0.00    +0.000 C 
ATOM      2  C   UNL     1      43.256   4.341  10.977  0.00  0.00    +0.000 C 
ATOM      3  C   UNL     1      43.230   5.831  10.909  0.00  0.00    +0.000 C 
ENDROOT
BRANCH   1   9
ATOM      4  F   UNL     1      46.803   1.098   6.229  0.00  0.00    +0.000 F 
ATOM      5  C   UNL     1      46.414   2.051   7.083  0.00  0.00    +0.000 A 
ATOM      6  C   UNL     1      46.092   1.737   8.389  0.00  0.00    +0.000 A 
ATOM      7  C   UNL     1      45.695   2.758   9.257  0.00  0.00    +0.000 A 
ATOM      8  C   UNL     1      45.632   4.069   8.788  0.00  0.00    +0.000 A 
ATOM      9  N   UNL     1      45.294   5.153   9.594  0.00  0.00    +0.000 N 
ATOM     10  N   UNL     1      45.942   4.378   7.510  0.00  0.00    +0.000 NA
ATOM     11  C   UNL     1      46.323   3.369   6.684  0.00  0.00    +0.000 A 
ATOM     12  H   UNL     1      45.242   5.983   9.013  0.00  0.00    +0.000 HD
ENDBRANCH   1   9
BRANCH   1  13
ATOM     13  C   UNL     1      45.433   5.255  12.115  0.00  0.00    +0.000 A 
ATOM     14  C   UNL     1      45.625   4.179  13.007  0.00  0.00    +0.000 A 
ATOM     15  C   UNL     1      46.550   4.255  14.054  0.00  0.00    +0.000 A 
ATOM     16  C   UNL     1      47.282   5.419  14.236  0.00  0.00    +0.000 A 
ATOM     17  F   UNL     1      48.212   5.472  15.199  0.00  0.00    +0.000 F 
ATOM     18  C   UNL     1      47.067   6.512  13.410  0.00  0.00    +0.000 A 
ATOM     19  F   UNL     1      47.771   7.639  13.581  0.00  0.00    +0.000 F 
ATOM     20  C   UNL     1      46.147   6.440  12.369  0.00  0.00    +0.000 A 
ENDBRANCH   1  13
TORSDOF 2
ENDMDL
MODEL 3
REMARK VINA RESULT:    -6.321      1.957      2.521
REMARK INTER + INTRA:          -7.507
REMARK INTER:                  -8.101
REMARK INTRA:                   0.595
REMARK UNBOUND:                -0.447
REMARK  Name = 
REMARK  2 active torsions:
REMARK  status: ('A' for Active; 'I' for Inactive)
REMARK    1  A    between atoms: N_6  and  C_7
REMARK    2  A    between atoms: C_7  and  C_8
REMARK                            x       y       z     vdW  Elec       q    Type
REMARK                         _______ _______ _______ _____ _____    ______ ____
ROOT
ATOM      1  C   UNL     1      44.136   3.849  10.948  0.00  0.00    +0.000 C 
ATOM      2  C   UNL     1      43.297   2.793  11.644  0.00  0.00    +0.000 C 
ATOM      3  C   UNL     1      44.633   3.144  12.208  0.00  0.00    +0.000 C 
ENDROOT
BRANCH   1   9
ATOM      4  F   UNL     1      46.866   9.360  13.099  0.00  0.00    +0.000 F 
ATOM      5  C   UNL     1      46.163   8.328  12.618  0.00  0.00    +0.000 A 
ATOM      6  C   UNL     1      46.506   7.031  12.943  0.00  0.00    +0.000 A 
ATOM      7  C   UNL     1      45.745   5.976  12.430  0.00  0.00    +0.000 A 
ATOM      8  C   UNL     1      44.659   6.256  11.602  0.00  0.00    +0.000 A 
ATOM      9  N   UNL     1      43.819   5.272  11.086  0.00  0.00    +0.000 N 
ATOM     10  N   UNL     1      44.325   7.524  11.279  0.00  0.00    +0.000 NA
ATOM     11  C   UNL     1      45.079   8.532  11.788  0.00  0.00    +0.000 A 
ATOM     12  H   UNL     1      43.157   5.712  10.456  0.00  0.00    +0.000 HD
ENDBRANCH   1   9
BRANCH   1  13
ATOM     13  C   UNL     1      44.876   3.471   9.664  0.00  0.00    +0.000 A 
ATOM     14  C   UNL     1      45.409   4.464   8.815  0.00  0.00    +0.000 A 
ATOM     15  C   UNL     1      46.237   4.135   7.736  0.00  0.00    +0.000 A 
ATOM     16  C   UNL     1      46.526   2.802   7.479  0.00  0.00    +0.000 A 
ATOM     17  F   UNL     1      47.368   2.489   6.485  0.00  0.00    +0.000 F 
ATOM     18  C   UNL     1      45.965   1.805   8.262  0.00  0.00    +0.000 A 
ATOM     19  F   UNL     1      46.242   0.516   8.018  0.00  0.00    +0.000 F 
ATOM     20  C   UNL     1      45.141   2.129   9.334  0.00  0.00    +0.000 A 
ENDBRANCH   1  13
TORSDOF 2
ENDMDL
MODEL 4
REMARK VINA RESULT:    -6.017      1.546      2.251
REMARK INTER + INTRA:          -7.167
REMARK INTER:                  -7.499
REMARK INTRA:                   0.332
REMARK UNBOUND:                -0.447
REMARK  Name = 
REMARK  2 active torsions:
REMARK  status: ('A' for Active; 'I' for Inactive)
REMARK    1  A    between atoms: N_6  and  C_7
REMARK    2  A    between atoms: C_7  and  C_8
REMARK                            x       y       z     vdW  Elec       q    Type
REMARK                         _______ _______ _______ _____ _____    ______ ____
ROOT
ATOM      1  C   UNL     1      43.857   5.447  11.637  0.00  0.00    +0.000 C 
ATOM      2  C   UNL     1      42.345   5.448  11.761  0.00  0.00    +0.000 C 
ATOM      3  C   UNL     1      43.154   4.712  12.776  0.00  0.00    +0.000 C 
ENDROOT
BRANCH   1   9
ATOM      4  F   UNL     1      49.480   6.930  14.576  0.00  0.00    +0.000 F 
ATOM      5  C   UNL     1      48.302   6.802  13.955  0.00  0.00    +0.000 A 
ATOM      6  C   UNL     1      47.579   5.629  14.053  0.00  0.00    +0.000 A 
ATOM      7  C   UNL     1      46.348   5.531  13.397  0.00  0.00    +0.000 A 
ATOM      8  C   UNL     1      45.878   6.616  12.659  0.00  0.00    +0.000 A 
ATOM      9  N   UNL     1      44.643   6.623  12.015  0.00  0.00    +0.000 N 
ATOM     10  N   UNL     1      46.586   7.762  12.558  0.00  0.00    +0.000 NA
ATOM     11  C   UNL     1      47.779   7.833  13.202  0.00  0.00    +0.000 A 
ATOM     12  H   UNL     1      44.561   7.485  11.485  0.00  0.00    +0.000 HD
ENDBRANCH   1   9
BRANCH   1  13
ATOM     13  C   UNL     1      44.508   4.541  10.591  0.00  0.00    +0.000 A 
ATOM     14  C   UNL     1      44.122   3.190  10.461  0.00  0.00    +0.000 A 
ATOM     15  C   UNL     1      44.578   2.399   9.400  0.00  0.00    +0.000 A 
ATOM     16  C   UNL     1      45.444   2.946   8.464  0.00  0.00    +0.000 A 
ATOM     17  F   UNL     1      45.832   2.210   7.414  0.00  0.00    +0.000 F 
ATOM     18  C   UNL     1      45.886   4.253   8.604  0.00  0.00    +0.000 A 
ATOM     19  F   UNL     1      46.723   4.786   7.703  0.00  0.00    +0.000 F 
ATOM     20  C   UNL     1      45.436   5.040   9.659  0.00  0.00    +0.000 A 
ENDBRANCH   1  13
TORSDOF 2
ENDMDL
MODEL 5
REMARK VINA RESULT:    -5.677      3.679      6.588
REMARK INTER + INTRA:          -6.787
REMARK INTER:                  -6.420
REMARK INTRA:                  -0.367
REMARK UNBOUND:                -0.447
REMARK  Name = 
REMARK  2 active torsions:
REMARK  status: ('A' for Active; 'I' for Inactive)
REMARK    1  A    between atoms: N_6  and  C_7
REMARK    2  A    between atoms: C_7  and  C_8
REMARK                            x       y       z     vdW  Elec       q    Type
REMARK                         _______ _______ _______ _____ _____    ______ ____
ROOT
ATOM      1  C   UNL     1      47.214   7.328  13.170  0.00  0.00    +0.000 C 
ATOM      2  C   UNL     1      48.629   6.872  12.867  0.00  0.00    +0.000 C 
ATOM      3  C   UNL     1      48.304   7.358  14.239  0.00  0.00    +0.000 C 
ENDROOT
BRANCH   1   9
ATOM      4  F   UNL     1      43.843   2.877   9.811  0.00  0.00    +0.000 F 
ATOM      5  C   UNL     1      44.435   3.744  10.640  0.00  0.00    +0.000 A 
ATOM      6  C   UNL     1      45.146   4.819  10.145  0.00  0.00    +0.000 A 
ATOM      7  C   UNL     1      45.746   5.709  11.039  0.00  0.00    +0.000 A 
ATOM      8  C   UNL     1      45.615   5.494  12.410  0.00  0.00    +0.000 A 
ATOM      9  N   UNL     1      46.137   6.356  13.372  0.00  0.00    +0.000 N 
ATOM     10  N   UNL     1      44.923   4.441  12.897  0.00  0.00    +0.000 NA
ATOM     11  C   UNL     1      44.351   3.588  12.009  0.00  0.00    +0.000 A 
ATOM     12  H   UNL     1      45.981   5.949  14.288  0.00  0.00    +0.000 HD
ENDBRANCH   1   9
BRANCH   1  13
ATOM     13  C   UNL     1      46.762   8.701  12.672  0.00  0.00    +0.000 A 
ATOM     14  C   UNL     1      47.687   9.612  12.118  0.00  0.00    +0.000 A 
ATOM     15  C   UNL     1      47.265  10.795  11.499  0.00  0.00    +0.000 A 
ATOM     16  C   UNL     1      45.911  11.092  11.446  0.00  0.00    +0.000 A 
ATOM     17  F   UNL     1      45.501  12.193  10.801  0.00  0.00    +0.000 F 
ATOM     18  C   UNL     1      44.988  10.243  12.038  0.00  0.00    +0.000 A 
ATOM     19  F   UNL     1      43.679  10.527  11.989  0.00  0.00    +0.000 F 
ATOM     20  C   UNL     1      45.404   9.068  12.654  0.00  0.00    +0.000 A 
ENDBRANCH   1  13
TORSDOF 2
ENDMDL
MODEL 6
REMARK VINA RESULT:    -5.597      3.266      6.321
REMARK INTER + INTRA:          -6.698
REMARK INTER:                  -6.306
REMARK INTRA:                  -0.393
REMARK UNBOUND:                -0.447
REMARK  Name = 
REMARK  2 active torsions:
REMARK  status: ('A' for Active; 'I' for Inactive)
REMARK    1  A    between atoms: N_6  and  C_7
REMARK    2  A    between atoms: C_7  and  C_8
REMARK                            x       y       z     vdW  Elec       q    Type
REMARK                         _______ _______ _______ _____ _____    ______ ____
ROOT
ATOM      1  C   UNL     1      45.344   5.529  12.291  0.00  0.00    +0.000 C 
ATOM      2  C   UNL     1      46.672   5.083  12.872  0.00  0.00    +0.000 C 
ATOM      3  C   UNL     1      45.455   5.047  13.735  0.00  0.00    +0.000 C 
ENDROOT
BRANCH   1   9
ATOM      4  F   UNL     1      45.808   3.064   6.277  0.00  0.00    +0.000 F 
ATOM      5  C   UNL     1      45.557   3.483   7.523  0.00  0.00    +0.000 A 
ATOM      6  C   UNL     1      46.202   4.591   8.036  0.00  0.00    +0.000 A 
ATOM      7  C   UNL     1      45.912   5.006   9.338  0.00  0.00    +0.000 A 
ATOM      8  C   UNL     1      44.979   4.294  10.091  0.00  0.00    +0.000 A 
ATOM      9  N   UNL     1      44.593   4.665  11.377  0.00  0.00    +0.000 N 
ATOM     10  N   UNL     1      44.349   3.208   9.593  0.00  0.00    +0.000 NA
ATOM     11  C   UNL     1      44.650   2.822   8.326  0.00  0.00    +0.000 A 
ATOM     12  H   UNL     1      43.968   3.954  11.743  0.00  0.00    +0.000 HD
ENDBRANCH   1   9
BRANCH   1  13
ATOM     13  C   UNL     1      45.077   7.027  12.131  0.00  0.00    +0.000 A 
ATOM     14  C   UNL     1      45.980   7.983  12.645  0.00  0.00    +0.000 A 
ATOM     15  C   UNL     1      45.843   9.345  12.355  0.00  0.00    +0.000 A 
ATOM     16  C   UNL     1      44.787   9.772  11.562  0.00  0.00    +0.000 A 
ATOM     17  F   UNL     1      44.690  11.067  11.233  0.00  0.00    +0.000 F 
ATOM     18  C   UNL     1      43.853   8.859  11.097  0.00  0.00    +0.000 A 
ATOM     19  F   UNL     1      42.832   9.267  10.331  0.00  0.00    +0.000 F 
ATOM     20  C   UNL     1      43.985   7.505  11.385  0.00  0.00    +0.000 A 
ENDBRANCH   1  13
TORSDOF 2
ENDMDL
MODEL 7
REMARK VINA RESULT:    -5.482      2.921      4.326
REMARK INTER + INTRA:          -6.570
REMARK INTER:                  -6.535
REMARK INTRA:                  -0.035
REMARK UNBOUND:                -0.447
REMARK  Name = 
REMARK  2 active torsions:
REMARK  status: ('A' for Active; 'I' for Inactive)
REMARK    1  A    between atoms: N_6  and  C_7
REMARK    2  A    between atoms: C_7  and  C_8
REMARK                            x       y       z     vdW  Elec       q    Type
REMARK                         _______ _______ _______ _____ _____    ______ ____
ROOT
ATOM      1  C   UNL     1      47.227   7.111  12.737  0.00  0.00    +0.000 C 
ATOM      2  C   UNL     1      48.384   7.355  11.787  0.00  0.00    +0.000 C 
ATOM      3  C   UNL     1      47.493   8.495  12.149  0.00  0.00    +0.000 C 
ENDROOT
BRANCH   1   9
ATOM      4  F   UNL     1      48.224   2.438  17.167  0.00  0.00    +0.000 F 
ATOM      5  C   UNL     1      48.031   3.512  16.394  0.00  0.00    +0.000 A 
ATOM      6  C   UNL     1      47.457   3.386  15.144  0.00  0.00    +0.000 A 
ATOM      7  C   UNL     1      47.263   4.530  14.365  0.00  0.00    +0.000 A 
ATOM      8  C   UNL     1      47.653   5.772  14.863  0.00  0.00    +0.000 A 
ATOM      9  N   UNL     1      47.453   6.967  14.177  0.00  0.00    +0.000 N 
ATOM     10  N   UNL     1      48.218   5.897  16.084  0.00  0.00    +0.000 NA
ATOM     11  C   UNL     1      48.399   4.772  16.822  0.00  0.00    +0.000 A 
ATOM     12  H   UNL     1      47.887   7.718  14.704  0.00  0.00    +0.000 HD
ENDBRANCH   1   9
BRANCH   1  13
ATOM     13  C   UNL     1      45.973   6.416  12.205  0.00  0.00    +0.000 A 
ATOM     14  C   UNL     1      45.972   5.790  10.940  0.00  0.00    +0.000 A 
ATOM     15  C   UNL     1      44.896   5.002  10.516  0.00  0.00    +0.000 A 
ATOM     16  C   UNL     1      43.795   4.846  11.346  0.00  0.00    +0.000 A 
ATOM     17  F   UNL     1      42.792   4.043  10.969  0.00  0.00    +0.000 F 
ATOM     18  C   UNL     1      43.746   5.501  12.568  0.00  0.00    +0.000 A 
ATOM     19  F   UNL     1      42.685   5.354  13.373  0.00  0.00    +0.000 F 
ATOM     20  C   UNL     1      44.814   6.286  12.991  0.00  0.00    +0.000 A 
ENDBRANCH   1  13
TORSDOF 2
ENDMDL
MODEL 8
REMARK VINA RESULT:    -5.430      2.958      3.667
REMARK INTER + INTRA:          -6.512
REMARK INTER:                  -6.888
REMARK INTRA:                   0.376
REMARK UNBOUND:                -0.447
REMARK  Name = 
REMARK  2 active torsions:
REMARK  status: ('A' for Active; 'I' for Inactive)
REMARK    1  A    between atoms: N_6  and  C_7
REMARK    2  A    between atoms: C_7  and  C_8
REMARK                            x       y       z     vdW  Elec       q    Type
REMARK                         _______ _______ _______ _____ _____    ______ ____
ROOT
ATOM      1  C   UNL     1      45.726   5.614  12.746  0.00  0.00    +0.000 C 
ATOM      2  C   UNL     1      45.937   4.670  13.915  0.00  0.00    +0.000 C 
ATOM      3  C   UNL     1      47.126   5.295  13.267  0.00  0.00    +0.000 C 
ENDROOT
BRANCH   1   9
ATOM      4  F   UNL     1      47.543  11.749  11.515  0.00  0.00    +0.000 F 
ATOM      5  C   UNL     1      47.026  10.561  11.846  0.00  0.00    +0.000 A 
ATOM      6  C   UNL     1      47.824   9.434  11.889  0.00  0.00    +0.000 A 
ATOM      7  C   UNL     1      47.253   8.209  12.246  0.00  0.00    +0.000 A 
ATOM      8  C   UNL     1      45.894   8.150  12.550  0.00  0.00    +0.000 A 
ATOM      9  N   UNL     1      45.254   6.983  12.961  0.00  0.00    +0.000 N 
ATOM     10  N   UNL     1      45.111   9.250  12.505  0.00  0.00    +0.000 NA
ATOM     11  C   UNL     1      45.687  10.428  12.153  0.00  0.00    +0.000 A 
ATOM     12  H   UNL     1      44.261   7.174  13.047  0.00  0.00    +0.000 HD
ENDBRANCH   1   9
BRANCH   1  13
ATOM     13  C   UNL     1      45.400   5.024  11.374  0.00  0.00    +0.000 A 
ATOM     14  C   UNL     1      45.841   5.654  10.190  0.00  0.00    +0.000 A 
ATOM     15  C   UNL     1      45.705   5.038   8.941  0.00  0.00    +0.000 A 
ATOM     16  C   UNL     1      45.105   3.789   8.857  0.00  0.00    +0.000 A 
ATOM     17  F   UNL     1      45.029   3.171   7.671  0.00  0.00    +0.000 F 
ATOM     18  C   UNL     1      44.608   3.178   9.998  0.00  0.00    +0.000 A 
ATOM     19  F   UNL     1      44.028   1.972   9.922  0.00  0.00    +0.000 F 
ATOM     20  C   UNL     1      44.741   3.789  11.241  0.00  0.00    +0.000 A 
ENDBRANCH   1  13
TORSDOF 2
ENDMDL
MODEL 9
REMARK VINA RESULT:    -5.212      2.373      3.287
REMARK INTER + INTRA:          -6.269
REMARK INTER:                  -5.920
REMARK INTRA:                  -0.349
REMARK UNBOUND:                -0.447
REMARK  Name = 
REMARK  2 active torsions:
REMARK  status: ('A' for Active; 'I' for Inactive)
REMARK    1  A    between atoms: N_6  and  C_7
REMARK    2  A    between atoms: C_7  and  C_8
REMARK                            x       y       z     vdW  Elec       q    Type
REMARK                         _______ _______ _______ _____ _____    ______ ____
ROOT
ATOM      1  C   UNL     1      45.708   6.793  12.261  0.00  0.00    +0.000 C 
ATOM      2  C   UNL     1      45.362   8.110  11.591  0.00  0.00    +0.000 C 
ATOM      3  C   UNL     1      44.430   7.551  12.613  0.00  0.00    +0.000 C 
ENDROOT
BRANCH   1   9
ATOM      4  F   UNL     1      51.925   8.474  13.252  0.00  0.00    +0.000 F 
ATOM      5  C   UNL     1      50.652   8.064  13.215  0.00  0.00    +0.000 A 
ATOM      6  C   UNL     1      50.007   7.878  12.008  0.00  0.00    +0.000 A 
ATOM      7  C   UNL     1      48.679   7.444  12.005  0.00  0.00    +0.000 A 
ATOM      8  C   UNL     1      48.033   7.208  13.218  0.00  0.00    +0.000 A 
ATOM      9  N   UNL     1      46.729   6.728  13.308  0.00  0.00    +0.000 N 
ATOM     10  N   UNL     1      48.661   7.393  14.400  0.00  0.00    +0.000 NA
ATOM     11  C   UNL     1      49.951   7.818  14.378  0.00  0.00    +0.000 A 
ATOM     12  H   UNL     1      46.459   6.712  14.286  0.00  0.00    +0.000 HD
ENDBRANCH   1   9
BRANCH   1  13
ATOM     13  C   UNL     1      45.493   5.494  11.484  0.00  0.00    +0.000 A 
ATOM     14  C   UNL     1      45.162   4.295  12.151  0.00  0.00    +0.000 A 
ATOM     15  C   UNL     1      44.790   3.145  11.446  0.00  0.00    +0.000 A 
ATOM     16  C   UNL     1      44.765   3.173  10.059  0.00  0.00    +0.000 A 
ATOM     17  F   UNL     1      44.350   2.093   9.384  0.00  0.00    +0.000 F 
ATOM     18  C   UNL     1      45.145   4.320   9.379  0.00  0.00    +0.000 A 
ATOM     19  F   UNL     1      45.122   4.352   8.039  0.00  0.00    +0.000 F 
ATOM     20  C   UNL     1      45.517   5.464  10.078  0.00  0.00    +0.000 A 
ENDBRANCH   1  13
TORSDOF 2
ENDMDL
