MODEL 1
REMARK VINA RESULT:    -8.310      0.000      0.000
REMARK INTER + INTRA:         -12.446
REMARK INTER:                 -11.225
REMARK INTRA:                  -1.221
REMARK UNBOUND:                -1.221
REMARK  Name = 
REMARK  7 active torsions:
REMARK  status: ('A' for Active; 'I' for Inactive)
REMARK    1  A    between atoms: C_1  and  C_2
REMARK    2  A    between atoms: C_2  and  N_3
REMARK    3  A    between atoms: C_2  and  C_16
REMARK    4  A    between atoms: C_4  and  C_6
REMARK    5  A    between atoms: C_19  and  C_20
REMARK    6  A    between atoms: C_20  and  N_21
REMARK    7  A    between atoms: C_22  and  C_24
REMARK                            x       y       z     vdW  Elec       q    Type
REMARK                         _______ _______ _______ _____ _____    ______ ____
ROOT
ATOM      1  C   UNL     1      47.037   3.736  16.617  0.00  0.00    +0.000 C 
ATOM      2  C   UNL     1      47.665   4.594  15.519  0.00  0.00    +0.000 C 
ENDROOT
BRANCH   2   3
ATOM      3  C   UNL     1      46.914   4.517  14.194  0.00  0.00    +0.000 A 
ATOM      4  C   UNL     1      46.500   5.698  13.578  0.00  0.00    +0.000 A 
ATOM      5  C   UNL     1      45.727   5.630  12.419  0.00  0.00    +0.000 A 
ATOM      6  C   UNL     1      45.360   4.387  11.902  0.00  0.00    +0.000 A 
ATOM      7  C   UNL     1      45.832   3.261  12.567  0.00  0.00    +0.000 A 
ATOM      8  N   UNL     1      46.584   3.299  13.696  0.00  0.00    +0.000 NA
BRANCH   6   9
ATOM      9  C   UNL     1      44.472   4.262  10.698  0.00  0.00    +0.000 C 
BRANCH   9  10
ATOM     10  N   UNL     1      45.024   3.391   9.688  0.00  0.00    +0.000 N 
ATOM     11  C   UNL     1      45.676   3.928   8.596  0.00  0.00    +0.000 C 
ATOM     12  O   UNL     1      45.827   5.136   8.431  0.00  0.00    +0.000 OA
ATOM     13  H   UNL     1      45.144   2.411   9.906  0.00  0.00    +0.000 HD
BRANCH  11  14
ATOM     14  C   UNL     1      46.221   2.962   7.603  0.00  0.00    +0.000 A 
ATOM     15  C   UNL     1      46.539   3.353   6.296  0.00  0.00    +0.000 A 
ATOM     16  C   UNL     1      47.099   2.436   5.405  0.00  0.00    +0.000 A 
ATOM     17  C   UNL     1      47.348   1.125   5.814  0.00  0.00    +0.000 A 
ATOM     18  C   UNL     1      47.037   0.729   7.113  0.00  0.00    +0.000 A 
ATOM     19  C   UNL     1      46.479   1.644   8.009  0.00  0.00    +0.000 A 
ENDBRANCH  11  14
ENDBRANCH   9  10
ENDBRANCH   6   9
ENDBRANCH   2   3
BRANCH   2  20
ATOM     20  N   UNL     1      47.753   5.979  15.963  0.00  0.00    +0.000 N 
ATOM     21  C   UNL     1      48.945   6.619  16.169  0.00  0.00    +0.000 C 
ATOM     22  O   UNL     1      50.027   6.080  15.955  0.00  0.00    +0.000 OA
ATOM     23  H   UNL     1      46.876   6.436  16.184  0.00  0.00    +0.000 HD
BRANCH  21  24
ATOM     24  C   UNL     1      48.867   8.020  16.599  0.00  0.00    +0.000 A 
ATOM     25  C   UNL     1      49.462   9.011  15.832  0.00  0.00    +0.000 A 
ATOM     26  S   UNL     1      49.283  10.577  16.482  0.00  0.00    +0.000 S 
ATOM     27  C   UNL     1      48.448   9.977  17.838  0.00  0.00    +0.000 A 
ATOM     28  N   UNL     1      48.039  10.810  18.833  0.00  0.00    +0.000 NA
ATOM     29  C   UNL     1      47.460  10.215  19.822  0.00  0.00    +0.000 A 
ATOM     30  N   UNL     1      47.240   8.864  19.899  0.00  0.00    +0.000 N 
ATOM     31  C   UNL     1      47.582   7.991  18.893  0.00  0.00    +0.000 A 
ATOM     32  O   UNL     1      47.280   6.804  18.948  0.00  0.00    +0.000 OA
ATOM     33  C   UNL     1      48.276   8.605  17.777  0.00  0.00    +0.000 A 
ATOM     34  H   UNL     1      46.757   8.464  20.690  0.00  0.00    +0.000 HD
ENDBRANCH  21  24
ENDBRANCH   2  20
TORSDOF 6
ENDMDL
MODEL 2
REMARK VINA RESULT:    -8.203      1.625      2.479
REMARK INTER + INTRA:         -12.301
REMARK INTER:                 -11.021
REMARK INTRA:                  -1.280
REMARK UNBOUND:                -1.221
REMARK  Name = 
REMARK  7 active torsions:
REMARK  status: ('A' for Active; 'I' for Inactive)
REMARK    1  A    between atoms: C_1  and  C_2
REMARK    2  A    between atoms: C_2  and  N_3
REMARK    3  A    between atoms: C_2  and  C_16
REMARK    4  A    between atoms: C_4  and  C_6
REMARK    5  A    between atoms: C_19  and  C_20
REMARK    6  A    between atoms: C_20  and  N_21
REMARK    7  A    between atoms: C_22  and  C_24
REMARK                            x       y       z     vdW  Elec       q    Type
REMARK                         _______ _______ _______ _____ _____    ______ ____
ROOT
ATOM      1  C   UNL     1      47.000   4.197  16.539  0.00  0.00    +0.000 C 
ATOM      2  C   UNL     1      47.682   4.818  15.321  0.00  0.00    +0.000 C 
ENDROOT
BRANCH   2   3
ATOM      3  C   UNL     1      46.892   4.632  14.030  0.00  0.00    +0.000 A 
ATOM      4  C   UNL     1      46.443   5.757  13.339  0.00  0.00    +0.000 A 
ATOM      5  C   UNL     1      45.635   5.593  12.214  0.00  0.00    +0.000 A 
ATOM      6  C   UNL     1      45.269   4.309  11.805  0.00  0.00    +0.000 A 
ATOM      7  C   UNL     1      45.777   3.243  12.539  0.00  0.00    +0.000 A 
ATOM      8  N   UNL     1      46.562   3.375  13.637  0.00  0.00    +0.000 NA
BRANCH   6   9
ATOM      9  C   UNL     1      44.346   4.084  10.643  0.00  0.00    +0.000 C 
BRANCH   9  10
ATOM     10  N   UNL     1      44.938   3.260   9.615  0.00  0.00    +0.000 N 
ATOM     11  C   UNL     1      45.620   3.849   8.568  0.00  0.00    +0.000 C 
ATOM     12  O   UNL     1      45.765   5.063   8.460  0.00  0.00    +0.000 OA
ATOM     13  H   UNL     1      45.060   2.273   9.795  0.00  0.00    +0.000 HD
BRANCH  11  14
ATOM     14  C   UNL     1      46.204   2.930   7.553  0.00  0.00    +0.000 A 
ATOM     15  C   UNL     1      46.529   3.372   6.264  0.00  0.00    +0.000 A 
ATOM     16  C   UNL     1      47.126   2.500   5.352  0.00  0.00    +0.000 A 
ATOM     17  C   UNL     1      47.406   1.184   5.723  0.00  0.00    +0.000 A 
ATOM     18  C   UNL     1      47.088   0.737   7.005  0.00  0.00    +0.000 A 
ATOM     19  C   UNL     1      46.494   1.607   7.921  0.00  0.00    +0.000 A 
ENDBRANCH  11  14
ENDBRANCH   9  10
ENDBRANCH   6   9
ENDBRANCH   2   3
BRANCH   2  20
ATOM     20  N   UNL     1      47.924   6.235  15.558  0.00  0.00    +0.000 N 
ATOM     21  C   UNL     1      49.118   6.719  16.016  0.00  0.00    +0.000 C 
ATOM     22  O   UNL     1      50.086   5.992  16.223  0.00  0.00    +0.000 OA
ATOM     23  H   UNL     1      47.130   6.853  15.432  0.00  0.00    +0.000 HD
BRANCH  21  24
ATOM     24  C   UNL     1      49.211   8.173  16.188  0.00  0.00    +0.000 A 
ATOM     25  C   UNL     1      49.369   8.709  17.459  0.00  0.00    +0.000 A 
ATOM     26  S   UNL     1      49.450  10.412  17.475  0.00  0.00    +0.000 S 
ATOM     27  C   UNL     1      49.225  10.493  15.790  0.00  0.00    +0.000 A 
ATOM     28  N   UNL     1      49.149  11.692  15.152  0.00  0.00    +0.000 NA
ATOM     29  C   UNL     1      48.930  11.606  13.883  0.00  0.00    +0.000 A 
ATOM     30  N   UNL     1      48.795  10.430  13.191  0.00  0.00    +0.000 N 
ATOM     31  C   UNL     1      48.924   9.195  13.783  0.00  0.00    +0.000 A 
ATOM     32  O   UNL     1      48.898   8.165  13.120  0.00  0.00    +0.000 OA
ATOM     33  C   UNL     1      49.127   9.237  15.219  0.00  0.00    +0.000 A 
ATOM     34  H   UNL     1      48.651  10.432  12.192  0.00  0.00    +0.000 HD
ENDBRANCH  21  24
ENDBRANCH   2  20
TORSDOF 6
ENDMDL
MODEL 3
REMARK VINA RESULT:    -8.114      3.181      5.320
REMARK INTER + INTRA:         -12.180
REMARK INTER:                 -11.145
REMARK INTRA:                  -1.035
REMARK UNBOUND:                -1.221
REMARK  Name = 
REMARK  7 active torsions:
REMARK  status: ('A' for Active; 'I' for Inactive)
REMARK    1  A    between atoms: C_1  and  C_2
REMARK    2  A    between atoms: C_2  and  N_3
REMARK    3  A    between atoms: C_2  and  C_16
REMARK    4  A    between atoms: C_4  and  C_6
REMARK    5  A    between atoms: C_19  and  C_20
REMARK    6  A    between atoms: C_20  and  N_21
REMARK    7  A    between atoms: C_22  and  C_24
REMARK                            x       y       z     vdW  Elec       q    Type
REMARK                         _______ _______ _______ _____ _____    ______ ____
ROOT
ATOM      1  C   UNL     1      42.875   4.752  11.310  0.00  0.00    +0.000 C 
ATOM      2  C   UNL     1      44.195   3.986  11.370  0.00  0.00    +0.000 C 
ENDROOT
BRANCH   2   3
ATOM      3  C   UNL     1      44.877   3.857  10.012  0.00  0.00    +0.000 A 
ATOM      4  C   UNL     1      45.044   2.590   9.453  0.00  0.00    +0.000 A 
ATOM      5  C   UNL     1      45.754   2.457   8.260  0.00  0.00    +0.000 A 
ATOM      6  C   UNL     1      46.306   3.586   7.651  0.00  0.00    +0.000 A 
ATOM      7  C   UNL     1      46.074   4.812   8.265  0.00  0.00    +0.000 A 
ATOM      8  N   UNL     1      45.389   4.969   9.426  0.00  0.00    +0.000 NA
BRANCH   6   9
ATOM      9  C   UNL     1      47.136   3.486   6.405  0.00  0.00    +0.000 C 
BRANCH   9  10
ATOM     10  N   UNL     1      46.585   2.561   5.443  0.00  0.00    +0.000 N 
ATOM     11  C   UNL     1      47.346   1.501   4.991  0.00  0.00    +0.000 C 
ATOM     12  O   UNL     1      48.493   1.286   5.377  0.00  0.00    +0.000 OA
ATOM     13  H   UNL     1      45.585   2.553   5.296  0.00  0.00    +0.000 HD
BRANCH  11  14
ATOM     14  C   UNL     1      46.703   0.591   4.004  0.00  0.00    +0.000 A 
ATOM     15  C   UNL     1      46.927  -0.792   4.026  0.00  0.00    +0.000 A 
ATOM     16  C   UNL     1      46.268  -1.624   3.121  0.00  0.00    +0.000 A 
ATOM     17  C   UNL     1      45.378  -1.082   2.192  0.00  0.00    +0.000 A 
ATOM     18  C   UNL     1      45.147   0.292   2.165  0.00  0.00    +0.000 A 
ATOM     19  C   UNL     1      45.803   1.129   3.071  0.00  0.00    +0.000 A 
ENDBRANCH  11  14
ENDBRANCH   9  10
ENDBRANCH   6   9
ENDBRANCH   2   3
BRANCH   2  20
ATOM     20  N   UNL     1      45.096   4.626  12.321  0.00  0.00    +0.000 N 
ATOM     21  C   UNL     1      45.988   3.926  13.086  0.00  0.00    +0.000 C 
ATOM     22  O   UNL     1      46.120   2.709  12.995  0.00  0.00    +0.000 OA
ATOM     23  H   UNL     1      44.981   5.626  12.444  0.00  0.00    +0.000 HD
BRANCH  21  24
ATOM     24  C   UNL     1      46.838   4.716  13.984  0.00  0.00    +0.000 A 
ATOM     25  C   UNL     1      47.064   4.278  15.281  0.00  0.00    +0.000 A 
ATOM     26  S   UNL     1      48.066   5.319  16.187  0.00  0.00    +0.000 S 
ATOM     27  C   UNL     1      48.189   6.416  14.891  0.00  0.00    +0.000 A 
ATOM     28  N   UNL     1      48.886   7.577  15.022  0.00  0.00    +0.000 NA
ATOM     29  C   UNL     1      48.857   8.336  13.978  0.00  0.00    +0.000 A 
ATOM     30  N   UNL     1      48.207   8.032  12.810  0.00  0.00    +0.000 N 
ATOM     31  C   UNL     1      47.540   6.846  12.611  0.00  0.00    +0.000 A 
ATOM     32  O   UNL     1      47.055   6.561  11.522  0.00  0.00    +0.000 OA
ATOM     33  C   UNL     1      47.506   5.976  13.772  0.00  0.00    +0.000 A 
ATOM     34  H   UNL     1      48.245   8.659  12.020  0.00  0.00    +0.000 HD
ENDBRANCH  21  24
ENDBRANCH   2  20
TORSDOF 6
ENDMDL
MODEL 4
REMARK VINA RESULT:    -8.061      2.607      3.378
REMARK INTER + INTRA:         -12.109
REMARK INTER:                 -10.927
REMARK INTRA:                  -1.183
REMARK UNBOUND:                -1.221
REMARK  Name = 
REMARK  7 active torsions:
REMARK  status: ('A' for Active; 'I' for Inactive)
REMARK    1  A    between atoms: C_1  and  C_2
REMARK    2  A    between atoms: C_2  and  N_3
REMARK    3  A    between atoms: C_2  and  C_16
REMARK    4  A    between atoms: C_4  and  C_6
REMARK    5  A    between atoms: C_19  and  C_20
REMARK    6  A    between atoms: C_20  and  N_21
REMARK    7  A    between atoms: C_22  and  C_24
REMARK                            x       y       z     vdW  Elec       q    Type
REMARK                         _______ _______ _______ _____ _____    ______ ____
ROOT
ATOM      1  C   UNL     1      47.415   8.713  12.483  0.00  0.00    +0.000 C 
ATOM      2  C   UNL     1      46.972   7.719  13.557  0.00  0.00    +0.000 C 
ENDROOT
BRANCH   2   3
ATOM      3  C   UNL     1      46.156   6.558  13.000  0.00  0.00    +0.000 A 
ATOM      4  C   UNL     1      46.498   5.254  13.357  0.00  0.00    +0.000 A 
ATOM      5  C   UNL     1      45.819   4.184  12.773  0.00  0.00    +0.000 A 
ATOM      6  C   UNL     1      44.824   4.428  11.826  0.00  0.00    +0.000 A 
ATOM      7  C   UNL     1      44.533   5.759  11.543  0.00  0.00    +0.000 A 
ATOM      8  N   UNL     1      45.178   6.817  12.095  0.00  0.00    +0.000 NA
BRANCH   6   9
ATOM      9  C   UNL     1      44.114   3.311  11.119  0.00  0.00    +0.000 C 
BRANCH   9  10
ATOM     10  N   UNL     1      44.925   2.697  10.094  0.00  0.00    +0.000 N 
ATOM     11  C   UNL     1      44.959   3.240   8.825  0.00  0.00    +0.000 C 
ATOM     12  O   UNL     1      44.331   4.247   8.508  0.00  0.00    +0.000 OA
ATOM     13  H   UNL     1      45.638   2.036  10.371  0.00  0.00    +0.000 HD
BRANCH  11  14
ATOM     14  C   UNL     1      45.824   2.551   7.828  0.00  0.00    +0.000 A 
ATOM     15  C   UNL     1      46.267   3.199   6.667  0.00  0.00    +0.000 A 
ATOM     16  C   UNL     1      47.120   2.544   5.779  0.00  0.00    +0.000 A 
ATOM     17  C   UNL     1      47.540   1.239   6.046  0.00  0.00    +0.000 A 
ATOM     18  C   UNL     1      47.106   0.588   7.199  0.00  0.00    +0.000 A 
ATOM     19  C   UNL     1      46.254   1.242   8.093  0.00  0.00    +0.000 A 
ENDBRANCH  11  14
ENDBRANCH   9  10
ENDBRANCH   6   9
ENDBRANCH   2   3
BRANCH   2  20
ATOM     20  N   UNL     1      48.136   7.213  14.273  0.00  0.00    +0.000 N 
ATOM     21  C   UNL     1      48.682   7.854  15.351  0.00  0.00    +0.000 C 
ATOM     22  O   UNL     1      48.203   8.885  15.815  0.00  0.00    +0.000 OA
ATOM     23  H   UNL     1      48.574   6.384  13.887  0.00  0.00    +0.000 HD
BRANCH  21  24
ATOM     24  C   UNL     1      49.842   7.209  15.975  0.00  0.00    +0.000 A 
ATOM     25  C   UNL     1      51.086   7.822  15.918  0.00  0.00    +0.000 A 
ATOM     26  S   UNL     1      52.321   6.931  16.686  0.00  0.00    +0.000 S 
ATOM     27  C   UNL     1      51.245   5.672  17.075  0.00  0.00    +0.000 A 
ATOM     28  N   UNL     1      51.681   4.553  17.714  0.00  0.00    +0.000 NA
ATOM     29  C   UNL     1      50.769   3.659  17.905  0.00  0.00    +0.000 A 
ATOM     30  N   UNL     1      49.457   3.790  17.528  0.00  0.00    +0.000 N 
ATOM     31  C   UNL     1      48.959   4.926  16.935  0.00  0.00    +0.000 A 
ATOM     32  O   UNL     1      47.761   5.052  16.703  0.00  0.00    +0.000 OA
ATOM     33  C   UNL     1      49.955   5.944  16.658  0.00  0.00    +0.000 A 
ATOM     34  H   UNL     1      48.787   3.063  17.731  0.00  0.00    +0.000 HD
ENDBRANCH  21  24
ENDBRANCH   2  20
TORSDOF 6
ENDMDL
MODEL 5
REMARK VINA RESULT:    -7.660      4.035      5.373
REMARK INTER + INTRA:         -11.567
REMARK INTER:                 -10.404
REMARK INTRA:                  -1.163
REMARK UNBOUND:                -1.221
REMARK  Name = 
REMARK  7 active torsions:
REMARK  status: ('A' for Active; 'I' for Inactive)
REMARK    1  A    between atoms: C_1  and  C_2
REMARK    2  A    between atoms: C_2  and  N_3
REMARK    3  A    between atoms: C_2  and  C_16
REMARK    4  A    between atoms: C_4  and  C_6
REMARK    5  A    between atoms: C_19  and  C_20
REMARK    6  A    between atoms: C_20  and  N_21
REMARK    7  A    between atoms: C_22  and  C_24
REMARK                            x       y       z     vdW  Elec       q    Type
REMARK                         _______ _______ _______ _____ _____    ______ ____
ROOT
ATOM      1  C   UNL     1      44.888   9.913  12.176  0.00  0.00    +0.000 C 
ATOM      2  C   UNL     1      45.920   8.886  12.640  0.00  0.00    +0.000 C 
ENDROOT
BRANCH   2   3
ATOM      3  C   UNL     1      45.481   7.445  12.403  0.00  0.00    +0.000 A 
ATOM      4  C   UNL     1      46.277   6.404  12.881  0.00  0.00    +0.000 A 
ATOM      5  C   UNL     1      45.933   5.086  12.580  0.00  0.00    +0.000 A 
ATOM      6  C   UNL     1      44.812   4.824  11.790  0.00  0.00    +0.000 A 
ATOM      7  C   UNL     1      44.064   5.919  11.373  0.00  0.00    +0.000 A 
ATOM      8  N   UNL     1      44.376   7.210  11.649  0.00  0.00    +0.000 NA
BRANCH   6   9
ATOM      9  C   UNL     1      44.440   3.429  11.382  0.00  0.00    +0.000 C 
BRANCH   9  10
ATOM     10  N   UNL     1      45.282   2.915  10.328  0.00  0.00    +0.000 N 
ATOM     11  C   UNL     1      45.026   3.253   9.014  0.00  0.00    +0.000 C 
ATOM     12  O   UNL     1      44.104   3.992   8.679  0.00  0.00    +0.000 OA
ATOM     13  H   UNL     1      46.181   2.521  10.573  0.00  0.00    +0.000 HD
BRANCH  11  14
ATOM     14  C   UNL     1      45.943   2.686   7.988  0.00  0.00    +0.000 A 
ATOM     15  C   UNL     1      46.401   1.364   8.062  0.00  0.00    +0.000 A 
ATOM     16  C   UNL     1      47.218   0.846   7.056  0.00  0.00    +0.000 A 
ATOM     17  C   UNL     1      47.578   1.643   5.968  0.00  0.00    +0.000 A 
ATOM     18  C   UNL     1      47.125   2.958   5.885  0.00  0.00    +0.000 A 
ATOM     19  C   UNL     1      46.305   3.480   6.888  0.00  0.00    +0.000 A 
ENDBRANCH  11  14
ENDBRANCH   9  10
ENDBRANCH   6   9
ENDBRANCH   2   3
BRANCH   2  20
ATOM     20  N   UNL     1      47.196   9.133  11.982  0.00  0.00    +0.000 N 
ATOM     21  C   UNL     1      48.167   9.933  12.519  0.00  0.00    +0.000 C 
ATOM     22  O   UNL     1      48.044  10.468  13.618  0.00  0.00    +0.000 OA
ATOM     23  H   UNL     1      47.308   8.734  11.057  0.00  0.00    +0.000 HD
BRANCH  21  24
ATOM     24  C   UNL     1      49.404  10.069  11.743  0.00  0.00    +0.000 A 
ATOM     25  C   UNL     1      49.766  11.309  11.235  0.00  0.00    +0.000 A 
ATOM     26  S   UNL     1      51.225  11.284  10.353  0.00  0.00    +0.000 S 
ATOM     27  C   UNL     1      51.395   9.606  10.577  0.00  0.00    +0.000 A 
ATOM     28  N   UNL     1      52.437   8.929  10.023  0.00  0.00    +0.000 NA
ATOM     29  C   UNL     1      52.417   7.655  10.234  0.00  0.00    +0.000 A 
ATOM     30  N   UNL     1      51.457   7.000  10.961  0.00  0.00    +0.000 N 
ATOM     31  C   UNL     1      50.420   7.649  11.589  0.00  0.00    +0.000 A 
ATOM     32  O   UNL     1      49.637   7.047  12.315  0.00  0.00    +0.000 OA
ATOM     33  C   UNL     1      50.373   9.079  11.345  0.00  0.00    +0.000 A 
ATOM     34  H   UNL     1      51.514   6.003  11.111  0.00  0.00    +0.000 HD
ENDBRANCH  21  24
ENDBRANCH   2  20
TORSDOF 6
ENDMDL
MODEL 6
REMARK VINA RESULT:    -7.453      2.816      3.668
REMARK INTER + INTRA:         -11.288
REMARK INTER:                 -10.406
REMARK INTRA:                  -0.882
REMARK UNBOUND:                -1.221
REMARK  Name = 
REMARK  7 active torsions:
REMARK  status: ('A' for Active; 'I' for Inactive)
REMARK    1  A    between atoms: C_1  and  C_2
REMARK    2  A    between atoms: C_2  and  N_3
REMARK    3  A    between atoms: C_2  and  C_16
REMARK    4  A    between atoms: C_4  and  C_6
REMARK    5  A    between atoms: C_19  and  C_20
REMARK    6  A    between atoms: C_20  and  N_21
REMARK    7  A    between atoms: C_22  and  C_24
REMARK                            x       y       z     vdW  Elec       q    Type
REMARK                         _______ _______ _______ _____ _____    ______ ____
ROOT
ATOM      1  C   UNL     1      45.772   9.516  12.104  0.00  0.00    +0.000 C 
ATOM      2  C   UNL     1      46.134   8.423  13.109  0.00  0.00    +0.000 C 
ENDROOT
BRANCH   2   3
ATOM      3  C   UNL     1      45.577   7.054  12.733  0.00  0.00    +0.000 A 
ATOM      4  C   UNL     1      46.262   5.907  13.136  0.00  0.00    +0.000 A 
ATOM      5  C   UNL     1      45.813   4.657  12.711  0.00  0.00    +0.000 A 
ATOM      6  C   UNL     1      44.700   4.568  11.873  0.00  0.00    +0.000 A 
ATOM      7  C   UNL     1      44.065   5.759  11.536  0.00  0.00    +0.000 A 
ATOM      8  N   UNL     1      44.482   6.987  11.935  0.00  0.00    +0.000 NA
BRANCH   6   9
ATOM      9  C   UNL     1      44.220   3.253  11.333  0.00  0.00    +0.000 C 
BRANCH   9  10
ATOM     10  N   UNL     1      45.081   2.728  10.300  0.00  0.00    +0.000 N 
ATOM     11  C   UNL     1      44.974   3.200   9.007  0.00  0.00    +0.000 C 
ATOM     12  O   UNL     1      44.173   4.070   8.674  0.00  0.00    +0.000 OA
ATOM     13  H   UNL     1      45.906   2.211  10.573  0.00  0.00    +0.000 HD
BRANCH  11  14
ATOM     14  C   UNL     1      45.902   2.612   8.003  0.00  0.00    +0.000 A 
ATOM     15  C   UNL     1      46.327   1.279   8.087  0.00  0.00    +0.000 A 
ATOM     16  C   UNL     1      47.154   0.742   7.101  0.00  0.00    +0.000 A 
ATOM     17  C   UNL     1      47.559   1.529   6.022  0.00  0.00    +0.000 A 
ATOM     18  C   UNL     1      47.139   2.855   5.929  0.00  0.00    +0.000 A 
ATOM     19  C   UNL     1      46.309   3.396   6.912  0.00  0.00    +0.000 A 
ENDBRANCH  11  14
ENDBRANCH   9  10
ENDBRANCH   6   9
ENDBRANCH   2   3
BRANCH   2  20
ATOM     20  N   UNL     1      47.581   8.349  13.260  0.00  0.00    +0.000 N 
ATOM     21  C   UNL     1      48.232   8.741  14.397  0.00  0.00    +0.000 C 
ATOM     22  O   UNL     1      47.633   9.149  15.389  0.00  0.00    +0.000 OA
ATOM     23  H   UNL     1      48.103   8.052  12.443  0.00  0.00    +0.000 HD
BRANCH  21  24
ATOM     24  C   UNL     1      49.690   8.589  14.402  0.00  0.00    +0.000 A 
ATOM     25  C   UNL     1      50.460   9.286  13.481  0.00  0.00    +0.000 A 
ATOM     26  S   UNL     1      52.132   8.985  13.622  0.00  0.00    +0.000 S 
ATOM     27  C   UNL     1      51.880   7.872  14.885  0.00  0.00    +0.000 A 
ATOM     28  N   UNL     1      52.923   7.201  15.443  0.00  0.00    +0.000 NA
ATOM     29  C   UNL     1      52.583   6.354  16.358  0.00  0.00    +0.000 A 
ATOM     30  N   UNL     1      51.296   6.131  16.775  0.00  0.00    +0.000 N 
ATOM     31  C   UNL     1      50.218   6.828  16.282  0.00  0.00    +0.000 A 
ATOM     32  O   UNL     1      49.094   6.676  16.747  0.00  0.00    +0.000 OA
ATOM     33  C   UNL     1      50.542   7.761  15.219  0.00  0.00    +0.000 A 
ATOM     34  H   UNL     1      51.100   5.472  17.514  0.00  0.00    +0.000 HD
ENDBRANCH  21  24
ENDBRANCH   2  20
TORSDOF 6
ENDMDL
MODEL 7
REMARK VINA RESULT:    -7.370      5.093      7.466
REMARK INTER + INTRA:         -11.176
REMARK INTER:                 -10.080
REMARK INTRA:                  -1.097
REMARK UNBOUND:                -1.221
REMARK  Name = 
REMARK  7 active torsions:
REMARK  status: ('A' for Active; 'I' for Inactive)
REMARK    1  A    between atoms: C_1  and  C_2
REMARK    2  A    between atoms: C_2  and  N_3
REMARK    3  A    between atoms: C_2  and  C_16
REMARK    4  A    between atoms: C_4  and  C_6
REMARK    5  A    between atoms: C_19  and  C_20
REMARK    6  A    between atoms: C_20  and  N_21
REMARK    7  A    between atoms: C_22  and  C_24
REMARK                            x       y       z     vdW  Elec       q    Type
REMARK                         _______ _______ _______ _____ _____    ______ ____
ROOT
ATOM      1  C   UNL     1      44.528   4.233  12.973  0.00  0.00    +0.000 C 
ATOM      2  C   UNL     1      45.753   5.145  12.945  0.00  0.00    +0.000 C 
ENDROOT
BRANCH   2   3
ATOM      3  C   UNL     1      45.437   6.560  12.472  0.00  0.00    +0.000 A 
ATOM      4  C   UNL     1      46.153   7.631  13.006  0.00  0.00    +0.000 A 
ATOM      5  C   UNL     1      45.801   8.934  12.653  0.00  0.00    +0.000 A 
ATOM      6  C   UNL     1      44.727   9.152  11.788  0.00  0.00    +0.000 A 
ATOM      7  C   UNL     1      44.082   8.027  11.286  0.00  0.00    +0.000 A 
ATOM      8  N   UNL     1      44.402   6.750  11.615  0.00  0.00    +0.000 NA
BRANCH   6   9
ATOM      9  C   UNL     1      44.266  10.535  11.433  0.00  0.00    +0.000 C 
BRANCH   9  10
ATOM     10  N   UNL     1      42.988  10.863  12.018  0.00  0.00    +0.000 N 
ATOM     11  C   UNL     1      41.846  10.833  11.242  0.00  0.00    +0.000 C 
ATOM     12  O   UNL     1      41.851  10.527  10.053  0.00  0.00    +0.000 OA
ATOM     13  H   UNL     1      42.904  10.871  13.026  0.00  0.00    +0.000 HD
BRANCH  11  14
ATOM     14  C   UNL     1      40.568  11.179  11.923  0.00  0.00    +0.000 A 
ATOM     15  C   UNL     1      39.357  10.573  11.562  0.00  0.00    +0.000 A 
ATOM     16  C   UNL     1      38.185  10.879  12.256  0.00  0.00    +0.000 A 
ATOM     17  C   UNL     1      38.216  11.787  13.315  0.00  0.00    +0.000 A 
ATOM     18  C   UNL     1      39.417  12.392  13.682  0.00  0.00    +0.000 A 
ATOM     19  C   UNL     1      40.592  12.087  12.993  0.00  0.00    +0.000 A 
ENDBRANCH  11  14
ENDBRANCH   9  10
ENDBRANCH   6   9
ENDBRANCH   2   3
BRANCH   2  20
ATOM     20  N   UNL     1      46.371   5.186  14.264  0.00  0.00    +0.000 N 
ATOM     21  C   UNL     1      47.126   4.161  14.763  0.00  0.00    +0.000 C 
ATOM     22  O   UNL     1      47.368   3.146  14.115  0.00  0.00    +0.000 OA
ATOM     23  H   UNL     1      46.155   5.995  14.835  0.00  0.00    +0.000 HD
BRANCH  21  24
ATOM     24  C   UNL     1      47.694   4.360  16.101  0.00  0.00    +0.000 A 
ATOM     25  C   UNL     1      47.339   3.507  17.136  0.00  0.00    +0.000 A 
ATOM     26  S   UNL     1      48.085   3.888  18.621  0.00  0.00    +0.000 S 
ATOM     27  C   UNL     1      48.869   5.237  17.942  0.00  0.00    +0.000 A 
ATOM     28  N   UNL     1      49.650   6.049  18.706  0.00  0.00    +0.000 NA
ATOM     29  C   UNL     1      50.144   7.060  18.073  0.00  0.00    +0.000 A 
ATOM     30  N   UNL     1      49.941   7.325  16.743  0.00  0.00    +0.000 N 
ATOM     31  C   UNL     1      49.209   6.502  15.920  0.00  0.00    +0.000 A 
ATOM     32  O   UNL     1      49.130   6.712  14.715  0.00  0.00    +0.000 OA
ATOM     33  C   UNL     1      48.595   5.373  16.594  0.00  0.00    +0.000 A 
ATOM     34  H   UNL     1      50.379   8.120  16.303  0.00  0.00    +0.000 HD
ENDBRANCH  21  24
ENDBRANCH   2  20
TORSDOF 6
ENDMDL
MODEL 8
REMARK VINA RESULT:    -7.223      3.797      6.251
REMARK INTER + INTRA:         -10.977
REMARK INTER:                  -9.907
REMARK INTRA:                  -1.070
REMARK UNBOUND:                -1.221
REMARK  Name = 
REMARK  7 active torsions:
REMARK  status: ('A' for Active; 'I' for Inactive)
REMARK    1  A    between atoms: C_1  and  C_2
REMARK    2  A    between atoms: C_2  and  N_3
REMARK    3  A    between atoms: C_2  and  C_16
REMARK    4  A    between atoms: C_4  and  C_6
REMARK    5  A    between atoms: C_19  and  C_20
REMARK    6  A    between atoms: C_20  and  N_21
REMARK    7  A    between atoms: C_22  and  C_24
REMARK                            x       y       z     vdW  Elec       q    Type
REMARK                         _______ _______ _______ _____ _____    ______ ____
ROOT
ATOM      1  C   UNL     1      43.632   2.808  10.408  0.00  0.00    +0.000 C 
ATOM      2  C   UNL     1      45.159   2.850  10.409  0.00  0.00    +0.000 C 
ENDROOT
BRANCH   2   3
ATOM      3  C   UNL     1      45.766   2.658   9.023  0.00  0.00    +0.000 A 
ATOM      4  C   UNL     1      45.862   3.754   8.165  0.00  0.00    +0.000 A 
ATOM      5  C   UNL     1      46.322   3.564   6.862  0.00  0.00    +0.000 A 
ATOM      6  C   UNL     1      46.662   2.282   6.426  0.00  0.00    +0.000 A 
ATOM      7  C   UNL     1      46.556   1.251   7.353  0.00  0.00    +0.000 A 
ATOM      8  N   UNL     1      46.110   1.407   8.624  0.00  0.00    +0.000 NA
BRANCH   6   9
ATOM      9  C   UNL     1      47.097   2.017   5.014  0.00  0.00    +0.000 C 
BRANCH   9  10
ATOM     10  N   UNL     1      47.273   0.610   4.742  0.00  0.00    +0.000 N 
ATOM     11  C   UNL     1      46.789   0.069   3.567  0.00  0.00    +0.000 C 
ATOM     12  O   UNL     1      46.209   0.734   2.711  0.00  0.00    +0.000 OA
ATOM     13  H   UNL     1      47.950   0.091   5.285  0.00  0.00    +0.000 HD
BRANCH  11  14
ATOM     14  C   UNL     1      47.016  -1.387   3.359  0.00  0.00    +0.000 A 
ATOM     15  C   UNL     1      47.773  -1.866   2.282  0.00  0.00    +0.000 A 
ATOM     16  C   UNL     1      48.013  -3.234   2.145  0.00  0.00    +0.000 A 
ATOM     17  C   UNL     1      47.503  -4.131   3.085  0.00  0.00    +0.000 A 
ATOM     18  C   UNL     1      46.751  -3.663   4.161  0.00  0.00    +0.000 A 
ATOM     19  C   UNL     1      46.511  -2.294   4.303  0.00  0.00    +0.000 A 
ENDBRANCH  11  14
ENDBRANCH   9  10
ENDBRANCH   6   9
ENDBRANCH   2   3
BRANCH   2  20
ATOM     20  N   UNL     1      45.620   4.107  10.985  0.00  0.00    +0.000 N 
ATOM     21  C   UNL     1      45.928   4.248  12.310  0.00  0.00    +0.000 C 
ATOM     22  O   UNL     1      45.876   3.310  13.101  0.00  0.00    +0.000 OA
ATOM     23  H   UNL     1      45.636   4.906  10.362  0.00  0.00    +0.000 HD
BRANCH  21  24
ATOM     24  C   UNL     1      46.395   5.573  12.734  0.00  0.00    +0.000 A 
ATOM     25  C   UNL     1      47.524   5.683  13.533  0.00  0.00    +0.000 A 
ATOM     26  S   UNL     1      47.918   7.292  13.938  0.00  0.00    +0.000 S 
ATOM     27  C   UNL     1      46.563   7.892  13.101  0.00  0.00    +0.000 A 
ATOM     28  N   UNL     1      46.281   9.222  13.090  0.00  0.00    +0.000 NA
ATOM     29  C   UNL     1      45.199   9.532  12.458  0.00  0.00    +0.000 A 
ATOM     30  N   UNL     1      44.381   8.633  11.823  0.00  0.00    +0.000 N 
ATOM     31  C   UNL     1      44.657   7.287  11.757  0.00  0.00    +0.000 A 
ATOM     32  O   UNL     1      43.961   6.525  11.097  0.00  0.00    +0.000 OA
ATOM     33  C   UNL     1      45.841   6.882  12.491  0.00  0.00    +0.000 A 
ATOM     34  H   UNL     1      43.561   8.944  11.323  0.00  0.00    +0.000 HD
ENDBRANCH  21  24
ENDBRANCH   2  20
TORSDOF 6
ENDMDL
MODEL 9
REMARK VINA RESULT:    -6.497      4.845      6.973
REMARK INTER + INTRA:          -9.997
REMARK INTER:                  -8.948
REMARK INTRA:                  -1.049
REMARK UNBOUND:                -1.221
REMARK  Name = 
REMARK  7 active torsions:
REMARK  status: ('A' for Active; 'I' for Inactive)
REMARK    1  A    between atoms: C_1  and  C_2
REMARK    2  A    between atoms: C_2  and  N_3
REMARK    3  A    between atoms: C_2  and  C_16
REMARK    4  A    between atoms: C_4  and  C_6
REMARK    5  A    between atoms: C_19  and  C_20
REMARK    6  A    between atoms: C_20  and  N_21
REMARK    7  A    between atoms: C_22  and  C_24
REMARK                            x       y       z     vdW  Elec       q    Type
REMARK                         _______ _______ _______ _____ _____    ______ ____
ROOT
ATOM      1  C   UNL     1      46.434   4.419  13.314  0.00  0.00    +0.000 C 
ATOM      2  C   UNL     1      47.274   5.673  13.551  0.00  0.00    +0.000 C 
ENDROOT
BRANCH   2   3
ATOM      3  C   UNL     1      46.660   6.930  12.945  0.00  0.00    +0.000 A 
ATOM      4  C   UNL     1      47.496   7.983  12.570  0.00  0.00    +0.000 A 
ATOM      5  C   UNL     1      46.933   9.172  12.108  0.00  0.00    +0.000 A 
ATOM      6  C   UNL     1      45.545   9.304  12.045  0.00  0.00    +0.000 A 
ATOM      7  C   UNL     1      44.787   8.199  12.418  0.00  0.00    +0.000 A 
ATOM      8  N   UNL     1      45.309   7.032  12.872  0.00  0.00    +0.000 NA
BRANCH   6   9
ATOM      9  C   UNL     1      44.891  10.587  11.621  0.00  0.00    +0.000 C 
BRANCH   9  10
ATOM     10  N   UNL     1      43.503  10.660  12.014  0.00  0.00    +0.000 N 
ATOM     11  C   UNL     1      42.543  11.021  11.089  0.00  0.00    +0.000 C 
ATOM     12  O   UNL     1      42.804  11.282   9.918  0.00  0.00    +0.000 OA
ATOM     13  H   UNL     1      43.220  10.218  12.878  0.00  0.00    +0.000 HD
BRANCH  11  14
ATOM     14  C   UNL     1      41.136  11.067  11.573  0.00  0.00    +0.000 A 
ATOM     15  C   UNL     1      40.143  10.247  11.022  0.00  0.00    +0.000 A 
ATOM     16  C   UNL     1      38.845  10.275  11.533  0.00  0.00    +0.000 A 
ATOM     17  C   UNL     1      38.531  11.119  12.600  0.00  0.00    +0.000 A 
ATOM     18  C   UNL     1      39.514  11.937  13.155  0.00  0.00    +0.000 A 
ATOM     19  C   UNL     1      40.815  11.909  12.649  0.00  0.00    +0.000 A 
ENDBRANCH  11  14
ENDBRANCH   9  10
ENDBRANCH   6   9
ENDBRANCH   2   3
BRANCH   2  20
ATOM     20  N   UNL     1      47.489   5.862  14.980  0.00  0.00    +0.000 N 
ATOM     21  C   UNL     1      48.679   6.289  15.503  0.00  0.00    +0.000 C 
ATOM     22  O   UNL     1      49.641   6.580  14.797  0.00  0.00    +0.000 OA
ATOM     23  H   UNL     1      46.724   5.593  15.588  0.00  0.00    +0.000 HD
BRANCH  21  24
ATOM     24  C   UNL     1      48.732   6.447  16.960  0.00  0.00    +0.000 A 
ATOM     25  C   UNL     1      48.965   7.699  17.510  0.00  0.00    +0.000 A 
ATOM     26  S   UNL     1      49.003   7.699  19.215  0.00  0.00    +0.000 S 
ATOM     27  C   UNL     1      48.759   6.016  19.274  0.00  0.00    +0.000 A 
ATOM     28  N   UNL     1      48.734   5.355  20.463  0.00  0.00    +0.000 NA
ATOM     29  C   UNL     1      48.588   4.076  20.358  0.00  0.00    +0.000 A 
ATOM     30  N   UNL     1      48.450   3.401  19.173  0.00  0.00    +0.000 N 
ATOM     31  C   UNL     1      48.410   4.033  17.952  0.00  0.00    +0.000 A 
ATOM     32  O   UNL     1      48.184   3.412  16.920  0.00  0.00    +0.000 OA
ATOM     33  C   UNL     1      48.614   5.468  18.013  0.00  0.00    +0.000 A 
ATOM     34  H   UNL     1      48.313   2.401  19.161  0.00  0.00    +0.000 HD
ENDBRANCH  21  24
ENDBRANCH   2  20
TORSDOF 6
ENDMDL
