MODEL 1
REMARK VINA RESULT:    -8.158      0.000      0.000
REMARK INTER + INTRA:         -13.524
REMARK INTER:                 -12.212
REMARK INTRA:                  -1.312
REMARK UNBOUND:                -1.312
REMARK  Name = 
REMARK  11 active torsions:
REMARK  status: ('A' for Active; 'I' for Inactive)
REMARK    1  A    between atoms: C_1  and  C_2
REMARK    2  A    between atoms: N_4  and  C_5
REMARK    3  A    between atoms: C_7  and  C_8
REMARK    4  A    between atoms: C_8  and  C_9
REMARK    5  A    between atoms: C_9  and  C_10
REMARK    6  A    between atoms: C_10  and  O_11
REMARK    7  A    between atoms: C_13  and  C_14
REMARK    8  A    between atoms: C_14  and  C_15
REMARK    9  A    between atoms: C_15  and  N_16
REMARK   10  A    between atoms: C_20  and  C_21
REMARK   11  A    between atoms: C_28  and  C_29
REMARK                            x       y       z     vdW  Elec       q    Type
REMARK                         _______ _______ _______ _____ _____    ______ ____
ROOT
ATOM      1  C   UNL     1      46.803   6.948  13.167  0.00  0.00    +0.000 A 
ATOM      2  C   UNL     1      47.373   5.814  13.764  0.00  0.00    +0.000 A 
ATOM      3  C   UNL     1      46.686   4.594  13.869  0.00  0.00    +0.000 A 
ATOM      4  C   UNL     1      45.393   4.491  13.345  0.00  0.00    +0.000 A 
ATOM      5  C   UNL     1      44.773   5.604  12.773  0.00  0.00    +0.000 A 
ATOM      6  C   UNL     1      45.494   6.806  12.676  0.00  0.00    +0.000 A 
ENDROOT
BRANCH   1  10
ATOM      7  C   UNL     1      50.280   8.007  14.652  0.00  0.00    +0.000 C 
ATOM      8  C   UNL     1      49.444   9.208  14.199  0.00  0.00    +0.000 C 
ATOM      9  C   UNL     1      47.922   8.895  14.272  0.00  0.00    +0.000 C 
ATOM     10  N   UNL     1      47.488   8.144  13.087  0.00  0.00    +0.000 N 
ATOM     11  C   UNL     1      47.837   8.770  11.808  0.00  0.00    +0.000 C 
ATOM     12  C   UNL     1      49.360   9.035  11.725  0.00  0.00    +0.000 C 
ATOM     13  C   UNL     1      50.144   7.757  11.414  0.00  0.00    +0.000 C 
ATOM     14  N   UNL     1      49.906   9.763  12.898  0.00  0.00    +0.000 NA
ATOM     15  H   UNL     1      49.532  10.712  12.845  0.00  0.00    +0.000 HD
ENDBRANCH   1  10
BRANCH   3  16
ATOM     16  C   UNL     1      47.311   3.438  14.609  0.00  0.00    +0.000 C 
BRANCH  16  17
ATOM     17  C   UNL     1      47.437   3.647  16.116  0.00  0.00    +0.000 C 
BRANCH  17  18
ATOM     18  C   UNL     1      48.473   2.730  16.754  0.00  0.00    +0.000 C 
BRANCH  18  19
ATOM     19  O   UNL     1      49.056   1.901  15.757  0.00  0.00    +0.000 OA
ATOM     20  H   UNL     1      49.965   1.697  16.035  0.00  0.00    +0.000 HD
ENDBRANCH  18  19
ENDBRANCH  17  18
ENDBRANCH  16  17
ENDBRANCH   3  16
BRANCH   5  21
ATOM     21  C   UNL     1      43.339   5.535  12.301  0.00  0.00    +0.000 C 
BRANCH  21  22
ATOM     22  C   UNL     1      43.145   4.607  11.104  0.00  0.00    +0.000 C 
BRANCH  22  23
ATOM     23  N   UNL     1      43.907   5.091   9.938  0.00  0.00    +0.000 N 
ATOM     24  C   UNL     1      44.660   4.064   9.331  0.00  0.00    +0.000 A 
ATOM     25  C   UNL     1      45.430   4.347   8.207  0.00  0.00    +0.000 A 
ATOM     26  C   UNL     1      46.159   3.315   7.602  0.00  0.00    +0.000 A 
ATOM     27  C   UNL     1      46.109   2.025   8.132  0.00  0.00    +0.000 A 
ATOM     28  C   UNL     1      45.314   1.838   9.244  0.00  0.00    +0.000 A 
ATOM     29  N   UNL     1      44.598   2.820   9.838  0.00  0.00    +0.000 NA
ATOM     30  H   UNL     1      44.538   5.851  10.177  0.00  0.00    +0.000 HD
BRANCH  27  31
ATOM     31  C   UNL     1      46.885   0.931   7.500  0.00  0.00    +0.000 C 
ATOM     32  N   UNL     1      47.822   1.245   6.550  0.00  0.00    +0.000 N 
ATOM     33  O   UNL     1      46.698  -0.235   7.811  0.00  0.00    +0.000 OA
ATOM     34  H   UNL     1      48.061   2.167   6.226  0.00  0.00    +0.000 HD
ATOM     35  H   UNL     1      48.329   0.467   6.147  0.00  0.00    +0.000 HD
ENDBRANCH  27  31
ENDBRANCH  22  23
ENDBRANCH  21  22
ENDBRANCH   5  21
TORSDOF 9
ENDMDL
MODEL 2
REMARK VINA RESULT:    -7.182      2.854      4.432
REMARK INTER + INTRA:         -12.063
REMARK INTER:                 -10.934
REMARK INTRA:                  -1.129
REMARK UNBOUND:                -1.312
REMARK  Name = 
REMARK  11 active torsions:
REMARK  status: ('A' for Active; 'I' for Inactive)
REMARK    1  A    between atoms: C_1  and  C_2
REMARK    2  A    between atoms: N_4  and  C_5
REMARK    3  A    between atoms: C_7  and  C_8
REMARK    4  A    between atoms: C_8  and  C_9
REMARK    5  A    between atoms: C_9  and  C_10
REMARK    6  A    between atoms: C_10  and  O_11
REMARK    7  A    between atoms: C_13  and  C_14
REMARK    8  A    between atoms: C_14  and  C_15
REMARK    9  A    between atoms: C_15  and  N_16
REMARK   10  A    between atoms: C_20  and  C_21
REMARK   11  A    between atoms: C_28  and  C_29
REMARK                            x       y       z     vdW  Elec       q    Type
REMARK                         _______ _______ _______ _____ _____    ______ ____
ROOT
ATOM      1  C   UNL     1      47.018   7.273  12.503  0.00  0.00    +0.000 A 
ATOM      2  C   UNL     1      46.494   8.537  12.196  0.00  0.00    +0.000 A 
ATOM      3  C   UNL     1      45.142   8.732  11.871  0.00  0.00    +0.000 A 
ATOM      4  C   UNL     1      44.275   7.634  11.869  0.00  0.00    +0.000 A 
ATOM      5  C   UNL     1      44.760   6.352  12.133  0.00  0.00    +0.000 A 
ATOM      6  C   UNL     1      46.116   6.195  12.464  0.00  0.00    +0.000 A 
ENDROOT
BRANCH   1  10
ATOM      7  C   UNL     1      50.131   9.536  11.728  0.00  0.00    +0.000 C 
ATOM      8  C   UNL     1      50.526   8.114  12.140  0.00  0.00    +0.000 C 
ATOM      9  C   UNL     1      49.408   7.093  11.782  0.00  0.00    +0.000 C 
ATOM     10  N   UNL     1      48.353   7.098  12.804  0.00  0.00    +0.000 N 
ATOM     11  C   UNL     1      48.834   6.896  14.175  0.00  0.00    +0.000 C 
ATOM     12  C   UNL     1      49.912   7.947  14.538  0.00  0.00    +0.000 C 
ATOM     13  C   UNL     1      49.294   9.309  14.861  0.00  0.00    +0.000 C 
ATOM     14  N   UNL     1      51.011   8.044  13.544  0.00  0.00    +0.000 NA
ATOM     15  H   UNL     1      51.542   7.173  13.619  0.00  0.00    +0.000 HD
ENDBRANCH   1  10
BRANCH   3  16
ATOM     16  C   UNL     1      44.657  10.098  11.454  0.00  0.00    +0.000 C 
BRANCH  16  17
ATOM     17  C   UNL     1      43.538  10.080  10.416  0.00  0.00    +0.000 C 
BRANCH  17  18
ATOM     18  C   UNL     1      42.195  10.517  10.989  0.00  0.00    +0.000 C 
BRANCH  18  19
ATOM     19  O   UNL     1      41.342   9.387  11.123  0.00  0.00    +0.000 OA
ATOM     20  H   UNL     1      41.688   8.684  10.549  0.00  0.00    +0.000 HD
ENDBRANCH  18  19
ENDBRANCH  17  18
ENDBRANCH  16  17
ENDBRANCH   3  16
BRANCH   5  21
ATOM     21  C   UNL     1      43.857   5.144  12.029  0.00  0.00    +0.000 C 
BRANCH  21  22
ATOM     22  C   UNL     1      43.604   4.708  10.587  0.00  0.00    +0.000 C 
BRANCH  22  23
ATOM     23  N   UNL     1      43.897   3.273  10.416  0.00  0.00    +0.000 N 
ATOM     24  C   UNL     1      44.780   3.034   9.342  0.00  0.00    +0.000 A 
ATOM     25  C   UNL     1      45.171   1.732   9.049  0.00  0.00    +0.000 A 
ATOM     26  C   UNL     1      46.062   1.509   7.991  0.00  0.00    +0.000 A 
ATOM     27  C   UNL     1      46.541   2.587   7.247  0.00  0.00    +0.000 A 
ATOM     28  C   UNL     1      46.103   3.843   7.615  0.00  0.00    +0.000 A 
ATOM     29  N   UNL     1      45.248   4.079   8.636  0.00  0.00    +0.000 NA
ATOM     30  H   UNL     1      43.055   2.722  10.266  0.00  0.00    +0.000 HD
BRANCH  27  31
ATOM     31  C   UNL     1      47.479   2.356   6.121  0.00  0.00    +0.000 C 
ATOM     32  N   UNL     1      48.820   2.556   6.322  0.00  0.00    +0.000 N 
ATOM     33  O   UNL     1      47.072   1.997   5.027  0.00  0.00    +0.000 OA
ATOM     34  H   UNL     1      49.261   2.842   7.181  0.00  0.00    +0.000 HD
ATOM     35  H   UNL     1      49.423   2.384   5.528  0.00  0.00    +0.000 HD
ENDBRANCH  27  31
ENDBRANCH  22  23
ENDBRANCH  21  22
ENDBRANCH   5  21
TORSDOF 9
ENDMDL
MODEL 3
REMARK VINA RESULT:    -7.140      3.043      4.534
REMARK INTER + INTRA:         -12.000
REMARK INTER:                 -10.914
REMARK INTRA:                  -1.086
REMARK UNBOUND:                -1.312
REMARK  Name = 
REMARK  11 active torsions:
REMARK  status: ('A' for Active; 'I' for Inactive)
REMARK    1  A    between atoms: C_1  and  C_2
REMARK    2  A    between atoms: N_4  and  C_5
REMARK    3  A    between atoms: C_7  and  C_8
REMARK    4  A    between atoms: C_8  and  C_9
REMARK    5  A    between atoms: C_9  and  C_10
REMARK    6  A    between atoms: C_10  and  O_11
REMARK    7  A    between atoms: C_13  and  C_14
REMARK    8  A    between atoms: C_14  and  C_15
REMARK    9  A    between atoms: C_15  and  N_16
REMARK   10  A    between atoms: C_20  and  C_21
REMARK   11  A    between atoms: C_28  and  C_29
REMARK                            x       y       z     vdW  Elec       q    Type
REMARK                         _______ _______ _______ _____ _____    ______ ____
ROOT
ATOM      1  C   UNL     1      46.900   9.117  12.320  0.00  0.00    +0.000 A 
ATOM      2  C   UNL     1      45.960  10.015  11.793  0.00  0.00    +0.000 A 
ATOM      3  C   UNL     1      44.683   9.608  11.374  0.00  0.00    +0.000 A 
ATOM      4  C   UNL     1      44.319   8.263  11.501  0.00  0.00    +0.000 A 
ATOM      5  C   UNL     1      45.234   7.328  11.986  0.00  0.00    +0.000 A 
ATOM      6  C   UNL     1      46.500   7.772  12.405  0.00  0.00    +0.000 A 
ENDROOT
BRANCH   1  10
ATOM      7  C   UNL     1      49.613   7.327  14.521  0.00  0.00    +0.000 C 
ATOM      8  C   UNL     1      49.885   8.825  14.355  0.00  0.00    +0.000 C 
ATOM      9  C   UNL     1      48.566   9.616  14.119  0.00  0.00    +0.000 C 
ATOM     10  N   UNL     1      48.156   9.532  12.711  0.00  0.00    +0.000 N 
ATOM     11  C   UNL     1      49.190   9.932  11.751  0.00  0.00    +0.000 C 
ATOM     12  C   UNL     1      50.483   9.108  11.964  0.00  0.00    +0.000 C 
ATOM     13  C   UNL     1      50.362   7.698  11.380  0.00  0.00    +0.000 C 
ATOM     14  N   UNL     1      50.964   9.100  13.369  0.00  0.00    +0.000 NA
ATOM     15  H   UNL     1      51.293  10.048  13.563  0.00  0.00    +0.000 HD
ENDBRANCH   1  10
BRANCH   3  16
ATOM     16  C   UNL     1      43.751  10.600  10.724  0.00  0.00    +0.000 C 
BRANCH  16  17
ATOM     17  C   UNL     1      42.452   9.996  10.199  0.00  0.00    +0.000 C 
BRANCH  17  18
ATOM     18  C   UNL     1      41.246  10.351  11.060  0.00  0.00    +0.000 C 
BRANCH  18  19
ATOM     19  O   UNL     1      40.574   9.161  11.456  0.00  0.00    +0.000 OA
ATOM     20  H   UNL     1      39.728   9.418  11.858  0.00  0.00    +0.000 HD
ENDBRANCH  18  19
ENDBRANCH  17  18
ENDBRANCH  16  17
ENDBRANCH   3  16
BRANCH   5  21
ATOM     21  C   UNL     1      44.891   5.856  12.027  0.00  0.00    +0.000 C 
BRANCH  21  22
ATOM     22  C   UNL     1      44.034   5.407  10.845  0.00  0.00    +0.000 C 
BRANCH  22  23
ATOM     23  N   UNL     1      44.127   3.948  10.655  0.00  0.00    +0.000 N 
ATOM     24  C   UNL     1      44.910   3.606   9.533  0.00  0.00    +0.000 A 
ATOM     25  C   UNL     1      45.111   2.266   9.217  0.00  0.00    +0.000 A 
ATOM     26  C   UNL     1      45.906   1.938   8.110  0.00  0.00    +0.000 A 
ATOM     27  C   UNL     1      46.479   2.951   7.342  0.00  0.00    +0.000 A 
ATOM     28  C   UNL     1      46.230   4.250   7.736  0.00  0.00    +0.000 A 
ATOM     29  N   UNL     1      45.472   4.586   8.804  0.00  0.00    +0.000 NA
ATOM     30  H   UNL     1      43.214   3.513  10.552  0.00  0.00    +0.000 HD
BRANCH  27  31
ATOM     31  C   UNL     1      47.315   2.610   6.165  0.00  0.00    +0.000 C 
ATOM     32  N   UNL     1      48.662   2.425   6.338  0.00  0.00    +0.000 N 
ATOM     33  O   UNL     1      46.821   2.496   5.054  0.00  0.00    +0.000 OA
ATOM     34  H   UNL     1      49.168   2.487   7.206  0.00  0.00    +0.000 HD
ATOM     35  H   UNL     1      49.193   2.192   5.509  0.00  0.00    +0.000 HD
ENDBRANCH  27  31
ENDBRANCH  22  23
ENDBRANCH  21  22
ENDBRANCH   5  21
TORSDOF 9
ENDMDL
MODEL 4
REMARK VINA RESULT:    -6.935      1.280      2.070
REMARK INTER + INTRA:         -11.694
REMARK INTER:                 -10.560
REMARK INTRA:                  -1.133
REMARK UNBOUND:                -1.312
REMARK  Name = 
REMARK  11 active torsions:
REMARK  status: ('A' for Active; 'I' for Inactive)
REMARK    1  A    between atoms: C_1  and  C_2
REMARK    2  A    between atoms: N_4  and  C_5
REMARK    3  A    between atoms: C_7  and  C_8
REMARK    4  A    between atoms: C_8  and  C_9
REMARK    5  A    between atoms: C_9  and  C_10
REMARK    6  A    between atoms: C_10  and  O_11
REMARK    7  A    between atoms: C_13  and  C_14
REMARK    8  A    between atoms: C_14  and  C_15
REMARK    9  A    between atoms: C_15  and  N_16
REMARK   10  A    between atoms: C_20  and  C_21
REMARK   11  A    between atoms: C_28  and  C_29
REMARK                            x       y       z     vdW  Elec       q    Type
REMARK                         _______ _______ _______ _____ _____    ______ ____
ROOT
ATOM      1  C   UNL     1      47.619   6.557  13.119  0.00  0.00    +0.000 A 
ATOM      2  C   UNL     1      47.832   5.703  14.210  0.00  0.00    +0.000 A 
ATOM      3  C   UNL     1      46.850   4.811  14.671  0.00  0.00    +0.000 A 
ATOM      4  C   UNL     1      45.617   4.753  14.011  0.00  0.00    +0.000 A 
ATOM      5  C   UNL     1      45.348   5.610  12.943  0.00  0.00    +0.000 A 
ATOM      6  C   UNL     1      46.358   6.483  12.503  0.00  0.00    +0.000 A 
ENDROOT
BRANCH   1  10
ATOM      7  C   UNL     1      47.362  10.330  12.065  0.00  0.00    +0.000 C 
ATOM      8  C   UNL     1      48.679   9.684  11.621  0.00  0.00    +0.000 C 
ATOM      9  C   UNL     1      48.512   8.152  11.409  0.00  0.00    +0.000 C 
ATOM     10  N   UNL     1      48.590   7.438  12.691  0.00  0.00    +0.000 N 
ATOM     11  C   UNL     1      49.791   7.734  13.479  0.00  0.00    +0.000 C 
ATOM     12  C   UNL     1      49.923   9.257  13.725  0.00  0.00    +0.000 C 
ATOM     13  C   UNL     1      48.975   9.741  14.824  0.00  0.00    +0.000 C 
ATOM     14  N   UNL     1      49.822  10.074  12.489  0.00  0.00    +0.000 NA
ATOM     15  H   UNL     1      50.668   9.881  11.949  0.00  0.00    +0.000 HD
ENDBRANCH   1  10
BRANCH   3  16
ATOM     16  C   UNL     1      47.101   3.987  15.909  0.00  0.00    +0.000 C 
BRANCH  16  17
ATOM     17  C   UNL     1      48.148   2.890  15.736  0.00  0.00    +0.000 C 
BRANCH  17  18
ATOM     18  C   UNL     1      48.786   2.471  17.054  0.00  0.00    +0.000 C 
BRANCH  18  19
ATOM     19  O   UNL     1      49.961   1.713  16.798  0.00  0.00    +0.000 OA
ATOM     20  H   UNL     1      50.724   2.238  17.093  0.00  0.00    +0.000 HD
ENDBRANCH  18  19
ENDBRANCH  17  18
ENDBRANCH  16  17
ENDBRANCH   3  16
BRANCH   5  21
ATOM     21  C   UNL     1      43.984   5.633  12.292  0.00  0.00    +0.000 C 
BRANCH  21  22
ATOM     22  C   UNL     1      44.024   5.287  10.805  0.00  0.00    +0.000 C 
BRANCH  22  23
ATOM     23  N   UNL     1      44.179   3.834  10.610  0.00  0.00    +0.000 N 
ATOM     24  C   UNL     1      44.972   3.530   9.484  0.00  0.00    +0.000 A 
ATOM     25  C   UNL     1      45.230   2.201   9.161  0.00  0.00    +0.000 A 
ATOM     26  C   UNL     1      46.034   1.912   8.051  0.00  0.00    +0.000 A 
ATOM     27  C   UNL     1      46.560   2.953   7.284  0.00  0.00    +0.000 A 
ATOM     28  C   UNL     1      46.256   4.237   7.683  0.00  0.00    +0.000 A 
ATOM     29  N   UNL     1      45.487   4.537   8.756  0.00  0.00    +0.000 NA
ATOM     30  H   UNL     1      43.285   3.360  10.509  0.00  0.00    +0.000 HD
BRANCH  27  31
ATOM     31  C   UNL     1      47.405   2.652   6.103  0.00  0.00    +0.000 C 
ATOM     32  N   UNL     1      48.762   2.548   6.266  0.00  0.00    +0.000 N 
ATOM     33  O   UNL     1      46.910   2.501   4.996  0.00  0.00    +0.000 OA
ATOM     34  H   UNL     1      49.270   2.645   7.130  0.00  0.00    +0.000 HD
ATOM     35  H   UNL     1      49.299   2.340   5.434  0.00  0.00    +0.000 HD
ENDBRANCH  27  31
ENDBRANCH  22  23
ENDBRANCH  21  22
ENDBRANCH   5  21
TORSDOF 9
ENDMDL
MODEL 5
REMARK VINA RESULT:    -6.900      3.569      8.054
REMARK INTER + INTRA:         -11.641
REMARK INTER:                 -10.347
REMARK INTRA:                  -1.295
REMARK UNBOUND:                -1.312
REMARK  Name = 
REMARK  11 active torsions:
REMARK  status: ('A' for Active; 'I' for Inactive)
REMARK    1  A    between atoms: C_1  and  C_2
REMARK    2  A    between atoms: N_4  and  C_5
REMARK    3  A    between atoms: C_7  and  C_8
REMARK    4  A    between atoms: C_8  and  C_9
REMARK    5  A    between atoms: C_9  and  C_10
REMARK    6  A    between atoms: C_10  and  O_11
REMARK    7  A    between atoms: C_13  and  C_14
REMARK    8  A    between atoms: C_14  and  C_15
REMARK    9  A    between atoms: C_15  and  N_16
REMARK   10  A    between atoms: C_20  and  C_21
REMARK   11  A    between atoms: C_28  and  C_29
REMARK                            x       y       z     vdW  Elec       q    Type
REMARK                         _______ _______ _______ _____ _____    ______ ____
ROOT
ATOM      1  C   UNL     1      44.912   7.150  11.420  0.00  0.00    +0.000 A 
ATOM      2  C   UNL     1      44.204   8.300  11.043  0.00  0.00    +0.000 A 
ATOM      3  C   UNL     1      44.601   9.590  11.431  0.00  0.00    +0.000 A 
ATOM      4  C   UNL     1      45.754   9.744  12.208  0.00  0.00    +0.000 A 
ATOM      5  C   UNL     1      46.470   8.626  12.638  0.00  0.00    +0.000 A 
ATOM      6  C   UNL     1      46.050   7.351  12.222  0.00  0.00    +0.000 A 
ENDROOT
BRANCH   1  10
ATOM      7  C   UNL     1      46.009   3.607  12.706  0.00  0.00    +0.000 C 
ATOM      8  C   UNL     1      45.251   3.541  11.376  0.00  0.00    +0.000 C 
ATOM      9  C   UNL     1      45.425   4.856  10.563  0.00  0.00    +0.000 C 
ATOM     10  N   UNL     1      44.498   5.890  11.042  0.00  0.00    +0.000 N 
ATOM     11  C   UNL     1      43.092   5.475  11.082  0.00  0.00    +0.000 C 
ATOM     12  C   UNL     1      42.923   4.193  11.933  0.00  0.00    +0.000 C 
ATOM     13  C   UNL     1      42.968   4.494  13.433  0.00  0.00    +0.000 C 
ATOM     14  N   UNL     1      43.843   3.093  11.548  0.00  0.00    +0.000 NA
ATOM     15  H   UNL     1      43.534   2.770  10.629  0.00  0.00    +0.000 HD
ENDBRANCH   1  10
BRANCH   3  16
ATOM     16  C   UNL     1      43.745  10.780  11.077  0.00  0.00    +0.000 C 
BRANCH  16  17
ATOM     17  C   UNL     1      42.428  10.429  10.390  0.00  0.00    +0.000 C 
BRANCH  17  18
ATOM     18  C   UNL     1      41.229  10.538  11.324  0.00  0.00    +0.000 C 
BRANCH  18  19
ATOM     19  O   UNL     1      40.581   9.276  11.419  0.00  0.00    +0.000 OA
ATOM     20  H   UNL     1      39.750   9.406  11.907  0.00  0.00    +0.000 HD
ENDBRANCH  18  19
ENDBRANCH  17  18
ENDBRANCH  16  17
ENDBRANCH   3  16
BRANCH   5  21
ATOM     21  C   UNL     1      47.654   8.772  13.566  0.00  0.00    +0.000 C 
BRANCH  21  22
ATOM     22  C   UNL     1      48.723   7.704  13.347  0.00  0.00    +0.000 C 
BRANCH  22  23
ATOM     23  N   UNL     1      49.557   7.543  14.552  0.00  0.00    +0.000 N 
ATOM     24  C   UNL     1      49.096   6.500  15.383  0.00  0.00    +0.000 A 
ATOM     25  C   UNL     1      49.777   6.205  16.560  0.00  0.00    +0.000 A 
ATOM     26  C   UNL     1      49.320   5.156  17.368  0.00  0.00    +0.000 A 
ATOM     27  C   UNL     1      48.192   4.426  16.988  0.00  0.00    +0.000 A 
ATOM     28  C   UNL     1      47.587   4.787  15.802  0.00  0.00    +0.000 A 
ATOM     29  N   UNL     1      48.016   5.792  15.006  0.00  0.00    +0.000 NA
ATOM     30  H   UNL     1      49.606   8.395  15.105  0.00  0.00    +0.000 HD
BRANCH  27  31
ATOM     31  C   UNL     1      47.700   3.320  17.844  0.00  0.00    +0.000 C 
ATOM     32  N   UNL     1      48.398   2.997  18.978  0.00  0.00    +0.000 N 
ATOM     33  O   UNL     1      46.692   2.696  17.548  0.00  0.00    +0.000 OA
ATOM     34  H   UNL     1      49.231   3.448  19.317  0.00  0.00    +0.000 HD
ATOM     35  H   UNL     1      48.024   2.237  19.533  0.00  0.00    +0.000 HD
ENDBRANCH  27  31
ENDBRANCH  22  23
ENDBRANCH  21  22
ENDBRANCH   5  21
TORSDOF 9
ENDMDL
MODEL 6
REMARK VINA RESULT:    -6.741      3.348      4.659
REMARK INTER + INTRA:         -11.403
REMARK INTER:                 -10.346
REMARK INTRA:                  -1.057
REMARK UNBOUND:                -1.312
REMARK  Name = 
REMARK  11 active torsions:
REMARK  status: ('A' for Active; 'I' for Inactive)
REMARK    1  A    between atoms: C_1  and  C_2
REMARK    2  A    between atoms: N_4  and  C_5
REMARK    3  A    between atoms: C_7  and  C_8
REMARK    4  A    between atoms: C_8  and  C_9
REMARK    5  A    between atoms: C_9  and  C_10
REMARK    6  A    between atoms: C_10  and  O_11
REMARK    7  A    between atoms: C_13  and  C_14
REMARK    8  A    between atoms: C_14  and  C_15
REMARK    9  A    between atoms: C_15  and  N_16
REMARK   10  A    between atoms: C_20  and  C_21
REMARK   11  A    between atoms: C_28  and  C_29
REMARK                            x       y       z     vdW  Elec       q    Type
REMARK                         _______ _______ _______ _____ _____    ______ ____
ROOT
ATOM      1  C   UNL     1      45.161   9.446  11.733  0.00  0.00    +0.000 A 
ATOM      2  C   UNL     1      46.530   9.342  12.019  0.00  0.00    +0.000 A 
ATOM      3  C   UNL     1      47.169   8.106  12.205  0.00  0.00    +0.000 A 
ATOM      4  C   UNL     1      46.424   6.928  12.084  0.00  0.00    +0.000 A 
ATOM      5  C   UNL     1      45.051   6.984  11.836  0.00  0.00    +0.000 A 
ATOM      6  C   UNL     1      44.448   8.238  11.645  0.00  0.00    +0.000 A 
ENDROOT
BRANCH   1  10
ATOM      7  C   UNL     1      45.841  12.319   9.145  0.00  0.00    +0.000 C 
ATOM      8  C   UNL     1      44.986  12.784  10.329  0.00  0.00    +0.000 C 
ATOM      9  C   UNL     1      45.282  11.942  11.603  0.00  0.00    +0.000 C 
ATOM     10  N   UNL     1      44.548  10.670  11.569  0.00  0.00    +0.000 N 
ATOM     11  C   UNL     1      43.104  10.808  11.350  0.00  0.00    +0.000 C 
ATOM     12  C   UNL     1      42.819  11.606  10.055  0.00  0.00    +0.000 C 
ATOM     13  C   UNL     1      43.016  10.749   8.802  0.00  0.00    +0.000 C 
ATOM     14  N   UNL     1      43.545  12.899   9.977  0.00  0.00    +0.000 NA
ATOM     15  H   UNL     1      43.127  13.505  10.685  0.00  0.00    +0.000 HD
ENDBRANCH   1  10
BRANCH   3  16
ATOM     16  C   UNL     1      48.621   8.061  12.608  0.00  0.00    +0.000 C 
BRANCH  16  17
ATOM     17  C   UNL     1      49.540   7.394  11.587  0.00  0.00    +0.000 C 
BRANCH  17  18
ATOM     18  C   UNL     1      50.946   7.980  11.588  0.00  0.00    +0.000 C 
BRANCH  18  19
ATOM     19  O   UNL     1      51.640   7.560  10.419  0.00  0.00    +0.000 OA
ATOM     20  H   UNL     1      51.496   6.605  10.315  0.00  0.00    +0.000 HD
ENDBRANCH  18  19
ENDBRANCH  17  18
ENDBRANCH  16  17
ENDBRANCH   3  16
BRANCH   5  21
ATOM     21  C   UNL     1      44.216   5.724  11.810  0.00  0.00    +0.000 C 
BRANCH  21  22
ATOM     22  C   UNL     1      43.859   5.270  10.396  0.00  0.00    +0.000 C 
BRANCH  22  23
ATOM     23  N   UNL     1      43.852   3.798  10.305  0.00  0.00    +0.000 N 
ATOM     24  C   UNL     1      44.780   3.320   9.356  0.00  0.00    +0.000 A 
ATOM     25  C   UNL     1      44.911   1.950   9.153  0.00  0.00    +0.000 A 
ATOM     26  C   UNL     1      45.849   1.486   8.220  0.00  0.00    +0.000 A 
ATOM     27  C   UNL     1      46.631   2.396   7.509  0.00  0.00    +0.000 A 
ATOM     28  C   UNL     1      46.436   3.734   7.783  0.00  0.00    +0.000 A 
ATOM     29  N   UNL     1      45.541   4.201   8.683  0.00  0.00    +0.000 NA
ATOM     30  H   UNL     1      42.935   3.430  10.069  0.00  0.00    +0.000 HD
BRANCH  27  31
ATOM     31  C   UNL     1      47.619   1.910   6.516  0.00  0.00    +0.000 C 
ATOM     32  N   UNL     1      48.706   2.693   6.222  0.00  0.00    +0.000 N 
ATOM     33  O   UNL     1      47.474   0.833   5.958  0.00  0.00    +0.000 OA
ATOM     34  H   UNL     1      48.925   3.588   6.625  0.00  0.00    +0.000 HD
ATOM     35  H   UNL     1      49.354   2.321   5.540  0.00  0.00    +0.000 HD
ENDBRANCH  27  31
ENDBRANCH  22  23
ENDBRANCH  21  22
ENDBRANCH   5  21
TORSDOF 9
ENDMDL
MODEL 7
REMARK VINA RESULT:    -6.461      5.012      8.167
REMARK INTER + INTRA:         -10.983
REMARK INTER:                  -9.778
REMARK INTRA:                  -1.205
REMARK UNBOUND:                -1.312
REMARK  Name = 
REMARK  11 active torsions:
REMARK  status: ('A' for Active; 'I' for Inactive)
REMARK    1  A    between atoms: C_1  and  C_2
REMARK    2  A    between atoms: N_4  and  C_5
REMARK    3  A    between atoms: C_7  and  C_8
REMARK    4  A    between atoms: C_8  and  C_9
REMARK    5  A    between atoms: C_9  and  C_10
REMARK    6  A    between atoms: C_10  and  O_11
REMARK    7  A    between atoms: C_13  and  C_14
REMARK    8  A    between atoms: C_14  and  C_15
REMARK    9  A    between atoms: C_15  and  N_16
REMARK   10  A    between atoms: C_20  and  C_21
REMARK   11  A    between atoms: C_28  and  C_29
REMARK                            x       y       z     vdW  Elec       q    Type
REMARK                         _______ _______ _______ _____ _____    ______ ____
ROOT
ATOM      1  C   UNL     1      45.295   6.984  11.374  0.00  0.00    +0.000 A 
ATOM      2  C   UNL     1      46.641   6.894  11.756  0.00  0.00    +0.000 A 
ATOM      3  C   UNL     1      47.377   8.009  12.188  0.00  0.00    +0.000 A 
ATOM      4  C   UNL     1      46.747   9.256  12.261  0.00  0.00    +0.000 A 
ATOM      5  C   UNL     1      45.419   9.400  11.857  0.00  0.00    +0.000 A 
ATOM      6  C   UNL     1      44.710   8.261  11.440  0.00  0.00    +0.000 A 
ENDROOT
BRANCH   1  10
ATOM      7  C   UNL     1      45.618   3.196  12.354  0.00  0.00    +0.000 C 
ATOM      8  C   UNL     1      44.810   3.404  11.069  0.00  0.00    +0.000 C 
ATOM      9  C   UNL     1      45.242   4.707  10.336  0.00  0.00    +0.000 C 
ATOM     10  N   UNL     1      44.592   5.880  10.937  0.00  0.00    +0.000 N 
ATOM     11  C   UNL     1      43.132   5.786  11.030  0.00  0.00    +0.000 C 
ATOM     12  C   UNL     1      42.714   4.510  11.802  0.00  0.00    +0.000 C 
ATOM     13  C   UNL     1      42.888   4.675  13.313  0.00  0.00    +0.000 C 
ATOM     14  N   UNL     1      43.346   3.268  11.291  0.00  0.00    +0.000 NA
ATOM     15  H   UNL     1      42.934   3.094  10.372  0.00  0.00    +0.000 HD
ENDBRANCH   1  10
BRANCH   3  16
ATOM     16  C   UNL     1      48.848   7.870  12.492  0.00  0.00    +0.000 C 
BRANCH  16  17
ATOM     17  C   UNL     1      49.252   8.338  13.887  0.00  0.00    +0.000 C 
BRANCH  17  18
ATOM     18  C   UNL     1      48.630   7.496  14.994  0.00  0.00    +0.000 C 
BRANCH  18  19
ATOM     19  O   UNL     1      48.884   6.119  14.748  0.00  0.00    +0.000 OA
ATOM     20  H   UNL     1      48.225   5.603  15.242  0.00  0.00    +0.000 HD
ENDBRANCH  18  19
ENDBRANCH  17  18
ENDBRANCH  16  17
ENDBRANCH   3  16
BRANCH   5  21
ATOM     21  C   UNL     1      44.760  10.760  11.829  0.00  0.00    +0.000 C 
BRANCH  21  22
ATOM     22  C   UNL     1      43.317  10.717  11.327  0.00  0.00    +0.000 C 
BRANCH  22  23
ATOM     23  N   UNL     1      42.423  11.449  12.243  0.00  0.00    +0.000 N 
ATOM     24  C   UNL     1      41.067  11.121  12.036  0.00  0.00    +0.000 A 
ATOM     25  C   UNL     1      40.087  11.714  12.827  0.00  0.00    +0.000 A 
ATOM     26  C   UNL     1      38.745  11.367  12.625  0.00  0.00    +0.000 A 
ATOM     27  C   UNL     1      38.408  10.440  11.638  0.00  0.00    +0.000 A 
ATOM     28  C   UNL     1      39.446   9.899  10.909  0.00  0.00    +0.000 A 
ATOM     29  N   UNL     1      40.748  10.217  11.093  0.00  0.00    +0.000 NA
ATOM     30  H   UNL     1      42.524  12.457  12.158  0.00  0.00    +0.000 HD
BRANCH  27  31
ATOM     31  C   UNL     1      36.988  10.075  11.415  0.00  0.00    +0.000 C 
ATOM     32  N   UNL     1      36.016  10.711  12.143  0.00  0.00    +0.000 N 
ATOM     33  O   UNL     1      36.678   9.218  10.601  0.00  0.00    +0.000 OA
ATOM     34  H   UNL     1      36.159  11.433  12.829  0.00  0.00    +0.000 HD
ATOM     35  H   UNL     1      35.061  10.432  11.956  0.00  0.00    +0.000 HD
ENDBRANCH  27  31
ENDBRANCH  22  23
ENDBRANCH  21  22
ENDBRANCH   5  21
TORSDOF 9
ENDMDL
MODEL 8
REMARK VINA RESULT:    -6.346      3.332      8.503
REMARK INTER + INTRA:         -10.813
REMARK INTER:                  -9.404
REMARK INTRA:                  -1.408
REMARK UNBOUND:                -1.312
REMARK  Name = 
REMARK  11 active torsions:
REMARK  status: ('A' for Active; 'I' for Inactive)
REMARK    1  A    between atoms: C_1  and  C_2
REMARK    2  A    between atoms: N_4  and  C_5
REMARK    3  A    between atoms: C_7  and  C_8
REMARK    4  A    between atoms: C_8  and  C_9
REMARK    5  A    between atoms: C_9  and  C_10
REMARK    6  A    between atoms: C_10  and  O_11
REMARK    7  A    between atoms: C_13  and  C_14
REMARK    8  A    between atoms: C_14  and  C_15
REMARK    9  A    between atoms: C_15  and  N_16
REMARK   10  A    between atoms: C_20  and  C_21
REMARK   11  A    between atoms: C_28  and  C_29
REMARK                            x       y       z     vdW  Elec       q    Type
REMARK                         _______ _______ _______ _____ _____    ______ ____
ROOT
ATOM      1  C   UNL     1      46.422   6.163  12.396  0.00  0.00    +0.000 A 
ATOM      2  C   UNL     1      46.437   5.150  13.366  0.00  0.00    +0.000 A 
ATOM      3  C   UNL     1      47.351   5.142  14.432  0.00  0.00    +0.000 A 
ATOM      4  C   UNL     1      48.273   6.188  14.548  0.00  0.00    +0.000 A 
ATOM      5  C   UNL     1      48.319   7.198  13.586  0.00  0.00    +0.000 A 
ATOM      6  C   UNL     1      47.382   7.180  12.539  0.00  0.00    +0.000 A 
ENDROOT
BRANCH   1  10
ATOM      7  C   UNL     1      44.868   3.154  10.410  0.00  0.00    +0.000 C 
ATOM      8  C   UNL     1      44.685   4.492   9.688  0.00  0.00    +0.000 C 
ATOM      9  C   UNL     1      45.815   5.494  10.062  0.00  0.00    +0.000 C 
ATOM     10  N   UNL     1      45.527   6.146  11.346  0.00  0.00    +0.000 N 
ATOM     11  C   UNL     1      44.209   6.784  11.422  0.00  0.00    +0.000 C 
ATOM     12  C   UNL     1      43.088   5.767  11.094  0.00  0.00    +0.000 C 
ATOM     13  C   UNL     1      42.802   4.835  12.274  0.00  0.00    +0.000 C 
ATOM     14  N   UNL     1      43.304   5.027   9.826  0.00  0.00    +0.000 NA
ATOM     15  H   UNL     1      43.187   5.709   9.073  0.00  0.00    +0.000 HD
ENDBRANCH   1  10
BRANCH   3  16
ATOM     16  C   UNL     1      47.383   3.976  15.387  0.00  0.00    +0.000 C 
BRANCH  16  17
ATOM     17  C   UNL     1      48.149   4.241  16.681  0.00  0.00    +0.000 C 
BRANCH  17  18
ATOM     18  C   UNL     1      47.298   4.020  17.926  0.00  0.00    +0.000 C 
BRANCH  18  19
ATOM     19  O   UNL     1      46.549   2.819  17.786  0.00  0.00    +0.000 OA
ATOM     20  H   UNL     1      45.756   3.023  17.263  0.00  0.00    +0.000 HD
ENDBRANCH  18  19
ENDBRANCH  17  18
ENDBRANCH  16  17
ENDBRANCH   3  16
BRANCH   5  21
ATOM     21  C   UNL     1      49.379   8.274  13.641  0.00  0.00    +0.000 C 
BRANCH  21  22
ATOM     22  C   UNL     1      49.868   8.562  15.060  0.00  0.00    +0.000 C 
BRANCH  22  23
ATOM     23  N   UNL     1      48.948   9.482  15.753  0.00  0.00    +0.000 N 
ATOM     24  C   UNL     1      48.571   9.000  17.024  0.00  0.00    +0.000 A 
ATOM     25  C   UNL     1      47.714   9.754  17.820  0.00  0.00    +0.000 A 
ATOM     26  C   UNL     1      47.361   9.273  19.088  0.00  0.00    +0.000 A 
ATOM     27  C   UNL     1      47.866   8.051  19.533  0.00  0.00    +0.000 A 
ATOM     28  C   UNL     1      48.713   7.377  18.678  0.00  0.00    +0.000 A 
ATOM     29  N   UNL     1      49.071   7.828  17.454  0.00  0.00    +0.000 NA
ATOM     30  H   UNL     1      48.104   9.662  15.216  0.00  0.00    +0.000 HD
BRANCH  27  31
ATOM     31  C   UNL     1      47.488   7.534  20.871  0.00  0.00    +0.000 C 
ATOM     32  N   UNL     1      47.260   8.425  21.887  0.00  0.00    +0.000 N 
ATOM     33  O   UNL     1      47.385   6.334  21.076  0.00  0.00    +0.000 OA
ATOM     34  H   UNL     1      47.310   9.428  21.826  0.00  0.00    +0.000 HD
ATOM     35  H   UNL     1      47.003   8.028  22.782  0.00  0.00    +0.000 HD
ENDBRANCH  27  31
ENDBRANCH  22  23
ENDBRANCH  21  22
ENDBRANCH   5  21
TORSDOF 9
ENDMDL
MODEL 9
REMARK VINA RESULT:    -6.217      4.517      7.443
REMARK INTER + INTRA:         -10.618
REMARK INTER:                  -9.268
REMARK INTRA:                  -1.350
REMARK UNBOUND:                -1.312
REMARK  Name = 
REMARK  11 active torsions:
REMARK  status: ('A' for Active; 'I' for Inactive)
REMARK    1  A    between atoms: C_1  and  C_2
REMARK    2  A    between atoms: N_4  and  C_5
REMARK    3  A    between atoms: C_7  and  C_8
REMARK    4  A    between atoms: C_8  and  C_9
REMARK    5  A    between atoms: C_9  and  C_10
REMARK    6  A    between atoms: C_10  and  O_11
REMARK    7  A    between atoms: C_13  and  C_14
REMARK    8  A    between atoms: C_14  and  C_15
REMARK    9  A    between atoms: C_15  and  N_16
REMARK   10  A    between atoms: C_20  and  C_21
REMARK   11  A    between atoms: C_28  and  C_29
REMARK                            x       y       z     vdW  Elec       q    Type
REMARK                         _______ _______ _______ _____ _____    ______ ____
ROOT
ATOM      1  C   UNL     1      48.017   7.212  18.336  0.00  0.00    +0.000 A 
ATOM      2  C   UNL     1      47.493   8.389  18.890  0.00  0.00    +0.000 A 
ATOM      3  C   UNL     1      47.754   9.657  18.347  0.00  0.00    +0.000 A 
ATOM      4  C   UNL     1      48.550   9.758  17.200  0.00  0.00    +0.000 A 
ATOM      5  C   UNL     1      49.121   8.617  16.636  0.00  0.00    +0.000 A 
ATOM      6  C   UNL     1      48.830   7.363  17.200  0.00  0.00    +0.000 A 
ENDROOT
BRANCH   1  10
ATOM      7  C   UNL     1      49.758   3.741  17.759  0.00  0.00    +0.000 C 
ATOM      8  C   UNL     1      48.404   3.609  18.463  0.00  0.00    +0.000 C 
ATOM      9  C   UNL     1      47.457   4.785  18.088  0.00  0.00    +0.000 C 
ATOM     10  N   UNL     1      47.762   5.975  18.893  0.00  0.00    +0.000 N 
ATOM     11  C   UNL     1      47.770   5.745  20.341  0.00  0.00    +0.000 C 
ATOM     12  C   UNL     1      48.751   4.605  20.709  0.00  0.00    +0.000 C 
ATOM     13  C   UNL     1      50.207   5.077  20.688  0.00  0.00    +0.000 C 
ATOM     14  N   UNL     1      48.546   3.362  19.923  0.00  0.00    +0.000 NA
ATOM     15  H   UNL     1      47.654   2.971  20.233  0.00  0.00    +0.000 HD
ENDBRANCH   1  10
BRANCH   3  16
ATOM     16  C   UNL     1      47.246  10.894  19.043  0.00  0.00    +0.000 C 
BRANCH  16  17
ATOM     17  C   UNL     1      46.608  10.635  20.405  0.00  0.00    +0.000 C 
BRANCH  17  18
ATOM     18  C   UNL     1      45.179  11.157  20.497  0.00  0.00    +0.000 C 
BRANCH  18  19
ATOM     19  O   UNL     1      45.106  12.181  21.481  0.00  0.00    +0.000 OA
ATOM     20  H   UNL     1      44.961  11.755  22.342  0.00  0.00    +0.000 HD
ENDBRANCH  18  19
ENDBRANCH  17  18
ENDBRANCH  16  17
ENDBRANCH   3  16
BRANCH   5  21
ATOM     21  C   UNL     1      50.068   8.723  15.463  0.00  0.00    +0.000 C 
BRANCH  21  22
ATOM     22  C   UNL     1      50.068   7.479  14.577  0.00  0.00    +0.000 C 
BRANCH  22  23
ATOM     23  N   UNL     1      49.302   7.718  13.339  0.00  0.00    +0.000 N 
ATOM     24  C   UNL     1      48.237   6.805  13.189  0.00  0.00    +0.000 A 
ATOM     25  C   UNL     1      47.404   6.898  12.078  0.00  0.00    +0.000 A 
ATOM     26  C   UNL     1      46.338   5.998  11.948  0.00  0.00    +0.000 A 
ATOM     27  C   UNL     1      46.128   5.023  12.924  0.00  0.00    +0.000 A 
ATOM     28  C   UNL     1      47.001   5.012  13.992  0.00  0.00    +0.000 A 
ATOM     29  N   UNL     1      48.031   5.876  14.139  0.00  0.00    +0.000 NA
ATOM     30  H   UNL     1      49.886   7.668  12.508  0.00  0.00    +0.000 HD
BRANCH  27  31
ATOM     31  C   UNL     1      45.006   4.063  12.787  0.00  0.00    +0.000 C 
ATOM     32  N   UNL     1      45.287   2.747  12.522  0.00  0.00    +0.000 N 
ATOM     33  O   UNL     1      43.847   4.429  12.902  0.00  0.00    +0.000 OA
ATOM     34  H   UNL     1      46.201   2.340  12.416  0.00  0.00    +0.000 HD
ATOM     35  H   UNL     1      44.491   2.128  12.439  0.00  0.00    +0.000 HD
ENDBRANCH  27  31
ENDBRANCH  22  23
ENDBRANCH  21  22
ENDBRANCH   5  21
TORSDOF 9
ENDMDL
