MODEL 1
REMARK VINA RESULT:    -8.322      0.000      0.000
REMARK INTER + INTRA:         -13.049
REMARK INTER:                 -11.728
REMARK INTRA:                  -1.321
REMARK UNBOUND:                -1.321
REMARK  Name = 
REMARK  10 active torsions:
REMARK  status: ('A' for Active; 'I' for Inactive)
REMARK    1  A    between atoms: C_1  and  N_2
REMARK    2  A    between atoms: C_4  and  C_5
REMARK    3  A    between atoms: N_7  and  C_8
REMARK    4  A    between atoms: C_8  and  C_9
REMARK    5  A    between atoms: C_12  and  C_13
REMARK    6  A    between atoms: C_13  and  C_14
REMARK    7  A    between atoms: C_14  and  C_15
REMARK    8  A    between atoms: C_14  and  C_16
REMARK    9  A    between atoms: C_14  and  C_17
REMARK   10  A    between atoms: C_17  and  N_18
REMARK                            x       y       z     vdW  Elec       q    Type
REMARK                         _______ _______ _______ _____ _____    ______ ____
ROOT
ATOM      1  C   UNL     1      46.479   7.505  12.547  0.00  0.00    +0.000 A 
ATOM      2  C   UNL     1      46.982   6.875  11.405  0.00  0.00    +0.000 A 
ATOM      3  C   UNL     1      46.163   6.031  10.656  0.00  0.00    +0.000 A 
ATOM      4  C   UNL     1      44.842   5.768  11.051  0.00  0.00    +0.000 A 
ATOM      5  C   UNL     1      44.324   6.448  12.156  0.00  0.00    +0.000 A 
ATOM      6  C   UNL     1      45.135   7.313  12.894  0.00  0.00    +0.000 A 
ENDROOT
BRANCH   1   7
ATOM      7  C   UNL     1      47.359   8.404  13.372  0.00  0.00    +0.000 C 
BRANCH   7  10
ATOM      8  C   UNL     1      48.782   6.997  14.797  0.00  0.00    +0.000 C 
ATOM      9  O   UNL     1      49.620   6.847  13.921  0.00  0.00    +0.000 OA
ATOM     10  N   UNL     1      47.668   7.796  14.641  0.00  0.00    +0.000 N 
ATOM     11  H   UNL     1      46.927   7.723  15.322  0.00  0.00    +0.000 HD
BRANCH   8  15
ATOM     12  C   UNL     1      50.374   5.974  19.397  0.00  0.00    +0.000 C 
ATOM     13  N   UNL     1      49.626   5.905  18.164  0.00  0.00    +0.000 N 
ATOM     14  C   UNL     1      49.714   6.796  17.129  0.00  0.00    +0.000 A 
ATOM     15  C   UNL     1      48.880   6.361  16.103  0.00  0.00    +0.000 A 
ATOM     16  C   UNL     1      48.233   5.168  16.577  0.00  0.00    +0.000 A 
ATOM     17  C   UNL     1      47.283   4.241  16.154  0.00  0.00    +0.000 A 
ATOM     18 CL   UNL     1      46.457   4.432  14.686  0.00  0.00    +0.000 Cl
ATOM     19  N   UNL     1      46.911   3.193  16.913  0.00  0.00    +0.000 NA
ATOM     20  C   UNL     1      47.497   3.079  18.108  0.00  0.00    +0.000 A 
ATOM     21  N   UNL     1      48.409   3.894  18.658  0.00  0.00    +0.000 NA
ATOM     22  C   UNL     1      48.732   4.918  17.851  0.00  0.00    +0.000 A 
ENDBRANCH   8  15
ENDBRANCH   7  10
ENDBRANCH   1   7
BRANCH   4  23
ATOM     23  C   UNL     1      44.009   4.718  10.341  0.00  0.00    +0.000 C 
BRANCH  23  24
ATOM     24  C   UNL     1      44.297   3.237  10.773  0.00  0.00    +0.000 C 
ATOM     25  C   UNL     1      45.615   3.234  11.575  0.00  0.00    +0.000 C 
ATOM     26  C   UNL     1      43.142   2.792  11.696  0.00  0.00    +0.000 C 
BRANCH  24  27
ATOM     27  C   UNL     1      44.490   2.306   9.515  0.00  0.00    +0.000 C 
BRANCH  27  28
ATOM     28  N   UNL     1      45.730   2.473   8.700  0.00  0.00    +0.000 NA
ATOM     29  C   UNL     1      46.180   1.203   8.114  0.00  0.00    +0.000 C 
ATOM     30  C   UNL     1      47.403   1.322   7.214  0.00  0.00    +0.000 C 
ATOM     31  C   UNL     1      47.181   2.342   6.120  0.00  0.00    +0.000 C 
ATOM     32  C   UNL     1      46.744   3.660   6.745  0.00  0.00    +0.000 C 
ATOM     33  C   UNL     1      45.507   3.473   7.635  0.00  0.00    +0.000 C 
ENDBRANCH  27  28
ENDBRANCH  24  27
ENDBRANCH  23  24
ENDBRANCH   4  23
TORSDOF 7
ENDMDL
MODEL 2
REMARK VINA RESULT:    -6.940      1.662      1.922
REMARK INTER + INTRA:         -11.101
REMARK INTER:                 -10.125
REMARK INTRA:                  -0.976
REMARK UNBOUND:                -1.321
REMARK  Name = 
REMARK  10 active torsions:
REMARK  status: ('A' for Active; 'I' for Inactive)
REMARK    1  A    between atoms: C_1  and  N_2
REMARK    2  A    between atoms: C_4  and  C_5
REMARK    3  A    between atoms: N_7  and  C_8
REMARK    4  A    between atoms: C_8  and  C_9
REMARK    5  A    between atoms: C_12  and  C_13
REMARK    6  A    between atoms: C_13  and  C_14
REMARK    7  A    between atoms: C_14  and  C_15
REMARK    8  A    between atoms: C_14  and  C_16
REMARK    9  A    between atoms: C_14  and  C_17
REMARK   10  A    between atoms: C_17  and  N_18
REMARK                            x       y       z     vdW  Elec       q    Type
REMARK                         _______ _______ _______ _____ _____    ______ ____
ROOT
ATOM      1  C   UNL     1      47.815   7.979  13.220  0.00  0.00    +0.000 A 
ATOM      2  C   UNL     1      48.039   7.108  12.149  0.00  0.00    +0.000 A 
ATOM      3  C   UNL     1      46.963   6.613  11.414  0.00  0.00    +0.000 A 
ATOM      4  C   UNL     1      45.642   6.946  11.755  0.00  0.00    +0.000 A 
ATOM      5  C   UNL     1      45.425   7.865  12.784  0.00  0.00    +0.000 A 
ATOM      6  C   UNL     1      46.503   8.380  13.506  0.00  0.00    +0.000 A 
ENDROOT
BRANCH   1   7
ATOM      7  C   UNL     1      48.968   8.504  14.031  0.00  0.00    +0.000 C 
BRANCH   7  10
ATOM      8  C   UNL     1      49.320   7.378  16.185  0.00  0.00    +0.000 C 
ATOM      9  O   UNL     1      48.530   8.108  16.767  0.00  0.00    +0.000 OA
ATOM     10  N   UNL     1      49.553   7.457  14.828  0.00  0.00    +0.000 N 
ATOM     11  H   UNL     1      50.348   6.963  14.449  0.00  0.00    +0.000 HD
BRANCH   8  15
ATOM     12  C   UNL     1      53.010   5.139  18.657  0.00  0.00    +0.000 C 
ATOM     13  N   UNL     1      51.765   5.348  17.958  0.00  0.00    +0.000 N 
ATOM     14  C   UNL     1      51.278   6.557  17.541  0.00  0.00    +0.000 A 
ATOM     15  C   UNL     1      50.083   6.339  16.862  0.00  0.00    +0.000 A 
ATOM     16  C   UNL     1      49.829   4.925  16.919  0.00  0.00    +0.000 A 
ATOM     17  C   UNL     1      48.858   4.008  16.521  0.00  0.00    +0.000 A 
ATOM     18 CL   UNL     1      47.413   4.513  15.794  0.00  0.00    +0.000 Cl
ATOM     19  N   UNL     1      48.974   2.688  16.760  0.00  0.00    +0.000 NA
ATOM     20  C   UNL     1      50.072   2.289  17.406  0.00  0.00    +0.000 A 
ATOM     21  N   UNL     1      51.079   3.047  17.864  0.00  0.00    +0.000 NA
ATOM     22  C   UNL     1      50.900   4.351  17.596  0.00  0.00    +0.000 A 
ENDBRANCH   8  15
ENDBRANCH   7  10
ENDBRANCH   1   7
BRANCH   4  23
ATOM     23  C   UNL     1      44.468   6.273  11.071  0.00  0.00    +0.000 C 
BRANCH  23  24
ATOM     24  C   UNL     1      44.076   4.868  11.650  0.00  0.00    +0.000 C 
ATOM     25  C   UNL     1      45.245   4.388  12.536  0.00  0.00    +0.000 C 
ATOM     26  C   UNL     1      42.822   5.064  12.529  0.00  0.00    +0.000 C 
BRANCH  24  27
ATOM     27  C   UNL     1      43.876   3.813  10.495  0.00  0.00    +0.000 C 
BRANCH  27  28
ATOM     28  N   UNL     1      45.064   3.432   9.676  0.00  0.00    +0.000 NA
ATOM     29  C   UNL     1      44.965   2.059   9.164  0.00  0.00    +0.000 C 
ATOM     30  C   UNL     1      46.118   1.637   8.262  0.00  0.00    +0.000 C 
ATOM     31  C   UNL     1      46.294   2.602   7.111  0.00  0.00    +0.000 C 
ATOM     32  C   UNL     1      46.426   4.017   7.659  0.00  0.00    +0.000 C 
ATOM     33  C   UNL     1      45.233   4.382   8.555  0.00  0.00    +0.000 C 
ENDBRANCH  27  28
ENDBRANCH  24  27
ENDBRANCH  23  24
ENDBRANCH   4  23
TORSDOF 7
ENDMDL
MODEL 3
REMARK VINA RESULT:    -6.389      2.036      2.393
REMARK INTER + INTRA:         -10.324
REMARK INTER:                  -9.964
REMARK INTRA:                  -0.360
REMARK UNBOUND:                -1.321
REMARK  Name = 
REMARK  10 active torsions:
REMARK  status: ('A' for Active; 'I' for Inactive)
REMARK    1  A    between atoms: C_1  and  N_2
REMARK    2  A    between atoms: C_4  and  C_5
REMARK    3  A    between atoms: N_7  and  C_8
REMARK    4  A    between atoms: C_8  and  C_9
REMARK    5  A    between atoms: C_12  and  C_13
REMARK    6  A    between atoms: C_13  and  C_14
REMARK    7  A    between atoms: C_14  and  C_15
REMARK    8  A    between atoms: C_14  and  C_16
REMARK    9  A    between atoms: C_14  and  C_17
REMARK   10  A    between atoms: C_17  and  N_18
REMARK                            x       y       z     vdW  Elec       q    Type
REMARK                         _______ _______ _______ _____ _____    ______ ____
ROOT
ATOM      1  C   UNL     1      47.173   7.809  13.639  0.00  0.00    +0.000 A 
ATOM      2  C   UNL     1      46.140   8.331  12.855  0.00  0.00    +0.000 A 
ATOM      3  C   UNL     1      45.551   7.546  11.864  0.00  0.00    +0.000 A 
ATOM      4  C   UNL     1      46.004   6.242  11.611  0.00  0.00    +0.000 A 
ATOM      5  C   UNL     1      46.993   5.702  12.437  0.00  0.00    +0.000 A 
ATOM      6  C   UNL     1      47.568   6.478  13.446  0.00  0.00    +0.000 A 
ENDROOT
BRANCH   1   7
ATOM      7  C   UNL     1      47.828   8.653  14.698  0.00  0.00    +0.000 C 
BRANCH   7  10
ATOM      8  C   UNL     1      49.631   7.814  16.140  0.00  0.00    +0.000 C 
ATOM      9  O   UNL     1      50.463   8.554  15.637  0.00  0.00    +0.000 OA
ATOM     10  N   UNL     1      48.297   7.836  15.788  0.00  0.00    +0.000 N 
ATOM     11  H   UNL     1      47.707   7.078  16.097  0.00  0.00    +0.000 HD
BRANCH   8  15
ATOM     12  C   UNL     1      51.692   3.892  18.400  0.00  0.00    +0.000 C 
ATOM     13  N   UNL     1      50.882   5.063  18.167  0.00  0.00    +0.000 N 
ATOM     14  C   UNL     1      50.920   5.849  17.047  0.00  0.00    +0.000 A 
ATOM     15  C   UNL     1      49.957   6.845  17.177  0.00  0.00    +0.000 A 
ATOM     16  C   UNL     1      49.346   6.662  18.465  0.00  0.00    +0.000 A 
ATOM     17  C   UNL     1      48.384   7.262  19.274  0.00  0.00    +0.000 A 
ATOM     18 CL   UNL     1      47.629   8.710  18.821  0.00  0.00    +0.000 Cl
ATOM     19  N   UNL     1      48.058   6.776  20.487  0.00  0.00    +0.000 NA
ATOM     20  C   UNL     1      48.707   5.681  20.890  0.00  0.00    +0.000 A 
ATOM     21  N   UNL     1      49.663   5.004  20.237  0.00  0.00    +0.000 NA
ATOM     22  C   UNL     1      49.942   5.543  19.037  0.00  0.00    +0.000 A 
ENDBRANCH   8  15
ENDBRANCH   7  10
ENDBRANCH   1   7
BRANCH   4  23
ATOM     23  C   UNL     1      45.487   5.454  10.423  0.00  0.00    +0.000 C 
BRANCH  23  24
ATOM     24  C   UNL     1      44.458   4.321  10.773  0.00  0.00    +0.000 C 
ATOM     25  C   UNL     1      45.000   3.565  12.004  0.00  0.00    +0.000 C 
ATOM     26  C   UNL     1      43.126   5.007  11.147  0.00  0.00    +0.000 C 
BRANCH  24  27
ATOM     27  C   UNL     1      44.324   3.289   9.588  0.00  0.00    +0.000 C 
BRANCH  27  28
ATOM     28  N   UNL     1      45.551   2.947   8.811  0.00  0.00    +0.000 NA
ATOM     29  C   UNL     1      45.655   1.506   8.550  0.00  0.00    +0.000 C 
ATOM     30  C   UNL     1      46.853   1.103   7.700  0.00  0.00    +0.000 C 
ATOM     31  C   UNL     1      46.878   1.864   6.393  0.00  0.00    +0.000 C 
ATOM     32  C   UNL     1      46.800   3.357   6.682  0.00  0.00    +0.000 C 
ATOM     33  C   UNL     1      45.571   3.697   7.537  0.00  0.00    +0.000 C 
ENDBRANCH  27  28
ENDBRANCH  24  27
ENDBRANCH  23  24
ENDBRANCH   4  23
TORSDOF 7
ENDMDL
MODEL 4
REMARK VINA RESULT:    -6.328      3.502      9.342
REMARK INTER + INTRA:         -10.238
REMARK INTER:                  -8.716
REMARK INTRA:                  -1.522
REMARK UNBOUND:                -1.321
REMARK  Name = 
REMARK  10 active torsions:
REMARK  status: ('A' for Active; 'I' for Inactive)
REMARK    1  A    between atoms: C_1  and  N_2
REMARK    2  A    between atoms: C_4  and  C_5
REMARK    3  A    between atoms: N_7  and  C_8
REMARK    4  A    between atoms: C_8  and  C_9
REMARK    5  A    between atoms: C_12  and  C_13
REMARK    6  A    between atoms: C_13  and  C_14
REMARK    7  A    between atoms: C_14  and  C_15
REMARK    8  A    between atoms: C_14  and  C_16
REMARK    9  A    between atoms: C_14  and  C_17
REMARK   10  A    between atoms: C_17  and  N_18
REMARK                            x       y       z     vdW  Elec       q    Type
REMARK                         _______ _______ _______ _____ _____    ______ ____
ROOT
ATOM      1  C   UNL     1      47.952   4.212  17.751  0.00  0.00    +0.000 A 
ATOM      2  C   UNL     1      49.065   3.956  18.558  0.00  0.00    +0.000 A 
ATOM      3  C   UNL     1      49.213   4.623  19.774  0.00  0.00    +0.000 A 
ATOM      4  C   UNL     1      48.278   5.583  20.190  0.00  0.00    +0.000 A 
ATOM      5  C   UNL     1      47.136   5.790  19.412  0.00  0.00    +0.000 A 
ATOM      6  C   UNL     1      46.973   5.106  18.205  0.00  0.00    +0.000 A 
ENDROOT
BRANCH   1   7
ATOM      7  C   UNL     1      47.792   3.512  16.429  0.00  0.00    +0.000 C 
BRANCH   7  10
ATOM      8  C   UNL     1      46.811   4.008  14.232  0.00  0.00    +0.000 C 
ATOM      9  O   UNL     1      47.510   3.183  13.663  0.00  0.00    +0.000 OA
ATOM     10  N   UNL     1      46.834   4.197  15.599  0.00  0.00    +0.000 N 
ATOM     11  H   UNL     1      46.381   5.015  15.977  0.00  0.00    +0.000 HD
BRANCH   8  15
ATOM     12  C   UNL     1      42.725   5.466  11.800  0.00  0.00    +0.000 C 
ATOM     13  N   UNL     1      44.028   5.495  12.419  0.00  0.00    +0.000 N 
ATOM     14  C   UNL     1      44.587   4.479  13.146  0.00  0.00    +0.000 A 
ATOM     15  C   UNL     1      45.868   4.866  13.529  0.00  0.00    +0.000 A 
ATOM     16  C   UNL     1      46.059   6.202  13.035  0.00  0.00    +0.000 A 
ATOM     17  C   UNL     1      47.020   7.211  13.057  0.00  0.00    +0.000 A 
ATOM     18 CL   UNL     1      48.452   7.045  13.949  0.00  0.00    +0.000 Cl
ATOM     19  N   UNL     1      46.835   8.395  12.444  0.00  0.00    +0.000 NA
ATOM     20  C   UNL     1      45.674   8.567  11.807  0.00  0.00    +0.000 A 
ATOM     21  N   UNL     1      44.652   7.704  11.711  0.00  0.00    +0.000 NA
ATOM     22  C   UNL     1      44.901   6.546  12.346  0.00  0.00    +0.000 A 
ENDBRANCH   8  15
ENDBRANCH   7  10
ENDBRANCH   1   7
BRANCH   4  23
ATOM     23  C   UNL     1      48.527   6.432  21.421  0.00  0.00    +0.000 C 
BRANCH  23  24
ATOM     24  C   UNL     1      48.956   7.915  21.132  0.00  0.00    +0.000 C 
ATOM     25  C   UNL     1      47.678   8.779  21.150  0.00  0.00    +0.000 C 
ATOM     26  C   UNL     1      49.883   8.360  22.283  0.00  0.00    +0.000 C 
BRANCH  24  27
ATOM     27  C   UNL     1      49.614   8.048  19.705  0.00  0.00    +0.000 C 
BRANCH  27  28
ATOM     28  N   UNL     1      49.092   9.101  18.786  0.00  0.00    +0.000 NA
ATOM     29  C   UNL     1      50.093  10.140  18.512  0.00  0.00    +0.000 C 
ATOM     30  C   UNL     1      49.641  11.207  17.523  0.00  0.00    +0.000 C 
ATOM     31  C   UNL     1      49.176  10.588  16.224  0.00  0.00    +0.000 C 
ATOM     32  C   UNL     1      48.118   9.534  16.521  0.00  0.00    +0.000 C 
ATOM     33  C   UNL     1      48.636   8.488  17.519  0.00  0.00    +0.000 C 
ENDBRANCH  27  28
ENDBRANCH  24  27
ENDBRANCH  23  24
ENDBRANCH   4  23
TORSDOF 7
ENDMDL
MODEL 5
REMARK VINA RESULT:    -6.293      3.306      9.061
REMARK INTER + INTRA:         -10.189
REMARK INTER:                  -8.782
REMARK INTRA:                  -1.407
REMARK UNBOUND:                -1.321
REMARK  Name = 
REMARK  10 active torsions:
REMARK  status: ('A' for Active; 'I' for Inactive)
REMARK    1  A    between atoms: C_1  and  N_2
REMARK    2  A    between atoms: C_4  and  C_5
REMARK    3  A    between atoms: N_7  and  C_8
REMARK    4  A    between atoms: C_8  and  C_9
REMARK    5  A    between atoms: C_12  and  C_13
REMARK    6  A    between atoms: C_13  and  C_14
REMARK    7  A    between atoms: C_14  and  C_15
REMARK    8  A    between atoms: C_14  and  C_16
REMARK    9  A    between atoms: C_14  and  C_17
REMARK   10  A    between atoms: C_17  and  N_18
REMARK                            x       y       z     vdW  Elec       q    Type
REMARK                         _______ _______ _______ _____ _____    ______ ____
ROOT
ATOM      1  C   UNL     1      47.895   4.280  17.700  0.00  0.00    +0.000 A 
ATOM      2  C   UNL     1      49.161   4.071  18.253  0.00  0.00    +0.000 A 
ATOM      3  C   UNL     1      49.536   4.744  19.416  0.00  0.00    +0.000 A 
ATOM      4  C   UNL     1      48.671   5.667  20.026  0.00  0.00    +0.000 A 
ATOM      5  C   UNL     1      47.385   5.827  19.506  0.00  0.00    +0.000 A 
ATOM      6  C   UNL     1      46.999   5.135  18.356  0.00  0.00    +0.000 A 
ENDROOT
BRANCH   1   7
ATOM      7  C   UNL     1      47.488   3.572  16.436  0.00  0.00    +0.000 C 
BRANCH   7  10
ATOM      8  C   UNL     1      46.790   4.216  14.171  0.00  0.00    +0.000 C 
ATOM      9  O   UNL     1      47.177   3.163  13.684  0.00  0.00    +0.000 OA
ATOM     10  N   UNL     1      46.843   4.481  15.524  0.00  0.00    +0.000 N 
ATOM     11  H   UNL     1      46.689   5.430  15.832  0.00  0.00    +0.000 HD
BRANCH   8  15
ATOM     12  C   UNL     1      46.123   8.727  12.185  0.00  0.00    +0.000 C 
ATOM     13  N   UNL     1      45.924   7.335  12.508  0.00  0.00    +0.000 N 
ATOM     14  C   UNL     1      46.782   6.554  13.234  0.00  0.00    +0.000 A 
ATOM     15  C   UNL     1      46.215   5.291  13.375  0.00  0.00    +0.000 A 
ATOM     16  C   UNL     1      44.971   5.316  12.656  0.00  0.00    +0.000 A 
ATOM     17  C   UNL     1      43.923   4.459  12.326  0.00  0.00    +0.000 A 
ATOM     18 CL   UNL     1      43.963   2.816  12.740  0.00  0.00    +0.000 Cl
ATOM     19  N   UNL     1      42.865   4.863  11.598  0.00  0.00    +0.000 NA
ATOM     20  C   UNL     1      42.863   6.137  11.196  0.00  0.00    +0.000 A 
ATOM     21  N   UNL     1      43.799   7.071  11.417  0.00  0.00    +0.000 NA
ATOM     22  C   UNL     1      44.827   6.602  12.146  0.00  0.00    +0.000 A 
ENDBRANCH   8  15
ENDBRANCH   7  10
ENDBRANCH   1   7
BRANCH   4  23
ATOM     23  C   UNL     1      49.141   6.527  21.183  0.00  0.00    +0.000 C 
BRANCH  23  24
ATOM     24  C   UNL     1      49.372   8.041  20.836  0.00  0.00    +0.000 C 
ATOM     25  C   UNL     1      47.988   8.722  20.785  0.00  0.00    +0.000 C 
ATOM     26  C   UNL     1      50.197   8.657  21.987  0.00  0.00    +0.000 C 
BRANCH  24  27
ATOM     27  C   UNL     1      50.047   8.203  19.420  0.00  0.00    +0.000 C 
BRANCH  27  28
ATOM     28  N   UNL     1      49.244   8.821  18.325  0.00  0.00    +0.000 NA
ATOM     29  C   UNL     1      49.761  10.140  17.938  0.00  0.00    +0.000 C 
ATOM     30  C   UNL     1      49.022  10.791  16.776  0.00  0.00    +0.000 C 
ATOM     31  C   UNL     1      48.989   9.880  15.569  0.00  0.00    +0.000 C 
ATOM     32  C   UNL     1      48.424   8.527  15.979  0.00  0.00    +0.000 C 
ATOM     33  C   UNL     1      49.213   7.924  17.150  0.00  0.00    +0.000 C 
ENDBRANCH  27  28
ENDBRANCH  24  27
ENDBRANCH  23  24
ENDBRANCH   4  23
TORSDOF 7
ENDMDL
MODEL 6
REMARK VINA RESULT:    -6.248      3.400      9.174
REMARK INTER + INTRA:         -10.125
REMARK INTER:                  -7.905
REMARK INTRA:                  -2.221
REMARK UNBOUND:                -1.321
REMARK  Name = 
REMARK  10 active torsions:
REMARK  status: ('A' for Active; 'I' for Inactive)
REMARK    1  A    between atoms: C_1  and  N_2
REMARK    2  A    between atoms: C_4  and  C_5
REMARK    3  A    between atoms: N_7  and  C_8
REMARK    4  A    between atoms: C_8  and  C_9
REMARK    5  A    between atoms: C_12  and  C_13
REMARK    6  A    between atoms: C_13  and  C_14
REMARK    7  A    between atoms: C_14  and  C_15
REMARK    8  A    between atoms: C_14  and  C_16
REMARK    9  A    between atoms: C_14  and  C_17
REMARK   10  A    between atoms: C_17  and  N_18
REMARK                            x       y       z     vdW  Elec       q    Type
REMARK                         _______ _______ _______ _____ _____    ______ ____
ROOT
ATOM      1  C   UNL     1      48.556   3.793  17.963  0.00  0.00    +0.000 A 
ATOM      2  C   UNL     1      49.790   3.416  17.423  0.00  0.00    +0.000 A 
ATOM      3  C   UNL     1      50.973   3.912  17.970  0.00  0.00    +0.000 A 
ATOM      4  C   UNL     1      50.948   4.822  19.038  0.00  0.00    +0.000 A 
ATOM      5  C   UNL     1      49.718   5.147  19.615  0.00  0.00    +0.000 A 
ATOM      6  C   UNL     1      48.534   4.633  19.085  0.00  0.00    +0.000 A 
ENDROOT
BRANCH   1   7
ATOM      7  C   UNL     1      47.274   3.277  17.369  0.00  0.00    +0.000 C 
BRANCH   7  10
ATOM      8  C   UNL     1      47.048   3.946  15.016  0.00  0.00    +0.000 C 
ATOM      9  O   UNL     1      47.606   2.937  14.610  0.00  0.00    +0.000 OA
ATOM     10  N   UNL     1      46.784   4.171  16.352  0.00  0.00    +0.000 N 
ATOM     11  H   UNL     1      46.500   5.098  16.634  0.00  0.00    +0.000 HD
BRANCH   8  15
ATOM     12  C   UNL     1      44.390   6.330  11.554  0.00  0.00    +0.000 C 
ATOM     13  N   UNL     1      45.391   6.053  12.555  0.00  0.00    +0.000 N 
ATOM     14  C   UNL     1      45.457   4.924  13.327  0.00  0.00    +0.000 A 
ATOM     15  C   UNL     1      46.589   5.007  14.130  0.00  0.00    +0.000 A 
ATOM     16  C   UNL     1      47.204   6.275  13.848  0.00  0.00    +0.000 A 
ATOM     17  C   UNL     1      48.290   7.041  14.267  0.00  0.00    +0.000 A 
ATOM     18 CL   UNL     1      49.279   6.541  15.549  0.00  0.00    +0.000 Cl
ATOM     19  N   UNL     1      48.566   8.248  13.738  0.00  0.00    +0.000 NA
ATOM     20  C   UNL     1      47.743   8.688  12.783  0.00  0.00    +0.000 A 
ATOM     21  N   UNL     1      46.656   8.079  12.289  0.00  0.00    +0.000 NA
ATOM     22  C   UNL     1      46.436   6.883  12.860  0.00  0.00    +0.000 A 
ENDBRANCH   8  15
ENDBRANCH   7  10
ENDBRANCH   1   7
BRANCH   4  23
ATOM     23  C   UNL     1      52.219   5.496  19.517  0.00  0.00    +0.000 C 
BRANCH  23  24
ATOM     24  C   UNL     1      52.580   6.835  18.783  0.00  0.00    +0.000 C 
ATOM     25  C   UNL     1      53.992   7.253  19.246  0.00  0.00    +0.000 C 
ATOM     26  C   UNL     1      52.612   6.538  17.268  0.00  0.00    +0.000 C 
BRANCH  24  27
ATOM     27  C   UNL     1      51.578   7.988  19.177  0.00  0.00    +0.000 C 
BRANCH  27  28
ATOM     28  N   UNL     1      50.530   8.377  18.188  0.00  0.00    +0.000 NA
ATOM     29  C   UNL     1      49.203   8.488  18.806  0.00  0.00    +0.000 C 
ATOM     30  C   UNL     1      48.103   8.950  17.859  0.00  0.00    +0.000 C 
ATOM     31  C   UNL     1      48.468  10.257  17.192  0.00  0.00    +0.000 C 
ATOM     32  C   UNL     1      49.833  10.118  16.531  0.00  0.00    +0.000 C 
ATOM     33  C   UNL     1      50.896   9.654  17.537  0.00  0.00    +0.000 C 
ENDBRANCH  27  28
ENDBRANCH  24  27
ENDBRANCH  23  24
ENDBRANCH   4  23
TORSDOF 7
ENDMDL
MODEL 7
REMARK VINA RESULT:    -6.228      3.573      9.822
REMARK INTER + INTRA:         -10.098
REMARK INTER:                  -8.698
REMARK INTRA:                  -1.399
REMARK UNBOUND:                -1.321
REMARK  Name = 
REMARK  10 active torsions:
REMARK  status: ('A' for Active; 'I' for Inactive)
REMARK    1  A    between atoms: C_1  and  N_2
REMARK    2  A    between atoms: C_4  and  C_5
REMARK    3  A    between atoms: N_7  and  C_8
REMARK    4  A    between atoms: C_8  and  C_9
REMARK    5  A    between atoms: C_12  and  C_13
REMARK    6  A    between atoms: C_13  and  C_14
REMARK    7  A    between atoms: C_14  and  C_15
REMARK    8  A    between atoms: C_14  and  C_16
REMARK    9  A    between atoms: C_14  and  C_17
REMARK   10  A    between atoms: C_17  and  N_18
REMARK                            x       y       z     vdW  Elec       q    Type
REMARK                         _______ _______ _______ _____ _____    ______ ____
ROOT
ATOM      1  C   UNL     1      48.353   4.964  17.322  0.00  0.00    +0.000 A 
ATOM      2  C   UNL     1      49.635   5.337  16.907  0.00  0.00    +0.000 A 
ATOM      3  C   UNL     1      50.316   6.355  17.574  0.00  0.00    +0.000 A 
ATOM      4  C   UNL     1      49.718   7.046  18.640  0.00  0.00    +0.000 A 
ATOM      5  C   UNL     1      48.464   6.628  19.092  0.00  0.00    +0.000 A 
ATOM      6  C   UNL     1      47.790   5.593  18.441  0.00  0.00    +0.000 A 
ENDROOT
BRANCH   1   7
ATOM      7  C   UNL     1      47.603   3.879  16.598  0.00  0.00    +0.000 C 
BRANCH   7  10
ATOM      8  C   UNL     1      46.780   4.217  14.308  0.00  0.00    +0.000 C 
ATOM      9  O   UNL     1      47.606   3.453  13.831  0.00  0.00    +0.000 OA
ATOM     10  N   UNL     1      46.662   4.442  15.664  0.00  0.00    +0.000 N 
ATOM     11  H   UNL     1      46.098   5.220  15.973  0.00  0.00    +0.000 HD
BRANCH   8  15
ATOM     12  C   UNL     1      42.861   5.173  11.398  0.00  0.00    +0.000 C 
ATOM     13  N   UNL     1      44.066   5.360  12.171  0.00  0.00    +0.000 N 
ATOM     14  C   UNL     1      44.661   4.413  12.960  0.00  0.00    +0.000 A 
ATOM     15  C   UNL     1      45.825   4.957  13.496  0.00  0.00    +0.000 A 
ATOM     16  C   UNL     1      45.898   6.314  13.029  0.00  0.00    +0.000 A 
ATOM     17  C   UNL     1      46.709   7.439  13.169  0.00  0.00    +0.000 A 
ATOM     18 CL   UNL     1      48.032   7.446  14.228  0.00  0.00    +0.000 Cl
ATOM     19  N   UNL     1      46.446   8.599  12.539  0.00  0.00    +0.000 NA
ATOM     20  C   UNL     1      45.357   8.630  11.765  0.00  0.00    +0.000 A 
ATOM     21  N   UNL     1      44.476   7.643  11.546  0.00  0.00    +0.000 NA
ATOM     22  C   UNL     1      44.796   6.517  12.205  0.00  0.00    +0.000 A 
ENDBRANCH   8  15
ENDBRANCH   7  10
ENDBRANCH   1   7
BRANCH   4  23
ATOM     23  C   UNL     1      50.383   8.265  19.250  0.00  0.00    +0.000 C 
BRANCH  23  24
ATOM     24  C   UNL     1      50.082   9.622  18.521  0.00  0.00    +0.000 C 
ATOM     25  C   UNL     1      50.579  10.761  19.436  0.00  0.00    +0.000 C 
ATOM     26  C   UNL     1      50.898   9.633  17.210  0.00  0.00    +0.000 C 
BRANCH  24  27
ATOM     27  C   UNL     1      48.532   9.816  18.300  0.00  0.00    +0.000 C 
BRANCH  27  28
ATOM     28  N   UNL     1      47.775  10.624  19.301  0.00  0.00    +0.000 NA
ATOM     29  C   UNL     1      47.089  11.766  18.683  0.00  0.00    +0.000 C 
ATOM     30  C   UNL     1      46.242  12.588  19.645  0.00  0.00    +0.000 C 
ATOM     31  C   UNL     1      45.239  11.720  20.371  0.00  0.00    +0.000 C 
ATOM     32  C   UNL     1      45.968  10.558  21.031  0.00  0.00    +0.000 C 
ATOM     33  C   UNL     1      46.799   9.768  20.010  0.00  0.00    +0.000 C 
ENDBRANCH  27  28
ENDBRANCH  24  27
ENDBRANCH  23  24
ENDBRANCH   4  23
TORSDOF 7
ENDMDL
MODEL 8
REMARK VINA RESULT:    -6.177      3.296      8.282
REMARK INTER + INTRA:         -10.026
REMARK INTER:                  -8.715
REMARK INTRA:                  -1.310
REMARK UNBOUND:                -1.321
REMARK  Name = 
REMARK  10 active torsions:
REMARK  status: ('A' for Active; 'I' for Inactive)
REMARK    1  A    between atoms: C_1  and  N_2
REMARK    2  A    between atoms: C_4  and  C_5
REMARK    3  A    between atoms: N_7  and  C_8
REMARK    4  A    between atoms: C_8  and  C_9
REMARK    5  A    between atoms: C_12  and  C_13
REMARK    6  A    between atoms: C_13  and  C_14
REMARK    7  A    between atoms: C_14  and  C_15
REMARK    8  A    between atoms: C_14  and  C_16
REMARK    9  A    between atoms: C_14  and  C_17
REMARK   10  A    between atoms: C_17  and  N_18
REMARK                            x       y       z     vdW  Elec       q    Type
REMARK                         _______ _______ _______ _____ _____    ______ ____
ROOT
ATOM      1  C   UNL     1      48.630   8.972  16.337  0.00  0.00    +0.000 A 
ATOM      2  C   UNL     1      47.787   9.460  17.339  0.00  0.00    +0.000 A 
ATOM      3  C   UNL     1      47.907   8.987  18.646  0.00  0.00    +0.000 A 
ATOM      4  C   UNL     1      48.844   7.993  18.969  0.00  0.00    +0.000 A 
ATOM      5  C   UNL     1      49.727   7.554  17.980  0.00  0.00    +0.000 A 
ATOM      6  C   UNL     1      49.624   8.044  16.676  0.00  0.00    +0.000 A 
ENDROOT
BRANCH   1   7
ATOM      7  C   UNL     1      48.496   9.463  14.921  0.00  0.00    +0.000 C 
BRANCH   7  10
ATOM      8  C   UNL     1      47.439   7.826  13.426  0.00  0.00    +0.000 C 
ATOM      9  O   UNL     1      48.489   7.231  13.232  0.00  0.00    +0.000 OA
ATOM     10  N   UNL     1      47.332   8.896  14.290  0.00  0.00    +0.000 N 
ATOM     11  H   UNL     1      46.493   9.455  14.258  0.00  0.00    +0.000 HD
BRANCH   8  15
ATOM     12  C   UNL     1      43.216   8.219  10.828  0.00  0.00    +0.000 C 
ATOM     13  N   UNL     1      44.283   7.659  11.623  0.00  0.00    +0.000 N 
ATOM     14  C   UNL     1      45.441   8.303  11.969  0.00  0.00    +0.000 A 
ATOM     15  C   UNL     1      46.189   7.454  12.779  0.00  0.00    +0.000 A 
ATOM     16  C   UNL     1      45.450   6.226  12.883  0.00  0.00    +0.000 A 
ATOM     17  C   UNL     1      45.572   4.963  13.460  0.00  0.00    +0.000 A 
ATOM     18 CL   UNL     1      46.984   4.498  14.274  0.00  0.00    +0.000 Cl
ATOM     19  N   UNL     1      44.619   4.020  13.336  0.00  0.00    +0.000 NA
ATOM     20  C   UNL     1      43.536   4.349  12.626  0.00  0.00    +0.000 A 
ATOM     21  N   UNL     1      43.283   5.508  12.001  0.00  0.00    +0.000 NA
ATOM     22  C   UNL     1      44.274   6.402  12.161  0.00  0.00    +0.000 A 
ENDBRANCH   8  15
ENDBRANCH   7  10
ENDBRANCH   1   7
BRANCH   4  23
ATOM     23  C   UNL     1      48.858   7.353  20.344  0.00  0.00    +0.000 C 
BRANCH  23  24
ATOM     24  C   UNL     1      48.016   6.034  20.473  0.00  0.00    +0.000 C 
ATOM     25  C   UNL     1      47.384   6.023  21.881  0.00  0.00    +0.000 C 
ATOM     26  C   UNL     1      46.893   6.098  19.416  0.00  0.00    +0.000 C 
BRANCH  24  27
ATOM     27  C   UNL     1      48.934   4.759  20.341  0.00  0.00    +0.000 C 
BRANCH  27  28
ATOM     28  N   UNL     1      49.366   4.342  18.975  0.00  0.00    +0.000 NA
ATOM     29  C   UNL     1      50.809   4.075  18.910  0.00  0.00    +0.000 C 
ATOM     30  C   UNL     1      51.298   3.578  17.556  0.00  0.00    +0.000 C 
ATOM     31  C   UNL     1      50.530   2.353  17.112  0.00  0.00    +0.000 C 
ATOM     32  C   UNL     1      49.038   2.654  17.156  0.00  0.00    +0.000 C 
ATOM     33  C   UNL     1      48.608   3.146  18.546  0.00  0.00    +0.000 C 
ENDBRANCH  27  28
ENDBRANCH  24  27
ENDBRANCH  23  24
ENDBRANCH   4  23
TORSDOF 7
ENDMDL
MODEL 9
REMARK VINA RESULT:    -6.088      3.339      8.737
REMARK INTER + INTRA:          -9.900
REMARK INTER:                  -8.512
REMARK INTRA:                  -1.388
REMARK UNBOUND:                -1.321
REMARK  Name = 
REMARK  10 active torsions:
REMARK  status: ('A' for Active; 'I' for Inactive)
REMARK    1  A    between atoms: C_1  and  N_2
REMARK    2  A    between atoms: C_4  and  C_5
REMARK    3  A    between atoms: N_7  and  C_8
REMARK    4  A    between atoms: C_8  and  C_9
REMARK    5  A    between atoms: C_12  and  C_13
REMARK    6  A    between atoms: C_13  and  C_14
REMARK    7  A    between atoms: C_14  and  C_15
REMARK    8  A    between atoms: C_14  and  C_16
REMARK    9  A    between atoms: C_14  and  C_17
REMARK   10  A    between atoms: C_17  and  N_18
REMARK                            x       y       z     vdW  Elec       q    Type
REMARK                         _______ _______ _______ _____ _____    ______ ____
ROOT
ATOM      1  C   UNL     1      48.492   3.732  17.441  0.00  0.00    +0.000 A 
ATOM      2  C   UNL     1      48.669   4.806  18.318  0.00  0.00    +0.000 A 
ATOM      3  C   UNL     1      49.930   5.074  18.850  0.00  0.00    +0.000 A 
ATOM      4  C   UNL     1      51.030   4.255  18.547  0.00  0.00    +0.000 A 
ATOM      5  C   UNL     1      50.864   3.223  17.620  0.00  0.00    +0.000 A 
ATOM      6  C   UNL     1      49.606   2.968  17.069  0.00  0.00    +0.000 A 
ENDROOT
BRANCH   1   7
ATOM      7  C   UNL     1      47.132   3.424  16.876  0.00  0.00    +0.000 C 
BRANCH   7  10
ATOM      8  C   UNL     1      46.931   4.169  14.544  0.00  0.00    +0.000 C 
ATOM      9  O   UNL     1      47.310   3.095  14.102  0.00  0.00    +0.000 OA
ATOM     10  N   UNL     1      46.752   4.405  15.892  0.00  0.00    +0.000 N 
ATOM     11  H   UNL     1      46.625   5.358  16.199  0.00  0.00    +0.000 HD
BRANCH   8  15
ATOM     12  C   UNL     1      47.197   8.679  12.464  0.00  0.00    +0.000 C 
ATOM     13  N   UNL     1      46.739   7.349  12.784  0.00  0.00    +0.000 N 
ATOM     14  C   UNL     1      47.394   6.452  13.586  0.00  0.00    +0.000 A 
ATOM     15  C   UNL     1      46.611   5.307  13.693  0.00  0.00    +0.000 A 
ATOM     16  C   UNL     1      45.449   5.524  12.876  0.00  0.00    +0.000 A 
ATOM     17  C   UNL     1      44.299   4.848  12.471  0.00  0.00    +0.000 A 
ATOM     18 CL   UNL     1      44.027   3.232  12.904  0.00  0.00    +0.000 Cl
ATOM     19  N   UNL     1      43.386   5.407  11.656  0.00  0.00    +0.000 NA
ATOM     20  C   UNL     1      43.632   6.653  11.241  0.00  0.00    +0.000 A 
ATOM     21  N   UNL     1      44.693   7.420  11.528  0.00  0.00    +0.000 NA
ATOM     22  C   UNL     1      45.566   6.803  12.342  0.00  0.00    +0.000 A 
ENDBRANCH   8  15
ENDBRANCH   7  10
ENDBRANCH   1   7
BRANCH   4  23
ATOM     23  C   UNL     1      52.357   4.438  19.257  0.00  0.00    +0.000 C 
BRANCH  23  24
ATOM     24  C   UNL     1      53.371   5.396  18.538  0.00  0.00    +0.000 C 
ATOM     25  C   UNL     1      54.445   5.795  19.572  0.00  0.00    +0.000 C 
ATOM     26  C   UNL     1      54.038   4.592  17.401  0.00  0.00    +0.000 C 
BRANCH  24  27
ATOM     27  C   UNL     1      52.658   6.712  18.044  0.00  0.00    +0.000 C 
BRANCH  27  28
ATOM     28  N   UNL     1      52.402   6.868  16.582  0.00  0.00    +0.000 NA
ATOM     29  C   UNL     1      51.024   7.293  16.305  0.00  0.00    +0.000 C 
ATOM     30  C   UNL     1      50.723   7.536  14.831  0.00  0.00    +0.000 C 
ATOM     31  C   UNL     1      51.696   8.525  14.230  0.00  0.00    +0.000 C 
ATOM     32  C   UNL     1      53.119   8.056  14.500  0.00  0.00    +0.000 C 
ATOM     33  C   UNL     1      53.359   7.833  15.999  0.00  0.00    +0.000 C 
ENDBRANCH  27  28
ENDBRANCH  24  27
ENDBRANCH  23  24
ENDBRANCH   4  23
TORSDOF 7
ENDMDL
