MODEL 1
REMARK VINA RESULT:    -8.354      0.000      0.000
REMARK INTER + INTRA:         -12.557
REMARK INTER:                 -11.772
REMARK INTRA:                  -0.785
REMARK UNBOUND:                -0.785
REMARK  Name = 
REMARK  7 active torsions:
REMARK  status: ('A' for Active; 'I' for Inactive)
REMARK    1  A    between atoms: C_2  and  C_20
REMARK    2  A    between atoms: N_3  and  C_4
REMARK    3  A    between atoms: C_4  and  C_5
REMARK    4  A    between atoms: C_8  and  N_9
REMARK    5  A    between atoms: N_9  and  C_10
REMARK    6  A    between atoms: C_10  and  C_11
REMARK    7  A    between atoms: C_11  and  C_12
REMARK                            x       y       z     vdW  Elec       q    Type
REMARK                         _______ _______ _______ _____ _____    ______ ____
ROOT
ATOM      1  C   UNL     1      46.849   5.683  13.292  0.00  0.00    +0.000 A 
ATOM      2  C   UNL     1      46.318   4.401  13.469  0.00  0.00    +0.000 A 
ATOM      3  C   UNL     1      45.373   3.894  12.573  0.00  0.00    +0.000 A 
ATOM      4  C   UNL     1      44.915   4.664  11.500  0.00  0.00    +0.000 A 
ATOM      5  C   UNL     1      45.527   5.899  11.265  0.00  0.00    +0.000 A 
ATOM      6  C   UNL     1      46.475   6.413  12.157  0.00  0.00    +0.000 A 
ENDROOT
BRANCH   4   7
ATOM      7  N   UNL     1      43.916   4.241  10.611  0.00  0.00    +0.000 N 
ATOM      8  H   UNL     1      43.467   5.050  10.186  0.00  0.00    +0.000 HD
BRANCH   7   9
ATOM      9  C   UNL     1      44.270   3.222   9.610  0.00  0.00    +0.000 C 
BRANCH   9  10
ATOM     10  C   UNL     1      44.910   3.867   8.372  0.00  0.00    +0.000 C 
BRANCH  10  11
ATOM     11  C   UNL     1      45.871   2.959   7.649  0.00  0.00    +0.000 A 
ATOM     12  C   UNL     1      46.169   1.686   8.159  0.00  0.00    +0.000 A 
ATOM     13  C   UNL     1      47.010   0.824   7.453  0.00  0.00    +0.000 A 
ATOM     14  C   UNL     1      47.564   1.230   6.240  0.00  0.00    +0.000 A 
ATOM     15  C   UNL     1      47.287   2.501   5.737  0.00  0.00    +0.000 A 
ATOM     16  C   UNL     1      46.450   3.363   6.440  0.00  0.00    +0.000 A 
ENDBRANCH  10  11
ENDBRANCH   9  10
ENDBRANCH   7   9
ENDBRANCH   4   7
BRANCH   1  17
ATOM     17  C   UNL     1      47.786   6.259  14.316  0.00  0.00    +0.000 C 
BRANCH  17  20
ATOM     18  O   UNL     1      49.931   5.988  16.023  0.00  0.00    +0.000 OA
ATOM     19  C   UNL     1      48.869   5.464  16.349  0.00  0.00    +0.000 C 
ATOM     20  N   UNL     1      47.743   5.536  15.560  0.00  0.00    +0.000 N 
ATOM     21  H   UNL     1      46.852   5.220  15.911  0.00  0.00    +0.000 HD
BRANCH  19  22
ATOM     22  C   UNL     1      48.720   4.729  17.604  0.00  0.00    +0.000 A 
ATOM     23  C   UNL     1      48.598   3.354  17.777  0.00  0.00    +0.000 A 
ATOM     24  N   UNL     1      48.506   3.090  19.122  0.00  0.00    +0.000 N 
ATOM     25  C   UNL     1      48.561   4.258  19.823  0.00  0.00    +0.000 A 
ATOM     26  N   UNL     1      48.501   4.361  21.160  0.00  0.00    +0.000 NA
ATOM     27  N   UNL     1      48.575   5.577  21.669  0.00  0.00    +0.000 NA
ATOM     28  C   UNL     1      48.706   6.652  20.853  0.00  0.00    +0.000 A 
ATOM     29  C   UNL     1      48.773   6.587  19.468  0.00  0.00    +0.000 A 
ATOM     30  C   UNL     1      48.694   5.302  18.921  0.00  0.00    +0.000 A 
ATOM     31  H   UNL     1      48.421   2.181  19.553  0.00  0.00    +0.000 HD
ENDBRANCH  19  22
ENDBRANCH  17  20
ENDBRANCH   1  17
TORSDOF 7
ENDMDL
MODEL 2
REMARK VINA RESULT:    -8.006      1.314      2.449
REMARK INTER + INTRA:         -12.067
REMARK INTER:                 -11.044
REMARK INTRA:                  -1.023
REMARK UNBOUND:                -0.785
REMARK  Name = 
REMARK  7 active torsions:
REMARK  status: ('A' for Active; 'I' for Inactive)
REMARK    1  A    between atoms: C_2  and  C_20
REMARK    2  A    between atoms: N_3  and  C_4
REMARK    3  A    between atoms: C_4  and  C_5
REMARK    4  A    between atoms: C_8  and  N_9
REMARK    5  A    between atoms: N_9  and  C_10
REMARK    6  A    between atoms: C_10  and  C_11
REMARK    7  A    between atoms: C_11  and  C_12
REMARK                            x       y       z     vdW  Elec       q    Type
REMARK                         _______ _______ _______ _____ _____    ______ ____
ROOT
ATOM      1  C   UNL     1      46.296   6.986  12.798  0.00  0.00    +0.000 A 
ATOM      2  C   UNL     1      45.273   7.576  12.048  0.00  0.00    +0.000 A 
ATOM      3  C   UNL     1      44.334   6.785  11.382  0.00  0.00    +0.000 A 
ATOM      4  C   UNL     1      44.409   5.389  11.426  0.00  0.00    +0.000 A 
ATOM      5  C   UNL     1      45.364   4.807  12.265  0.00  0.00    +0.000 A 
ATOM      6  C   UNL     1      46.309   5.593  12.934  0.00  0.00    +0.000 A 
ENDROOT
BRANCH   4   7
ATOM      7  N   UNL     1      43.542   4.542  10.722  0.00  0.00    +0.000 N 
ATOM      8  H   UNL     1      42.864   5.098  10.201  0.00  0.00    +0.000 HD
BRANCH   7   9
ATOM      9  C   UNL     1      44.135   3.482   9.892  0.00  0.00    +0.000 C 
BRANCH   9  10
ATOM     10  C   UNL     1      44.864   4.078   8.679  0.00  0.00    +0.000 C 
BRANCH  10  11
ATOM     11  C   UNL     1      45.767   3.097   7.977  0.00  0.00    +0.000 A 
ATOM     12  C   UNL     1      46.593   3.516   6.923  0.00  0.00    +0.000 A 
ATOM     13  C   UNL     1      47.473   2.618   6.318  0.00  0.00    +0.000 A 
ATOM     14  C   UNL     1      47.531   1.296   6.756  0.00  0.00    +0.000 A 
ATOM     15  C   UNL     1      46.699   0.868   7.791  0.00  0.00    +0.000 A 
ATOM     16  C   UNL     1      45.819   1.761   8.395  0.00  0.00    +0.000 A 
ENDBRANCH  10  11
ENDBRANCH   9  10
ENDBRANCH   7   9
ENDBRANCH   4   7
BRANCH   1  17
ATOM     17  C   UNL     1      47.361   7.841  13.425  0.00  0.00    +0.000 C 
BRANCH  17  20
ATOM     18  O   UNL     1      49.835   6.902  14.192  0.00  0.00    +0.000 OA
ATOM     19  C   UNL     1      48.956   6.966  15.047  0.00  0.00    +0.000 C 
ATOM     20  N   UNL     1      47.686   7.414  14.761  0.00  0.00    +0.000 N 
ATOM     21  H   UNL     1      47.026   7.589  15.503  0.00  0.00    +0.000 HD
BRANCH  19  22
ATOM     22  C   UNL     1      49.195   6.578  16.436  0.00  0.00    +0.000 A 
ATOM     23  C   UNL     1      49.838   7.313  17.427  0.00  0.00    +0.000 A 
ATOM     24  N   UNL     1      49.820   6.584  18.592  0.00  0.00    +0.000 N 
ATOM     25  C   UNL     1      49.186   5.396  18.378  0.00  0.00    +0.000 A 
ATOM     26  N   UNL     1      48.991   4.446  19.306  0.00  0.00    +0.000 NA
ATOM     27  N   UNL     1      48.352   3.357  18.922  0.00  0.00    +0.000 NA
ATOM     28  C   UNL     1      47.922   3.235  17.641  0.00  0.00    +0.000 A 
ATOM     29  C   UNL     1      48.103   4.193  16.654  0.00  0.00    +0.000 A 
ATOM     30  C   UNL     1      48.781   5.349  17.054  0.00  0.00    +0.000 A 
ATOM     31  H   UNL     1      50.200   6.864  19.484  0.00  0.00    +0.000 HD
ENDBRANCH  19  22
ENDBRANCH  17  20
ENDBRANCH   1  17
TORSDOF 7
ENDMDL
MODEL 3
REMARK VINA RESULT:    -7.559      2.054      2.705
REMARK INTER + INTRA:         -11.437
REMARK INTER:                 -10.554
REMARK INTRA:                  -0.883
REMARK UNBOUND:                -0.785
REMARK  Name = 
REMARK  7 active torsions:
REMARK  status: ('A' for Active; 'I' for Inactive)
REMARK    1  A    between atoms: C_2  and  C_20
REMARK    2  A    between atoms: N_3  and  C_4
REMARK    3  A    between atoms: C_4  and  C_5
REMARK    4  A    between atoms: C_8  and  N_9
REMARK    5  A    between atoms: N_9  and  C_10
REMARK    6  A    between atoms: C_10  and  C_11
REMARK    7  A    between atoms: C_11  and  C_12
REMARK                            x       y       z     vdW  Elec       q    Type
REMARK                         _______ _______ _______ _____ _____    ______ ____
ROOT
ATOM      1  C   UNL     1      46.836   4.596  14.105  0.00  0.00    +0.000 A 
ATOM      2  C   UNL     1      47.169   5.845  13.570  0.00  0.00    +0.000 A 
ATOM      3  C   UNL     1      46.598   6.280  12.372  0.00  0.00    +0.000 A 
ATOM      4  C   UNL     1      45.704   5.468  11.666  0.00  0.00    +0.000 A 
ATOM      5  C   UNL     1      45.292   4.271  12.258  0.00  0.00    +0.000 A 
ATOM      6  C   UNL     1      45.860   3.829  13.458  0.00  0.00    +0.000 A 
ENDROOT
BRANCH   4   7
ATOM      7  N   UNL     1      45.154   5.816  10.424  0.00  0.00    +0.000 N 
ATOM      8  H   UNL     1      45.009   6.824  10.381  0.00  0.00    +0.000 HD
BRANCH   7   9
ATOM      9  C   UNL     1      45.811   5.306   9.210  0.00  0.00    +0.000 C 
BRANCH   9  10
ATOM     10  C   UNL     1      45.012   4.144   8.602  0.00  0.00    +0.000 C 
BRANCH  10  11
ATOM     11  C   UNL     1      45.873   3.119   7.909  0.00  0.00    +0.000 A 
ATOM     12  C   UNL     1      45.955   1.807   8.400  0.00  0.00    +0.000 A 
ATOM     13  C   UNL     1      46.703   0.846   7.720  0.00  0.00    +0.000 A 
ATOM     14  C   UNL     1      47.380   1.189   6.550  0.00  0.00    +0.000 A 
ATOM     15  C   UNL     1      47.319   2.496   6.067  0.00  0.00    +0.000 A 
ATOM     16  C   UNL     1      46.574   3.457   6.745  0.00  0.00    +0.000 A 
ENDBRANCH  10  11
ENDBRANCH   9  10
ENDBRANCH   7   9
ENDBRANCH   4   7
BRANCH   1  17
ATOM     17  C   UNL     1      47.533   4.094  15.338  0.00  0.00    +0.000 C 
BRANCH  17  20
ATOM     18  O   UNL     1      49.576   5.410  16.635  0.00  0.00    +0.000 OA
ATOM     19  C   UNL     1      48.431   5.589  17.040  0.00  0.00    +0.000 C 
ATOM     20  N   UNL     1      47.344   4.970  16.465  0.00  0.00    +0.000 N 
ATOM     21  H   UNL     1      46.407   5.239  16.723  0.00  0.00    +0.000 HD
BRANCH  19  22
ATOM     22  C   UNL     1      48.135   6.479  18.163  0.00  0.00    +0.000 A 
ATOM     23  C   UNL     1      47.891   6.128  19.486  0.00  0.00    +0.000 A 
ATOM     24  N   UNL     1      47.684   7.277  20.211  0.00  0.00    +0.000 N 
ATOM     25  C   UNL     1      47.784   8.360  19.390  0.00  0.00    +0.000 A 
ATOM     26  N   UNL     1      47.639   9.639  19.774  0.00  0.00    +0.000 NA
ATOM     27  N   UNL     1      47.775  10.562  18.841  0.00  0.00    +0.000 NA
ATOM     28  C   UNL     1      48.049  10.205  17.562  0.00  0.00    +0.000 A 
ATOM     29  C   UNL     1      48.207   8.897  17.125  0.00  0.00    +0.000 A 
ATOM     30  C   UNL     1      48.064   7.912  18.108  0.00  0.00    +0.000 A 
ATOM     31  H   UNL     1      47.495   7.339  21.200  0.00  0.00    +0.000 HD
ENDBRANCH  19  22
ENDBRANCH  17  20
ENDBRANCH   1  17
TORSDOF 7
ENDMDL
MODEL 4
REMARK VINA RESULT:    -7.384      1.624      2.065
REMARK INTER + INTRA:         -11.191
REMARK INTER:                 -10.650
REMARK INTRA:                  -0.540
REMARK UNBOUND:                -0.785
REMARK  Name = 
REMARK  7 active torsions:
REMARK  status: ('A' for Active; 'I' for Inactive)
REMARK    1  A    between atoms: C_2  and  C_20
REMARK    2  A    between atoms: N_3  and  C_4
REMARK    3  A    between atoms: C_4  and  C_5
REMARK    4  A    between atoms: C_8  and  N_9
REMARK    5  A    between atoms: N_9  and  C_10
REMARK    6  A    between atoms: C_10  and  C_11
REMARK    7  A    between atoms: C_11  and  C_12
REMARK                            x       y       z     vdW  Elec       q    Type
REMARK                         _______ _______ _______ _____ _____    ______ ____
ROOT
ATOM      1  C   UNL     1      46.247   5.862  12.947  0.00  0.00    +0.000 A 
ATOM      2  C   UNL     1      45.413   6.433  11.979  0.00  0.00    +0.000 A 
ATOM      3  C   UNL     1      44.578   5.629  11.199  0.00  0.00    +0.000 A 
ATOM      4  C   UNL     1      44.575   4.239  11.347  0.00  0.00    +0.000 A 
ATOM      5  C   UNL     1      45.326   3.685  12.388  0.00  0.00    +0.000 A 
ATOM      6  C   UNL     1      46.166   4.482  13.173  0.00  0.00    +0.000 A 
ENDROOT
BRANCH   4   7
ATOM      7  N   UNL     1      43.814   3.375  10.546  0.00  0.00    +0.000 N 
ATOM      8  H   UNL     1      43.009   3.873  10.169  0.00  0.00    +0.000 HD
BRANCH   7   9
ATOM      9  C   UNL     1      44.513   2.598   9.511  0.00  0.00    +0.000 C 
BRANCH   9  10
ATOM     10  C   UNL     1      45.340   3.518   8.600  0.00  0.00    +0.000 C 
BRANCH  10  11
ATOM     11  C   UNL     1      46.149   2.774   7.569  0.00  0.00    +0.000 A 
ATOM     12  C   UNL     1      46.632   1.484   7.837  0.00  0.00    +0.000 A 
ATOM     13  C   UNL     1      47.326   0.775   6.856  0.00  0.00    +0.000 A 
ATOM     14  C   UNL     1      47.550   1.350   5.606  0.00  0.00    +0.000 A 
ATOM     15  C   UNL     1      47.089   2.639   5.340  0.00  0.00    +0.000 A 
ATOM     16  C   UNL     1      46.398   3.349   6.316  0.00  0.00    +0.000 A 
ENDBRANCH  10  11
ENDBRANCH   9  10
ENDBRANCH   7   9
ENDBRANCH   4   7
BRANCH   1  17
ATOM     17  C   UNL     1      47.217   6.721  13.708  0.00  0.00    +0.000 C 
BRANCH  17  20
ATOM     18  O   UNL     1      49.758   6.762  14.771  0.00  0.00    +0.000 OA
ATOM     19  C   UNL     1      48.871   6.225  15.428  0.00  0.00    +0.000 C 
ATOM     20  N   UNL     1      47.571   6.146  14.980  0.00  0.00    +0.000 N 
ATOM     21  H   UNL     1      46.837   5.827  15.593  0.00  0.00    +0.000 HD
BRANCH  19  22
ATOM     22  C   UNL     1      49.127   5.633  16.741  0.00  0.00    +0.000 A 
ATOM     23  C   UNL     1      48.212   5.023  17.593  0.00  0.00    +0.000 A 
ATOM     24  N   UNL     1      48.882   4.585  18.710  0.00  0.00    +0.000 N 
ATOM     25  C   UNL     1      50.204   4.900  18.604  0.00  0.00    +0.000 A 
ATOM     26  N   UNL     1      51.143   4.615  19.520  0.00  0.00    +0.000 NA
ATOM     27  N   UNL     1      52.377   4.993  19.248  0.00  0.00    +0.000 NA
ATOM     28  C   UNL     1      52.654   5.636  18.086  0.00  0.00    +0.000 A 
ATOM     29  C   UNL     1      51.713   5.948  17.115  0.00  0.00    +0.000 A 
ATOM     30  C   UNL     1      50.401   5.552  17.397  0.00  0.00    +0.000 A 
ATOM     31  H   UNL     1      48.483   4.094  19.497  0.00  0.00    +0.000 HD
ENDBRANCH  19  22
ENDBRANCH  17  20
ENDBRANCH   1  17
TORSDOF 7
ENDMDL
MODEL 5
REMARK VINA RESULT:    -7.253      1.649      2.470
REMARK INTER + INTRA:         -11.006
REMARK INTER:                 -10.219
REMARK INTRA:                  -0.786
REMARK UNBOUND:                -0.785
REMARK  Name = 
REMARK  7 active torsions:
REMARK  status: ('A' for Active; 'I' for Inactive)
REMARK    1  A    between atoms: C_2  and  C_20
REMARK    2  A    between atoms: N_3  and  C_4
REMARK    3  A    between atoms: C_4  and  C_5
REMARK    4  A    between atoms: C_8  and  N_9
REMARK    5  A    between atoms: N_9  and  C_10
REMARK    6  A    between atoms: C_10  and  C_11
REMARK    7  A    between atoms: C_11  and  C_12
REMARK                            x       y       z     vdW  Elec       q    Type
REMARK                         _______ _______ _______ _____ _____    ______ ____
ROOT
ATOM      1  C   UNL     1      46.977   4.247  14.561  0.00  0.00    +0.000 A 
ATOM      2  C   UNL     1      46.594   3.202  13.713  0.00  0.00    +0.000 A 
ATOM      3  C   UNL     1      46.001   3.472  12.477  0.00  0.00    +0.000 A 
ATOM      4  C   UNL     1      45.751   4.787  12.072  0.00  0.00    +0.000 A 
ATOM      5  C   UNL     1      46.234   5.826  12.871  0.00  0.00    +0.000 A 
ATOM      6  C   UNL     1      46.829   5.564  14.110  0.00  0.00    +0.000 A 
ENDROOT
BRANCH   4   7
ATOM      7  N   UNL     1      45.094   5.119  10.878  0.00  0.00    +0.000 N 
ATOM      8  H   UNL     1      45.732   5.618  10.261  0.00  0.00    +0.000 HD
BRANCH   7   9
ATOM      9  C   UNL     1      44.367   4.054  10.170  0.00  0.00    +0.000 C 
BRANCH   9  10
ATOM     10  C   UNL     1      44.537   4.191   8.650  0.00  0.00    +0.000 C 
BRANCH  10  11
ATOM     11  C   UNL     1      45.532   3.222   8.066  0.00  0.00    +0.000 A 
ATOM     12  C   UNL     1      46.468   3.651   7.111  0.00  0.00    +0.000 A 
ATOM     13  C   UNL     1      47.428   2.766   6.620  0.00  0.00    +0.000 A 
ATOM     14  C   UNL     1      47.457   1.447   7.071  0.00  0.00    +0.000 A 
ATOM     15  C   UNL     1      46.518   1.010   8.006  0.00  0.00    +0.000 A 
ATOM     16  C   UNL     1      45.558   1.890   8.496  0.00  0.00    +0.000 A 
ENDBRANCH  10  11
ENDBRANCH   9  10
ENDBRANCH   7   9
ENDBRANCH   4   7
BRANCH   1  17
ATOM     17  C   UNL     1      47.519   3.947  15.930  0.00  0.00    +0.000 C 
BRANCH  17  20
ATOM     18  O   UNL     1      49.675   5.529  16.590  0.00  0.00    +0.000 OA
ATOM     19  C   UNL     1      48.583   5.821  17.068  0.00  0.00    +0.000 C 
ATOM     20  N   UNL     1      47.448   5.088  16.805  0.00  0.00    +0.000 N 
ATOM     21  H   UNL     1      46.543   5.427  17.094  0.00  0.00    +0.000 HD
BRANCH  19  22
ATOM     22  C   UNL     1      48.404   6.976  17.948  0.00  0.00    +0.000 A 
ATOM     23  C   UNL     1      48.559   8.321  17.631  0.00  0.00    +0.000 A 
ATOM     24  N   UNL     1      48.268   9.069  18.746  0.00  0.00    +0.000 N 
ATOM     25  C   UNL     1      47.935   8.242  19.777  0.00  0.00    +0.000 A 
ATOM     26  N   UNL     1      47.593   8.644  21.011  0.00  0.00    +0.000 NA
ATOM     27  N   UNL     1      47.295   7.702  21.886  0.00  0.00    +0.000 NA
ATOM     28  C   UNL     1      47.339   6.396  21.523  0.00  0.00    +0.000 A 
ATOM     29  C   UNL     1      47.687   5.939  20.259  0.00  0.00    +0.000 A 
ATOM     30  C   UNL     1      48.005   6.933  19.327  0.00  0.00    +0.000 A 
ATOM     31  H   UNL     1      48.282  10.076  18.816  0.00  0.00    +0.000 HD
ENDBRANCH  19  22
ENDBRANCH  17  20
ENDBRANCH   1  17
TORSDOF 7
ENDMDL
MODEL 6
REMARK VINA RESULT:    -7.247      2.436      3.504
REMARK INTER + INTRA:         -10.997
REMARK INTER:                 -10.332
REMARK INTRA:                  -0.665
REMARK UNBOUND:                -0.785
REMARK  Name = 
REMARK  7 active torsions:
REMARK  status: ('A' for Active; 'I' for Inactive)
REMARK    1  A    between atoms: C_2  and  C_20
REMARK    2  A    between atoms: N_3  and  C_4
REMARK    3  A    between atoms: C_4  and  C_5
REMARK    4  A    between atoms: C_8  and  N_9
REMARK    5  A    between atoms: N_9  and  C_10
REMARK    6  A    between atoms: C_10  and  C_11
REMARK    7  A    between atoms: C_11  and  C_12
REMARK                            x       y       z     vdW  Elec       q    Type
REMARK                         _______ _______ _______ _____ _____    ______ ____
ROOT
ATOM      1  C   UNL     1      45.470   7.280  12.453  0.00  0.00    +0.000 A 
ATOM      2  C   UNL     1      44.510   7.037  11.465  0.00  0.00    +0.000 A 
ATOM      3  C   UNL     1      44.286   5.740  10.997  0.00  0.00    +0.000 A 
ATOM      4  C   UNL     1      45.032   4.661  11.483  0.00  0.00    +0.000 A 
ATOM      5  C   UNL     1      45.910   4.893  12.546  0.00  0.00    +0.000 A 
ATOM      6  C   UNL     1      46.140   6.189  13.020  0.00  0.00    +0.000 A 
ENDROOT
BRANCH   4   7
ATOM      7  N   UNL     1      44.905   3.350  11.003  0.00  0.00    +0.000 N 
ATOM      8  H   UNL     1      44.465   2.764  11.711  0.00  0.00    +0.000 HD
BRANCH   7   9
ATOM      9  C   UNL     1      44.297   3.156   9.677  0.00  0.00    +0.000 C 
BRANCH   9  10
ATOM     10  C   UNL     1      45.107   3.879   8.591  0.00  0.00    +0.000 C 
BRANCH  10  11
ATOM     11  C   UNL     1      45.966   2.955   7.767  0.00  0.00    +0.000 A 
ATOM     12  C   UNL     1      46.207   1.639   8.190  0.00  0.00    +0.000 A 
ATOM     13  C   UNL     1      46.951   0.768   7.392  0.00  0.00    +0.000 A 
ATOM     14  C   UNL     1      47.465   1.206   6.173  0.00  0.00    +0.000 A 
ATOM     15  C   UNL     1      47.245   2.519   5.756  0.00  0.00    +0.000 A 
ATOM     16  C   UNL     1      46.505   3.390   6.550  0.00  0.00    +0.000 A 
ENDBRANCH  10  11
ENDBRANCH   9  10
ENDBRANCH   7   9
ENDBRANCH   4   7
BRANCH   1  17
ATOM     17  C   UNL     1      45.777   8.689  12.876  0.00  0.00    +0.000 C 
BRANCH  17  20
ATOM     18  O   UNL     1      48.455   9.333  12.822  0.00  0.00    +0.000 OA
ATOM     19  C   UNL     1      47.949   9.077  13.911  0.00  0.00    +0.000 C 
ATOM     20  N   UNL     1      46.622   8.736  14.041  0.00  0.00    +0.000 N 
ATOM     21  H   UNL     1      46.199   8.667  14.954  0.00  0.00    +0.000 HD
BRANCH  19  22
ATOM     22  C   UNL     1      48.719   9.121  15.154  0.00  0.00    +0.000 A 
ATOM     23  C   UNL     1      49.218  10.243  15.806  0.00  0.00    +0.000 A 
ATOM     24  N   UNL     1      49.857   9.833  16.952  0.00  0.00    +0.000 N 
ATOM     25  C   UNL     1      49.787   8.476  17.054  0.00  0.00    +0.000 A 
ATOM     26  N   UNL     1      50.307   7.747  18.055  0.00  0.00    +0.000 NA
ATOM     27  N   UNL     1      50.139   6.440  17.992  0.00  0.00    +0.000 NA
ATOM     28  C   UNL     1      49.466   5.887  16.953  0.00  0.00    +0.000 A 
ATOM     29  C   UNL     1      48.913   6.604  15.900  0.00  0.00    +0.000 A 
ATOM     30  C   UNL     1      49.089   7.991  15.960  0.00  0.00    +0.000 A 
ATOM     31  H   UNL     1      50.308  10.424  17.635  0.00  0.00    +0.000 HD
ENDBRANCH  19  22
ENDBRANCH  17  20
ENDBRANCH   1  17
TORSDOF 7
ENDMDL
MODEL 7
REMARK VINA RESULT:    -7.123      3.429      9.201
REMARK INTER + INTRA:         -10.823
REMARK INTER:                  -9.399
REMARK INTRA:                  -1.424
REMARK UNBOUND:                -0.785
REMARK  Name = 
REMARK  7 active torsions:
REMARK  status: ('A' for Active; 'I' for Inactive)
REMARK    1  A    between atoms: C_2  and  C_20
REMARK    2  A    between atoms: N_3  and  C_4
REMARK    3  A    between atoms: C_4  and  C_5
REMARK    4  A    between atoms: C_8  and  N_9
REMARK    5  A    between atoms: N_9  and  C_10
REMARK    6  A    between atoms: C_10  and  C_11
REMARK    7  A    between atoms: C_11  and  C_12
REMARK                            x       y       z     vdW  Elec       q    Type
REMARK                         _______ _______ _______ _____ _____    ______ ____
ROOT
ATOM      1  C   UNL     1      47.198   7.934  12.831  0.00  0.00    +0.000 A 
ATOM      2  C   UNL     1      47.211   8.777  13.948  0.00  0.00    +0.000 A 
ATOM      3  C   UNL     1      48.363   8.903  14.729  0.00  0.00    +0.000 A 
ATOM      4  C   UNL     1      49.517   8.172  14.430  0.00  0.00    +0.000 A 
ATOM      5  C   UNL     1      49.534   7.419  13.253  0.00  0.00    +0.000 A 
ATOM      6  C   UNL     1      48.385   7.287  12.466  0.00  0.00    +0.000 A 
ENDROOT
BRANCH   4   7
ATOM      7  N   UNL     1      50.678   8.201  15.216  0.00  0.00    +0.000 N 
ATOM      8  H   UNL     1      50.663   9.018  15.824  0.00  0.00    +0.000 HD
BRANCH   7   9
ATOM      9  C   UNL     1      51.047   6.979  15.947  0.00  0.00    +0.000 C 
BRANCH   9  10
ATOM     10  C   UNL     1      50.073   6.718  17.106  0.00  0.00    +0.000 C 
BRANCH  10  11
ATOM     11  C   UNL     1      49.298   5.433  16.963  0.00  0.00    +0.000 A 
ATOM     12  C   UNL     1      49.757   4.253  17.568  0.00  0.00    +0.000 A 
ATOM     13  C   UNL     1      49.004   3.081  17.486  0.00  0.00    +0.000 A 
ATOM     14  C   UNL     1      47.794   3.077  16.794  0.00  0.00    +0.000 A 
ATOM     15  C   UNL     1      47.342   4.242  16.173  0.00  0.00    +0.000 A 
ATOM     16  C   UNL     1      48.092   5.411  16.253  0.00  0.00    +0.000 A 
ENDBRANCH  10  11
ENDBRANCH   9  10
ENDBRANCH   7   9
ENDBRANCH   4   7
BRANCH   1  17
ATOM     17  C   UNL     1      45.926   7.725  12.059  0.00  0.00    +0.000 C 
BRANCH  17  20
ATOM     18  O   UNL     1      43.511   6.589  11.379  0.00  0.00    +0.000 OA
ATOM     19  C   UNL     1      44.514   5.885  11.309  0.00  0.00    +0.000 C 
ATOM     20  N   UNL     1      45.765   6.358  11.636  0.00  0.00    +0.000 N 
ATOM     21  H   UNL     1      46.587   5.808  11.438  0.00  0.00    +0.000 HD
BRANCH  19  22
ATOM     22  C   UNL     1      44.457   4.492  10.867  0.00  0.00    +0.000 A 
ATOM     23  C   UNL     1      43.821   3.426  11.493  0.00  0.00    +0.000 A 
ATOM     24  N   UNL     1      43.996   2.301  10.723  0.00  0.00    +0.000 N 
ATOM     25  C   UNL     1      44.732   2.612   9.620  0.00  0.00    +0.000 A 
ATOM     26  N   UNL     1      45.085   1.746   8.656  0.00  0.00    +0.000 NA
ATOM     27  N   UNL     1      45.798   2.225   7.654  0.00  0.00    +0.000 NA
ATOM     28  C   UNL     1      46.140   3.537   7.626  0.00  0.00    +0.000 A 
ATOM     29  C   UNL     1      45.795   4.463   8.600  0.00  0.00    +0.000 A 
ATOM     30  C   UNL     1      45.040   3.962   9.667  0.00  0.00    +0.000 A 
ATOM     31  H   UNL     1      43.638   1.377  10.917  0.00  0.00    +0.000 HD
ENDBRANCH  19  22
ENDBRANCH  17  20
ENDBRANCH   1  17
TORSDOF 7
ENDMDL
MODEL 8
REMARK VINA RESULT:    -7.057      3.448      5.574
REMARK INTER + INTRA:         -10.729
REMARK INTER:                 -10.086
REMARK INTRA:                  -0.643
REMARK UNBOUND:                -0.785
REMARK  Name = 
REMARK  7 active torsions:
REMARK  status: ('A' for Active; 'I' for Inactive)
REMARK    1  A    between atoms: C_2  and  C_20
REMARK    2  A    between atoms: N_3  and  C_4
REMARK    3  A    between atoms: C_4  and  C_5
REMARK    4  A    between atoms: C_8  and  N_9
REMARK    5  A    between atoms: N_9  and  C_10
REMARK    6  A    between atoms: C_10  and  C_11
REMARK    7  A    between atoms: C_11  and  C_12
REMARK                            x       y       z     vdW  Elec       q    Type
REMARK                         _______ _______ _______ _____ _____    ______ ____
ROOT
ATOM      1  C   UNL     1      46.231   5.498  13.336  0.00  0.00    +0.000 A 
ATOM      2  C   UNL     1      45.634   6.581  12.682  0.00  0.00    +0.000 A 
ATOM      3  C   UNL     1      44.807   6.374  11.575  0.00  0.00    +0.000 A 
ATOM      4  C   UNL     1      44.580   5.087  11.078  0.00  0.00    +0.000 A 
ATOM      5  C   UNL     1      45.088   4.003  11.799  0.00  0.00    +0.000 A 
ATOM      6  C   UNL     1      45.917   4.202  12.909  0.00  0.00    +0.000 A 
ENDROOT
BRANCH   4   7
ATOM      7  N   UNL     1      43.821   4.821   9.930  0.00  0.00    +0.000 N 
ATOM      8  H   UNL     1      43.639   5.688   9.427  0.00  0.00    +0.000 HD
BRANCH   7   9
ATOM      9  C   UNL     1      44.281   3.752   9.030  0.00  0.00    +0.000 C 
BRANCH   9  10
ATOM     10  C   UNL     1      45.513   4.201   8.230  0.00  0.00    +0.000 C 
BRANCH  10  11
ATOM     11  C   UNL     1      46.159   3.089   7.444  0.00  0.00    +0.000 A 
ATOM     12  C   UNL     1      46.583   3.303   6.123  0.00  0.00    +0.000 A 
ATOM     13  C   UNL     1      47.237   2.290   5.421  0.00  0.00    +0.000 A 
ATOM     14  C   UNL     1      47.465   1.056   6.029  0.00  0.00    +0.000 A 
ATOM     15  C   UNL     1      47.029   0.831   7.334  0.00  0.00    +0.000 A 
ATOM     16  C   UNL     1      46.376   1.839   8.036  0.00  0.00    +0.000 A 
ENDBRANCH  10  11
ENDBRANCH   9  10
ENDBRANCH   7   9
ENDBRANCH   4   7
BRANCH   1  17
ATOM     17  C   UNL     1      47.200   5.737  14.459  0.00  0.00    +0.000 C 
BRANCH  17  20
ATOM     18  O   UNL     1      49.342   6.545  12.928  0.00  0.00    +0.000 OA
ATOM     19  C   UNL     1      48.798   7.384  13.641  0.00  0.00    +0.000 C 
ATOM     20  N   UNL     1      47.726   7.077  14.448  0.00  0.00    +0.000 N 
ATOM     21  H   UNL     1      47.212   7.808  14.915  0.00  0.00    +0.000 HD
BRANCH  19  22
ATOM     22  C   UNL     1      49.245   8.776  13.681  0.00  0.00    +0.000 A 
ATOM     23  C   UNL     1      49.048   9.705  14.697  0.00  0.00    +0.000 A 
ATOM     24  N   UNL     1      49.655  10.883  14.334  0.00  0.00    +0.000 N 
ATOM     25  C   UNL     1      50.236  10.741  13.110  0.00  0.00    +0.000 A 
ATOM     26  N   UNL     1      50.915  11.699  12.460  0.00  0.00    +0.000 NA
ATOM     27  N   UNL     1      51.415  11.382  11.280  0.00  0.00    +0.000 NA
ATOM     28  C   UNL     1      51.235  10.137  10.775  0.00  0.00    +0.000 A 
ATOM     29  C   UNL     1      50.540   9.119  11.415  0.00  0.00    +0.000 A 
ATOM     30  C   UNL     1      50.007   9.449  12.666  0.00  0.00    +0.000 A 
ATOM     31  H   UNL     1      49.690  11.734  14.876  0.00  0.00    +0.000 HD
ENDBRANCH  19  22
ENDBRANCH  17  20
ENDBRANCH   1  17
TORSDOF 7
ENDMDL
MODEL 9
REMARK VINA RESULT:    -6.899      2.819      9.110
REMARK INTER + INTRA:         -10.508
REMARK INTER:                  -9.048
REMARK INTRA:                  -1.460
REMARK UNBOUND:                -0.785
REMARK  Name = 
REMARK  7 active torsions:
REMARK  status: ('A' for Active; 'I' for Inactive)
REMARK    1  A    between atoms: C_2  and  C_20
REMARK    2  A    between atoms: N_3  and  C_4
REMARK    3  A    between atoms: C_4  and  C_5
REMARK    4  A    between atoms: C_8  and  N_9
REMARK    5  A    between atoms: N_9  and  C_10
REMARK    6  A    between atoms: C_10  and  C_11
REMARK    7  A    between atoms: C_11  and  C_12
REMARK                            x       y       z     vdW  Elec       q    Type
REMARK                         _______ _______ _______ _____ _____    ______ ____
ROOT
ATOM      1  C   UNL     1      48.438   8.269  14.952  0.00  0.00    +0.000 A 
ATOM      2  C   UNL     1      48.391   9.102  16.075  0.00  0.00    +0.000 A 
ATOM      3  C   UNL     1      49.224   8.863  17.172  0.00  0.00    +0.000 A 
ATOM      4  C   UNL     1      50.100   7.774  17.185  0.00  0.00    +0.000 A 
ATOM      5  C   UNL     1      50.222   7.012  16.019  0.00  0.00    +0.000 A 
ATOM      6  C   UNL     1      49.391   7.244  14.918  0.00  0.00    +0.000 A 
ENDROOT
BRANCH   4   7
ATOM      7  N   UNL     1      50.907   7.440  18.282  0.00  0.00    +0.000 N 
ATOM      8  H   UNL     1      51.420   8.263  18.596  0.00  0.00    +0.000 HD
BRANCH   7   9
ATOM      9  C   UNL     1      50.284   6.722  19.404  0.00  0.00    +0.000 C 
BRANCH   9  10
ATOM     10  C   UNL     1      50.555   5.213  19.309  0.00  0.00    +0.000 C 
BRANCH  10  11
ATOM     11  C   UNL     1      49.519   4.464  18.512  0.00  0.00    +0.000 A 
ATOM     12  C   UNL     1      48.196   4.926  18.451  0.00  0.00    +0.000 A 
ATOM     13  C   UNL     1      47.255   4.265  17.661  0.00  0.00    +0.000 A 
ATOM     14  C   UNL     1      47.626   3.135  16.933  0.00  0.00    +0.000 A 
ATOM     15  C   UNL     1      48.935   2.659  17.005  0.00  0.00    +0.000 A 
ATOM     16  C   UNL     1      49.875   3.316  17.793  0.00  0.00    +0.000 A 
ENDBRANCH  10  11
ENDBRANCH   9  10
ENDBRANCH   7   9
ENDBRANCH   4   7
BRANCH   1  17
ATOM     17  C   UNL     1      47.468   8.471  13.823  0.00  0.00    +0.000 C 
BRANCH  17  20
ATOM     18  O   UNL     1      47.570   6.785  11.647  0.00  0.00    +0.000 OA
ATOM     19  C   UNL     1      46.739   6.546  12.518  0.00  0.00    +0.000 C 
ATOM     20  N   UNL     1      46.604   7.334  13.639  0.00  0.00    +0.000 N 
ATOM     21  H   UNL     1      46.013   7.040  14.402  0.00  0.00    +0.000 HD
BRANCH  19  22
ATOM     22  C   UNL     1      45.832   5.401  12.433  0.00  0.00    +0.000 A 
ATOM     23  C   UNL     1      45.290   4.665  13.481  0.00  0.00    +0.000 A 
ATOM     24  N   UNL     1      44.471   3.695  12.954  0.00  0.00    +0.000 N 
ATOM     25  C   UNL     1      44.473   3.783  11.594  0.00  0.00    +0.000 A 
ATOM     26  N   UNL     1      43.778   2.987  10.766  0.00  0.00    +0.000 NA
ATOM     27  N   UNL     1      43.897   3.221   9.473  0.00  0.00    +0.000 NA
ATOM     28  C   UNL     1      44.691   4.227   9.031  0.00  0.00    +0.000 A 
ATOM     29  C   UNL     1      45.424   5.072   9.853  0.00  0.00    +0.000 A 
ATOM     30  C   UNL     1      45.304   4.829  11.226  0.00  0.00    +0.000 A 
ATOM     31  H   UNL     1      43.932   3.016  13.472  0.00  0.00    +0.000 HD
ENDBRANCH  19  22
ENDBRANCH  17  20
ENDBRANCH   1  17
TORSDOF 7
ENDMDL
