MODEL 1
REMARK VINA RESULT:    -8.984      0.000      0.000
REMARK INTER + INTRA:         -14.050
REMARK INTER:                 -12.660
REMARK INTRA:                  -1.389
REMARK UNBOUND:                -1.389
REMARK  Name = 
REMARK  7 active torsions:
REMARK  status: ('A' for Active; 'I' for Inactive)
REMARK    1  A    between atoms: C_2  and  C_4
REMARK    2  A    between atoms: C_4  and  N_5
REMARK    3  A    between atoms: C_4  and  C_18
REMARK    4  A    between atoms: C_6  and  C_8
REMARK    5  A    between atoms: C_21  and  C_22
REMARK    6  A    between atoms: C_22  and  N_23
REMARK    7  A    between atoms: C_24  and  C_26
REMARK                            x       y       z     vdW  Elec       q    Type
REMARK                         _______ _______ _______ _____ _____    ______ ____
ROOT
ATOM      1  C   UNL     1      44.274   3.845  10.113  0.00  0.00    +0.000 C 
ENDROOT
BRANCH   1   2
ATOM      2  C   UNL     1      45.187   3.277   9.024  0.00  0.00    +0.000 A 
ATOM      3  C   UNL     1      45.804   4.162   8.122  0.00  0.00    +0.000 A 
ATOM      4  C   UNL     1      46.581   3.690   7.051  0.00  0.00    +0.000 A 
ATOM      5  C   UNL     1      46.764   2.317   6.849  0.00  0.00    +0.000 A 
ATOM      6  C   UNL     1      46.224   1.436   7.791  0.00  0.00    +0.000 A 
ATOM      7  C   UNL     1      45.459   1.909   8.868  0.00  0.00    +0.000 A 
BRANCH   5   8
ATOM      8  C   UNL     1      47.492   1.788   5.638  0.00  0.00    +0.000 C 
BRANCH   8   9
ATOM      9  N   UNL     1      47.170   0.408   5.352  0.00  0.00    +0.000 N 
ATOM     10  C   UNL     1      47.023  -0.018   4.045  0.00  0.00    +0.000 C 
ATOM     11  O   UNL     1      47.157   0.707   3.073  0.00  0.00    +0.000 OA
ATOM     12  H   UNL     1      47.313  -0.269   6.088  0.00  0.00    +0.000 HD
BRANCH  10  13
ATOM     13  C   UNL     1      46.719  -1.460   3.872  0.00  0.00    +0.000 A 
ATOM     14  C   UNL     1      46.676  -2.353   4.948  0.00  0.00    +0.000 A 
ATOM     15  C   UNL     1      46.379  -3.695   4.715  0.00  0.00    +0.000 A 
ATOM     16  C   UNL     1      46.131  -4.097   3.412  0.00  0.00    +0.000 A 
ATOM     17  N   UNL     1      46.152  -3.260   2.352  0.00  0.00    +0.000 NA
ATOM     18  C   UNL     1      46.433  -1.955   2.607  0.00  0.00    +0.000 A 
ENDBRANCH  10  13
ENDBRANCH   8   9
ENDBRANCH   5   8
ENDBRANCH   1   2
BRANCH   1  20
ATOM     19  N   UNL     1      45.025   2.720  12.185  0.00  0.00    +0.000 N 
ATOM     20  C   UNL     1      43.983   2.892  11.306  0.00  0.00    +0.000 C 
ATOM     21  O   UNL     1      42.965   2.226  11.471  0.00  0.00    +0.000 OA
ATOM     22  H   UNL     1      44.892   2.003  12.887  0.00  0.00    +0.000 HD
ATOM     23  H   UNL     1      45.975   2.914  11.885  0.00  0.00    +0.000 HD
ENDBRANCH   1  20
BRANCH   1  24
ATOM     24  N   UNL     1      44.806   5.085  10.647  0.00  0.00    +0.000 N 
ATOM     25  C   UNL     1      44.034   6.048  11.241  0.00  0.00    +0.000 C 
ATOM     26  O   UNL     1      42.817   5.923  11.367  0.00  0.00    +0.000 OA
ATOM     27  H   UNL     1      45.792   5.254  10.479  0.00  0.00    +0.000 HD
BRANCH  25  28
ATOM     28  C   UNL     1      44.756   7.211  11.778  0.00  0.00    +0.000 A 
ATOM     29  C   UNL     1      44.412   8.505  11.403  0.00  0.00    +0.000 A 
ATOM     30  S   UNL     1      45.351   9.705  12.177  0.00  0.00    +0.000 S 
ATOM     31  C   UNL     1      46.284   8.539  12.991  0.00  0.00    +0.000 A 
ATOM     32  N   UNL     1      47.306   8.895  13.810  0.00  0.00    +0.000 NA
ATOM     33  C   UNL     1      47.935   7.902  14.349  0.00  0.00    +0.000 A 
ATOM     34  N   UNL     1      47.631   6.585  14.142  0.00  0.00    +0.000 N 
ATOM     35  C   UNL     1      46.593   6.179  13.344  0.00  0.00    +0.000 A 
ATOM     36  O   UNL     1      46.313   4.989  13.237  0.00  0.00    +0.000 OA
ATOM     37  C   UNL     1      45.862   7.257  12.706  0.00  0.00    +0.000 A 
ATOM     38  H   UNL     1      48.147   5.847  14.599  0.00  0.00    +0.000 HD
ENDBRANCH  25  28
ENDBRANCH   1  24
TORSDOF 7
ENDMDL
MODEL 2
REMARK VINA RESULT:    -8.596      3.833      6.762
REMARK INTER + INTRA:         -13.502
REMARK INTER:                 -11.940
REMARK INTRA:                  -1.562
REMARK UNBOUND:                -1.389
REMARK  Name = 
REMARK  7 active torsions:
REMARK  status: ('A' for Active; 'I' for Inactive)
REMARK    1  A    between atoms: C_2  and  C_4
REMARK    2  A    between atoms: C_4  and  N_5
REMARK    3  A    between atoms: C_4  and  C_18
REMARK    4  A    between atoms: C_6  and  C_8
REMARK    5  A    between atoms: C_21  and  C_22
REMARK    6  A    between atoms: C_22  and  N_23
REMARK    7  A    between atoms: C_24  and  C_26
REMARK                            x       y       z     vdW  Elec       q    Type
REMARK                         _______ _______ _______ _____ _____    ______ ____
ROOT
ATOM      1  C   UNL     1      48.165   6.694  14.121  0.00  0.00    +0.000 C 
ENDROOT
BRANCH   1   2
ATOM      2  C   UNL     1      47.082   5.958  13.331  0.00  0.00    +0.000 A 
ATOM      3  C   UNL     1      46.758   4.636  13.686  0.00  0.00    +0.000 A 
ATOM      4  C   UNL     1      45.836   3.884  12.941  0.00  0.00    +0.000 A 
ATOM      5  C   UNL     1      45.206   4.432  11.817  0.00  0.00    +0.000 A 
ATOM      6  C   UNL     1      45.458   5.773  11.510  0.00  0.00    +0.000 A 
ATOM      7  C   UNL     1      46.371   6.526  12.263  0.00  0.00    +0.000 A 
BRANCH   5   8
ATOM      8  C   UNL     1      44.305   3.602  10.935  0.00  0.00    +0.000 C 
BRANCH   8   9
ATOM      9  N   UNL     1      45.032   2.887   9.911  0.00  0.00    +0.000 N 
ATOM     10  C   UNL     1      45.287   3.484   8.690  0.00  0.00    +0.000 C 
ATOM     11  O   UNL     1      44.938   4.616   8.399  0.00  0.00    +0.000 OA
ATOM     12  H   UNL     1      45.563   2.074  10.193  0.00  0.00    +0.000 HD
BRANCH  10  13
ATOM     13  C   UNL     1      46.065   2.665   7.727  0.00  0.00    +0.000 A 
ATOM     14  C   UNL     1      46.539   3.179   6.516  0.00  0.00    +0.000 A 
ATOM     15  C   UNL     1      47.269   2.356   5.659  0.00  0.00    +0.000 A 
ATOM     16  C   UNL     1      47.502   1.045   6.047  0.00  0.00    +0.000 A 
ATOM     17  N   UNL     1      47.070   0.521   7.214  0.00  0.00    +0.000 NA
ATOM     18  C   UNL     1      46.370   1.346   8.036  0.00  0.00    +0.000 A 
ENDBRANCH  10  13
ENDBRANCH   8   9
ENDBRANCH   5   8
ENDBRANCH   1   2
BRANCH   1  20
ATOM     19  N   UNL     1      47.306   8.925  14.763  0.00  0.00    +0.000 N 
ATOM     20  C   UNL     1      48.181   8.240  13.954  0.00  0.00    +0.000 C 
ATOM     21  O   UNL     1      48.821   8.874  13.120  0.00  0.00    +0.000 OA
ATOM     22  H   UNL     1      47.213   9.914  14.569  0.00  0.00    +0.000 HD
ATOM     23  H   UNL     1      46.502   8.445  15.156  0.00  0.00    +0.000 HD
ENDBRANCH   1  20
BRANCH   1  24
ATOM     24  N   UNL     1      48.074   6.396  15.538  0.00  0.00    +0.000 N 
ATOM     25  C   UNL     1      49.163   6.173  16.338  0.00  0.00    +0.000 C 
ATOM     26  O   UNL     1      50.312   6.215  15.903  0.00  0.00    +0.000 OA
ATOM     27  H   UNL     1      47.137   6.268  15.906  0.00  0.00    +0.000 HD
BRANCH  25  28
ATOM     28  C   UNL     1      48.880   5.945  17.763  0.00  0.00    +0.000 A 
ATOM     29  C   UNL     1      49.110   4.707  18.351  0.00  0.00    +0.000 A 
ATOM     30  S   UNL     1      48.750   4.674  20.022  0.00  0.00    +0.000 S 
ATOM     31  C   UNL     1      48.222   6.291  20.003  0.00  0.00    +0.000 A 
ATOM     32  N   UNL     1      47.742   6.893  21.122  0.00  0.00    +0.000 NA
ATOM     33  C   UNL     1      47.364   8.118  20.953  0.00  0.00    +0.000 A 
ATOM     34  N   UNL     1      47.425   8.795  19.766  0.00  0.00    +0.000 N 
ATOM     35  C   UNL     1      47.925   8.237  18.618  0.00  0.00    +0.000 A 
ATOM     36  O   UNL     1      48.022   8.899  17.590  0.00  0.00    +0.000 OA
ATOM     37  C   UNL     1      48.352   6.857  18.751  0.00  0.00    +0.000 A 
ATOM     38  H   UNL     1      47.128   9.757  19.692  0.00  0.00    +0.000 HD
ENDBRANCH  25  28
ENDBRANCH   1  24
TORSDOF 7
ENDMDL
MODEL 3
REMARK VINA RESULT:    -8.277      3.375      5.757
REMARK INTER + INTRA:         -13.054
REMARK INTER:                 -11.873
REMARK INTRA:                  -1.181
REMARK UNBOUND:                -1.389
REMARK  Name = 
REMARK  7 active torsions:
REMARK  status: ('A' for Active; 'I' for Inactive)
REMARK    1  A    between atoms: C_2  and  C_4
REMARK    2  A    between atoms: C_4  and  N_5
REMARK    3  A    between atoms: C_4  and  C_18
REMARK    4  A    between atoms: C_6  and  C_8
REMARK    5  A    between atoms: C_21  and  C_22
REMARK    6  A    between atoms: C_22  and  N_23
REMARK    7  A    between atoms: C_24  and  C_26
REMARK                            x       y       z     vdW  Elec       q    Type
REMARK                         _______ _______ _______ _____ _____    ______ ____
ROOT
ATOM      1  C   UNL     1      46.876   5.115  14.819  0.00  0.00    +0.000 C 
ENDROOT
BRANCH   1   2
ATOM      2  C   UNL     1      45.974   4.970  13.593  0.00  0.00    +0.000 A 
ATOM      3  C   UNL     1      45.705   3.683  13.093  0.00  0.00    +0.000 A 
ATOM      4  C   UNL     1      44.956   3.496  11.919  0.00  0.00    +0.000 A 
ATOM      5  C   UNL     1      44.451   4.593  11.210  0.00  0.00    +0.000 A 
ATOM      6  C   UNL     1      44.641   5.869  11.748  0.00  0.00    +0.000 A 
ATOM      7  C   UNL     1      45.379   6.053  12.927  0.00  0.00    +0.000 A 
BRANCH   5   8
ATOM      8  C   UNL     1      43.748   4.419   9.885  0.00  0.00    +0.000 C 
BRANCH   8   9
ATOM      9  N   UNL     1      44.451   3.524   8.995  0.00  0.00    +0.000 N 
ATOM     10  C   UNL     1      45.548   3.968   8.281  0.00  0.00    +0.000 C 
ATOM     11  O   UNL     1      45.993   5.102   8.352  0.00  0.00    +0.000 OA
ATOM     12  H   UNL     1      44.292   2.531   9.105  0.00  0.00    +0.000 HD
BRANCH  10  13
ATOM     13  C   UNL     1      46.206   2.954   7.419  0.00  0.00    +0.000 A 
ATOM     14  C   UNL     1      46.653   3.243   6.126  0.00  0.00    +0.000 A 
ATOM     15  C   UNL     1      47.268   2.244   5.373  0.00  0.00    +0.000 A 
ATOM     16  C   UNL     1      47.418   0.989   5.943  0.00  0.00    +0.000 A 
ATOM     17  N   UNL     1      47.010   0.680   7.192  0.00  0.00    +0.000 NA
ATOM     18  C   UNL     1      46.423   1.673   7.910  0.00  0.00    +0.000 A 
ENDBRANCH  10  13
ENDBRANCH   8   9
ENDBRANCH   5   8
ENDBRANCH   1   2
BRANCH   1  20
ATOM     19  N   UNL     1      46.967   3.642  16.806  0.00  0.00    +0.000 N 
ATOM     20  C   UNL     1      47.320   3.782  15.485  0.00  0.00    +0.000 C 
ATOM     21  O   UNL     1      48.020   2.912  14.973  0.00  0.00    +0.000 OA
ATOM     22  H   UNL     1      47.364   2.842  17.282  0.00  0.00    +0.000 HD
ATOM     23  H   UNL     1      46.759   4.465  17.362  0.00  0.00    +0.000 HD
ENDBRANCH   1  20
BRANCH   1  24
ATOM     24  N   UNL     1      48.068   5.879  14.504  0.00  0.00    +0.000 N 
ATOM     25  C   UNL     1      48.744   6.642  15.419  0.00  0.00    +0.000 C 
ATOM     26  O   UNL     1      48.382   6.730  16.591  0.00  0.00    +0.000 OA
ATOM     27  H   UNL     1      48.340   5.896  13.527  0.00  0.00    +0.000 HD
BRANCH  25  28
ATOM     28  C   UNL     1      49.967   7.298  14.932  0.00  0.00    +0.000 A 
ATOM     29  C   UNL     1      51.157   7.219  15.648  0.00  0.00    +0.000 A 
ATOM     30  S   UNL     1      52.460   8.017  14.882  0.00  0.00    +0.000 S 
ATOM     31  C   UNL     1      51.469   8.542  13.603  0.00  0.00    +0.000 A 
ATOM     32  N   UNL     1      51.957   9.315  12.599  0.00  0.00    +0.000 NA
ATOM     33  C   UNL     1      51.085   9.650  11.705  0.00  0.00    +0.000 A 
ATOM     34  N   UNL     1      49.769   9.280  11.726  0.00  0.00    +0.000 N 
ATOM     35  C   UNL     1      49.238   8.480  12.704  0.00  0.00    +0.000 A 
ATOM     36  O   UNL     1      48.067   8.117  12.650  0.00  0.00    +0.000 OA
ATOM     37  C   UNL     1      50.174   8.086  13.739  0.00  0.00    +0.000 A 
ATOM     38  H   UNL     1      49.131   9.558  10.994  0.00  0.00    +0.000 HD
ENDBRANCH  25  28
ENDBRANCH   1  24
TORSDOF 7
ENDMDL
MODEL 4
REMARK VINA RESULT:    -8.227      3.655      6.611
REMARK INTER + INTRA:         -12.983
REMARK INTER:                 -11.722
REMARK INTRA:                  -1.261
REMARK UNBOUND:                -1.389
REMARK  Name = 
REMARK  7 active torsions:
REMARK  status: ('A' for Active; 'I' for Inactive)
REMARK    1  A    between atoms: C_2  and  C_4
REMARK    2  A    between atoms: C_4  and  N_5
REMARK    3  A    between atoms: C_4  and  C_18
REMARK    4  A    between atoms: C_6  and  C_8
REMARK    5  A    between atoms: C_21  and  C_22
REMARK    6  A    between atoms: C_22  and  N_23
REMARK    7  A    between atoms: C_24  and  C_26
REMARK                            x       y       z     vdW  Elec       q    Type
REMARK                         _______ _______ _______ _____ _____    ______ ____
ROOT
ATOM      1  C   UNL     1      48.052   6.968  13.832  0.00  0.00    +0.000 C 
ENDROOT
BRANCH   1   2
ATOM      2  C   UNL     1      47.021   6.041  13.187  0.00  0.00    +0.000 A 
ATOM      3  C   UNL     1      46.960   4.697  13.598  0.00  0.00    +0.000 A 
ATOM      4  C   UNL     1      46.094   3.781  12.979  0.00  0.00    +0.000 A 
ATOM      5  C   UNL     1      45.260   4.182  11.928  0.00  0.00    +0.000 A 
ATOM      6  C   UNL     1      45.252   5.535  11.573  0.00  0.00    +0.000 A 
ATOM      7  C   UNL     1      46.109   6.451  12.201  0.00  0.00    +0.000 A 
BRANCH   5   8
ATOM      8  C   UNL     1      44.412   3.189  11.172  0.00  0.00    +0.000 C 
BRANCH   8   9
ATOM      9  N   UNL     1      45.122   2.570  10.076  0.00  0.00    +0.000 N 
ATOM     10  C   UNL     1      45.132   3.164   8.827  0.00  0.00    +0.000 C 
ATOM     11  O   UNL     1      44.571   4.216   8.568  0.00  0.00    +0.000 OA
ATOM     12  H   UNL     1      45.807   1.862  10.301  0.00  0.00    +0.000 HD
BRANCH  10  13
ATOM     13  C   UNL     1      45.916   2.453   7.786  0.00  0.00    +0.000 A 
ATOM     14  C   UNL     1      46.293   3.061   6.585  0.00  0.00    +0.000 A 
ATOM     15  C   UNL     1      47.034   2.336   5.652  0.00  0.00    +0.000 A 
ATOM     16  C   UNL     1      47.377   1.028   5.957  0.00  0.00    +0.000 A 
ATOM     17  N   UNL     1      47.041   0.415   7.113  0.00  0.00    +0.000 NA
ATOM     18  C   UNL     1      46.328   1.146   8.009  0.00  0.00    +0.000 A 
ENDBRANCH  10  13
ENDBRANCH   8   9
ENDBRANCH   5   8
ENDBRANCH   1   2
BRANCH   1  20
ATOM     19  N   UNL     1      46.991   9.113  14.461  0.00  0.00    +0.000 N 
ATOM     20  C   UNL     1      47.837   8.487  13.578  0.00  0.00    +0.000 C 
ATOM     21  O   UNL     1      48.271   9.133  12.629  0.00  0.00    +0.000 OA
ATOM     22  H   UNL     1      46.741  10.066  14.227  0.00  0.00    +0.000 HD
ATOM     23  H   UNL     1      46.317   8.566  14.988  0.00  0.00    +0.000 HD
ENDBRANCH   1  20
BRANCH   1  24
ATOM     24  N   UNL     1      48.122   6.757  15.265  0.00  0.00    +0.000 N 
ATOM     25  C   UNL     1      49.297   6.707  15.968  0.00  0.00    +0.000 C 
ATOM     26  O   UNL     1      50.390   6.844  15.424  0.00  0.00    +0.000 OA
ATOM     27  H   UNL     1      47.242   6.554  15.728  0.00  0.00    +0.000 HD
BRANCH  25  28
ATOM     28  C   UNL     1      49.168   6.546  17.425  0.00  0.00    +0.000 A 
ATOM     29  C   UNL     1      49.342   7.625  18.284  0.00  0.00    +0.000 A 
ATOM     30  S   UNL     1      49.108   7.225  19.929  0.00  0.00    +0.000 S 
ATOM     31  C   UNL     1      48.826   5.589  19.555  0.00  0.00    +0.000 A 
ATOM     32  N   UNL     1      48.588   4.671  20.526  0.00  0.00    +0.000 NA
ATOM     33  C   UNL     1      48.406   3.466  20.094  0.00  0.00    +0.000 A 
ATOM     34  N   UNL     1      48.440   3.098  18.777  0.00  0.00    +0.000 N 
ATOM     35  C   UNL     1      48.651   3.994  17.761  0.00  0.00    +0.000 A 
ATOM     36  O   UNL     1      48.609   3.634  16.589  0.00  0.00    +0.000 OA
ATOM     37  C   UNL     1      48.873   5.360  18.195  0.00  0.00    +0.000 A 
ATOM     38  H   UNL     1      48.277   2.143  18.492  0.00  0.00    +0.000 HD
ENDBRANCH  25  28
ENDBRANCH   1  24
TORSDOF 7
ENDMDL
MODEL 5
REMARK VINA RESULT:    -7.716      3.732      6.395
REMARK INTER + INTRA:         -12.263
REMARK INTER:                 -11.028
REMARK INTRA:                  -1.234
REMARK UNBOUND:                -1.389
REMARK  Name = 
REMARK  7 active torsions:
REMARK  status: ('A' for Active; 'I' for Inactive)
REMARK    1  A    between atoms: C_2  and  C_4
REMARK    2  A    between atoms: C_4  and  N_5
REMARK    3  A    between atoms: C_4  and  C_18
REMARK    4  A    between atoms: C_6  and  C_8
REMARK    5  A    between atoms: C_21  and  C_22
REMARK    6  A    between atoms: C_22  and  N_23
REMARK    7  A    between atoms: C_24  and  C_26
REMARK                            x       y       z     vdW  Elec       q    Type
REMARK                         _______ _______ _______ _____ _____    ______ ____
ROOT
ATOM      1  C   UNL     1      47.141   4.663  15.644  0.00  0.00    +0.000 C 
ENDROOT
BRANCH   1   2
ATOM      2  C   UNL     1      46.600   4.650  14.214  0.00  0.00    +0.000 A 
ATOM      3  C   UNL     1      46.655   5.832  13.453  0.00  0.00    +0.000 A 
ATOM      4  C   UNL     1      46.094   5.901  12.167  0.00  0.00    +0.000 A 
ATOM      5  C   UNL     1      45.461   4.787  11.601  0.00  0.00    +0.000 A 
ATOM      6  C   UNL     1      45.480   3.586  12.317  0.00  0.00    +0.000 A 
ATOM      7  C   UNL     1      46.051   3.516  13.596  0.00  0.00    +0.000 A 
BRANCH   5   8
ATOM      8  C   UNL     1      44.749   4.875  10.274  0.00  0.00    +0.000 C 
BRANCH   8   9
ATOM      9  N   UNL     1      45.524   4.321   9.188  0.00  0.00    +0.000 N 
ATOM     10  C   UNL     1      45.300   3.025   8.759  0.00  0.00    +0.000 C 
ATOM     11  O   UNL     1      44.459   2.285   9.242  0.00  0.00    +0.000 OA
ATOM     12  H   UNL     1      46.028   4.965   8.594  0.00  0.00    +0.000 HD
BRANCH  10  13
ATOM     13  C   UNL     1      46.136   2.574   7.619  0.00  0.00    +0.000 A 
ATOM     14  C   UNL     1      46.323   3.350   6.471  0.00  0.00    +0.000 A 
ATOM     15  C   UNL     1      47.126   2.867   5.439  0.00  0.00    +0.000 A 
ATOM     16  C   UNL     1      47.719   1.623   5.594  0.00  0.00    +0.000 A 
ATOM     17  N   UNL     1      47.571   0.854   6.694  0.00  0.00    +0.000 NA
ATOM     18  C   UNL     1      46.792   1.352   7.690  0.00  0.00    +0.000 A 
ENDBRANCH  10  13
ENDBRANCH   8   9
ENDBRANCH   5   8
ENDBRANCH   1   2
BRANCH   1  20
ATOM     19  N   UNL     1      47.042   2.894  17.372  0.00  0.00    +0.000 N 
ATOM     20  C   UNL     1      47.621   3.289  16.191  0.00  0.00    +0.000 C 
ATOM     21  O   UNL     1      48.516   2.593  15.719  0.00  0.00    +0.000 OA
ATOM     22  H   UNL     1      47.442   2.070  17.802  0.00  0.00    +0.000 HD
ATOM     23  H   UNL     1      46.622   3.588  17.984  0.00  0.00    +0.000 HD
ENDBRANCH   1  20
BRANCH   1  24
ATOM     24  N   UNL     1      48.233   5.608  15.783  0.00  0.00    +0.000 N 
ATOM     25  C   UNL     1      48.618   6.153  16.979  0.00  0.00    +0.000 C 
ATOM     26  O   UNL     1      48.058   5.869  18.036  0.00  0.00    +0.000 OA
ATOM     27  H   UNL     1      48.656   5.927  14.918  0.00  0.00    +0.000 HD
BRANCH  25  28
ATOM     28  C   UNL     1      49.785   7.046  16.934  0.00  0.00    +0.000 A 
ATOM     29  C   UNL     1      49.630   8.423  16.814  0.00  0.00    +0.000 A 
ATOM     30  S   UNL     1      51.113   9.273  16.822  0.00  0.00    +0.000 S 
ATOM     31  C   UNL     1      52.010   7.832  16.926  0.00  0.00    +0.000 A 
ATOM     32  N   UNL     1      53.369   7.842  16.940  0.00  0.00    +0.000 NA
ATOM     33  C   UNL     1      53.914   6.671  17.008  0.00  0.00    +0.000 A 
ATOM     34  N   UNL     1      53.223   5.493  17.063  0.00  0.00    +0.000 N 
ATOM     35  C   UNL     1      51.853   5.436  17.077  0.00  0.00    +0.000 A 
ATOM     36  O   UNL     1      51.272   4.361  17.193  0.00  0.00    +0.000 OA
ATOM     37  C   UNL     1      51.192   6.724  16.991  0.00  0.00    +0.000 A 
ATOM     38  H   UNL     1      53.699   4.605  17.128  0.00  0.00    +0.000 HD
ENDBRANCH  25  28
ENDBRANCH   1  24
TORSDOF 7
ENDMDL
MODEL 6
REMARK VINA RESULT:    -7.262      3.556      6.250
REMARK INTER + INTRA:         -11.622
REMARK INTER:                 -10.350
REMARK INTRA:                  -1.273
REMARK UNBOUND:                -1.389
REMARK  Name = 
REMARK  7 active torsions:
REMARK  status: ('A' for Active; 'I' for Inactive)
REMARK    1  A    between atoms: C_2  and  C_4
REMARK    2  A    between atoms: C_4  and  N_5
REMARK    3  A    between atoms: C_4  and  C_18
REMARK    4  A    between atoms: C_6  and  C_8
REMARK    5  A    between atoms: C_21  and  C_22
REMARK    6  A    between atoms: C_22  and  N_23
REMARK    7  A    between atoms: C_24  and  C_26
REMARK                            x       y       z     vdW  Elec       q    Type
REMARK                         _______ _______ _______ _____ _____    ______ ____
ROOT
ATOM      1  C   UNL     1      47.388   7.819  13.594  0.00  0.00    +0.000 C 
ENDROOT
BRANCH   1   2
ATOM      2  C   UNL     1      46.492   6.743  12.980  0.00  0.00    +0.000 A 
ATOM      3  C   UNL     1      46.573   5.427  13.469  0.00  0.00    +0.000 A 
ATOM      4  C   UNL     1      45.838   4.383  12.884  0.00  0.00    +0.000 A 
ATOM      5  C   UNL     1      44.997   4.624  11.791  0.00  0.00    +0.000 A 
ATOM      6  C   UNL     1      44.845   5.944  11.356  0.00  0.00    +0.000 A 
ATOM      7  C   UNL     1      45.571   6.988  11.949  0.00  0.00    +0.000 A 
BRANCH   5   8
ATOM      8  C   UNL     1      44.293   3.498  11.073  0.00  0.00    +0.000 C 
BRANCH   8   9
ATOM      9  N   UNL     1      45.110   2.896  10.044  0.00  0.00    +0.000 N 
ATOM     10  C   UNL     1      45.027   3.341   8.738  0.00  0.00    +0.000 C 
ATOM     11  O   UNL     1      44.293   4.245   8.372  0.00  0.00    +0.000 OA
ATOM     12  H   UNL     1      45.906   2.347  10.338  0.00  0.00    +0.000 HD
BRANCH  10  13
ATOM     13  C   UNL     1      45.932   2.669   7.773  0.00  0.00    +0.000 A 
ATOM     14  C   UNL     1      46.353   3.279   6.588  0.00  0.00    +0.000 A 
ATOM     15  C   UNL     1      47.209   2.592   5.727  0.00  0.00    +0.000 A 
ATOM     16  C   UNL     1      47.617   1.316   6.086  0.00  0.00    +0.000 A 
ATOM     17  N   UNL     1      47.239   0.703   7.228  0.00  0.00    +0.000 NA
ATOM     18  C   UNL     1      46.414   1.398   8.055  0.00  0.00    +0.000 A 
ENDBRANCH  10  13
ENDBRANCH   8   9
ENDBRANCH   5   8
ENDBRANCH   1   2
BRANCH   1  20
ATOM     19  N   UNL     1      48.355   7.814  15.873  0.00  0.00    +0.000 N 
ATOM     20  C   UNL     1      48.457   7.305  14.600  0.00  0.00    +0.000 C 
ATOM     21  O   UNL     1      49.412   6.579  14.338  0.00  0.00    +0.000 OA
ATOM     22  H   UNL     1      49.121   7.590  16.496  0.00  0.00    +0.000 HD
ATOM     23  H   UNL     1      47.861   8.687  16.028  0.00  0.00    +0.000 HD
ENDBRANCH   1  20
BRANCH   1  24
ATOM     24  N   UNL     1      48.069   8.583  12.566  0.00  0.00    +0.000 N 
ATOM     25  C   UNL     1      48.525   9.862  12.748  0.00  0.00    +0.000 C 
ATOM     26  O   UNL     1      48.389  10.458  13.814  0.00  0.00    +0.000 OA
ATOM     27  H   UNL     1      48.118   8.150  11.650  0.00  0.00    +0.000 HD
BRANCH  25  28
ATOM     28  C   UNL     1      49.246  10.456  11.611  0.00  0.00    +0.000 A 
ATOM     29  C   UNL     1      48.677  11.475  10.855  0.00  0.00    +0.000 A 
ATOM     30  S   UNL     1      49.702  12.045   9.612  0.00  0.00    +0.000 S 
ATOM     31  C   UNL     1      50.911  10.915  10.003  0.00  0.00    +0.000 A 
ATOM     32  N   UNL     1      52.066  10.838   9.294  0.00  0.00    +0.000 NA
ATOM     33  C   UNL     1      52.885   9.922   9.697  0.00  0.00    +0.000 A 
ATOM     34  N   UNL     1      52.651   9.077  10.747  0.00  0.00    +0.000 N 
ATOM     35  C   UNL     1      51.512   9.135  11.507  0.00  0.00    +0.000 A 
ATOM     36  O   UNL     1      51.371   8.402  12.481  0.00  0.00    +0.000 OA
ATOM     37  C   UNL     1      50.554  10.140  11.088  0.00  0.00    +0.000 A 
ATOM     38  H   UNL     1      53.332   8.386  11.029  0.00  0.00    +0.000 HD
ENDBRANCH  25  28
ENDBRANCH   1  24
TORSDOF 7
ENDMDL
MODEL 7
REMARK VINA RESULT:    -7.151      6.792     10.256
REMARK INTER + INTRA:         -11.466
REMARK INTER:                 -10.399
REMARK INTRA:                  -1.067
REMARK UNBOUND:                -1.389
REMARK  Name = 
REMARK  7 active torsions:
REMARK  status: ('A' for Active; 'I' for Inactive)
REMARK    1  A    between atoms: C_2  and  C_4
REMARK    2  A    between atoms: C_4  and  N_5
REMARK    3  A    between atoms: C_4  and  C_18
REMARK    4  A    between atoms: C_6  and  C_8
REMARK    5  A    between atoms: C_21  and  C_22
REMARK    6  A    between atoms: C_22  and  N_23
REMARK    7  A    between atoms: C_24  and  C_26
REMARK                            x       y       z     vdW  Elec       q    Type
REMARK                         _______ _______ _______ _____ _____    ______ ____
ROOT
ATOM      1  C   UNL     1      46.238   4.849  14.206  0.00  0.00    +0.000 C 
ENDROOT
BRANCH   1   2
ATOM      2  C   UNL     1      45.946   6.149  13.456  0.00  0.00    +0.000 A 
ATOM      3  C   UNL     1      46.830   7.233  13.600  0.00  0.00    +0.000 A 
ATOM      4  C   UNL     1      46.565   8.478  13.005  0.00  0.00    +0.000 A 
ATOM      5  C   UNL     1      45.404   8.676  12.247  0.00  0.00    +0.000 A 
ATOM      6  C   UNL     1      44.565   7.579  12.028  0.00  0.00    +0.000 A 
ATOM      7  C   UNL     1      44.838   6.334  12.613  0.00  0.00    +0.000 A 
BRANCH   5   8
ATOM      8  C   UNL     1      45.042  10.036  11.702  0.00  0.00    +0.000 C 
BRANCH   8   9
ATOM      9  N   UNL     1      43.692  10.429  12.038  0.00  0.00    +0.000 N 
ATOM     10  C   UNL     1      42.727  10.524  11.053  0.00  0.00    +0.000 C 
ATOM     11  O   UNL     1      42.931  10.284   9.874  0.00  0.00    +0.000 OA
ATOM     12  H   UNL     1      43.415  10.375  13.008  0.00  0.00    +0.000 HD
BRANCH  10  13
ATOM     13  C   UNL     1      41.371  10.910  11.519  0.00  0.00    +0.000 A 
ATOM     14  C   UNL     1      41.145  12.030  12.324  0.00  0.00    +0.000 A 
ATOM     15  C   UNL     1      39.845  12.338  12.722  0.00  0.00    +0.000 A 
ATOM     16  C   UNL     1      38.814  11.515  12.296  0.00  0.00    +0.000 A 
ATOM     17  N   UNL     1      38.996  10.433  11.508  0.00  0.00    +0.000 NA
ATOM     18  C   UNL     1      40.270  10.160  11.125  0.00  0.00    +0.000 A 
ENDBRANCH  10  13
ENDBRANCH   8   9
ENDBRANCH   5   8
ENDBRANCH   1   2
BRANCH   1  20
ATOM     19  N   UNL     1      45.562   2.918  12.813  0.00  0.00    +0.000 N 
ATOM     20  C   UNL     1      46.622   3.634  13.314  0.00  0.00    +0.000 C 
ATOM     21  O   UNL     1      47.758   3.217  13.104  0.00  0.00    +0.000 OA
ATOM     22  H   UNL     1      45.800   2.054  12.344  0.00  0.00    +0.000 HD
ATOM     23  H   UNL     1      44.656   2.972  13.269  0.00  0.00    +0.000 HD
ENDBRANCH   1  20
BRANCH   1  24
ATOM     24  N   UNL     1      47.289   5.036  15.188  0.00  0.00    +0.000 N 
ATOM     25  C   UNL     1      47.359   4.342  16.367  0.00  0.00    +0.000 C 
ATOM     26  O   UNL     1      46.522   3.496  16.676  0.00  0.00    +0.000 OA
ATOM     27  H   UNL     1      47.944   5.788  15.000  0.00  0.00    +0.000 HD
BRANCH  25  28
ATOM     28  C   UNL     1      48.530   4.622  17.210  0.00  0.00    +0.000 A 
ATOM     29  C   UNL     1      48.628   5.806  17.931  0.00  0.00    +0.000 A 
ATOM     30  S   UNL     1      50.050   5.908  18.875  0.00  0.00    +0.000 S 
ATOM     31  C   UNL     1      50.607   4.404  18.309  0.00  0.00    +0.000 A 
ATOM     32  N   UNL     1      51.805   3.898  18.703  0.00  0.00    +0.000 NA
ATOM     33  C   UNL     1      52.103   2.753  18.180  0.00  0.00    +0.000 A 
ATOM     34  N   UNL     1      51.311   2.070  17.299  0.00  0.00    +0.000 N 
ATOM     35  C   UNL     1      50.084   2.530  16.893  0.00  0.00    +0.000 A 
ATOM     36  O   UNL     1      49.376   1.855  16.152  0.00  0.00    +0.000 OA
ATOM     37  C   UNL     1      49.707   3.818  17.443  0.00  0.00    +0.000 A 
ATOM     38  H   UNL     1      51.586   1.172  16.930  0.00  0.00    +0.000 HD
ENDBRANCH  25  28
ENDBRANCH   1  24
TORSDOF 7
ENDMDL
MODEL 8
REMARK VINA RESULT:    -7.009      5.472     10.270
REMARK INTER + INTRA:         -11.266
REMARK INTER:                 -10.006
REMARK INTRA:                  -1.260
REMARK UNBOUND:                -1.389
REMARK  Name = 
REMARK  7 active torsions:
REMARK  status: ('A' for Active; 'I' for Inactive)
REMARK    1  A    between atoms: C_2  and  C_4
REMARK    2  A    between atoms: C_4  and  N_5
REMARK    3  A    between atoms: C_4  and  C_18
REMARK    4  A    between atoms: C_6  and  C_8
REMARK    5  A    between atoms: C_21  and  C_22
REMARK    6  A    between atoms: C_22  and  N_23
REMARK    7  A    between atoms: C_24  and  C_26
REMARK                            x       y       z     vdW  Elec       q    Type
REMARK                         _______ _______ _______ _____ _____    ______ ____
ROOT
ATOM      1  C   UNL     1      48.077   7.838  12.850  0.00  0.00    +0.000 C 
ENDROOT
BRANCH   1   2
ATOM      2  C   UNL     1      48.391   7.421  14.288  0.00  0.00    +0.000 A 
ATOM      3  C   UNL     1      49.035   8.337  15.138  0.00  0.00    +0.000 A 
ATOM      4  C   UNL     1      49.426   7.977  16.439  0.00  0.00    +0.000 A 
ATOM      5  C   UNL     1      49.182   6.689  16.929  0.00  0.00    +0.000 A 
ATOM      6  C   UNL     1      48.465   5.801  16.120  0.00  0.00    +0.000 A 
ATOM      7  C   UNL     1      48.066   6.166  14.826  0.00  0.00    +0.000 A 
BRANCH   5   8
ATOM      8  C   UNL     1      49.699   6.246  18.276  0.00  0.00    +0.000 C 
BRANCH   8   9
ATOM      9  N   UNL     1      50.237   4.905  18.254  0.00  0.00    +0.000 N 
ATOM     10  C   UNL     1      51.498   4.667  17.739  0.00  0.00    +0.000 C 
ATOM     11  O   UNL     1      52.226   5.538  17.290  0.00  0.00    +0.000 OA
ATOM     12  H   UNL     1      49.797   4.213  18.845  0.00  0.00    +0.000 HD
BRANCH  10  13
ATOM     13  C   UNL     1      51.956   3.256  17.793  0.00  0.00    +0.000 A 
ATOM     14  C   UNL     1      53.238   2.899  18.221  0.00  0.00    +0.000 A 
ATOM     15  C   UNL     1      53.602   1.553  18.252  0.00  0.00    +0.000 A 
ATOM     16  C   UNL     1      52.666   0.610  17.857  0.00  0.00    +0.000 A 
ATOM     17  N   UNL     1      51.416   0.919  17.450  0.00  0.00    +0.000 NA
ATOM     18  C   UNL     1      51.082   2.236  17.439  0.00  0.00    +0.000 A 
ENDBRANCH  10  13
ENDBRANCH   8   9
ENDBRANCH   5   8
ENDBRANCH   1   2
BRANCH   1  20
ATOM     19  N   UNL     1      50.304   7.329  11.898  0.00  0.00    +0.000 N 
ATOM     20  C   UNL     1      49.304   8.266  11.995  0.00  0.00    +0.000 C 
ATOM     21  O   UNL     1      49.490   9.371  11.493  0.00  0.00    +0.000 OA
ATOM     22  H   UNL     1      51.159   7.645  11.458  0.00  0.00    +0.000 HD
ATOM     23  H   UNL     1      50.378   6.596  12.598  0.00  0.00    +0.000 HD
ENDBRANCH   1  20
BRANCH   1  24
ATOM     24  N   UNL     1      47.379   6.784  12.139  0.00  0.00    +0.000 N 
ATOM     25  C   UNL     1      46.107   6.914  11.648  0.00  0.00    +0.000 C 
ATOM     26  O   UNL     1      45.461   7.953  11.774  0.00  0.00    +0.000 OA
ATOM     27  H   UNL     1      47.853   5.888  12.096  0.00  0.00    +0.000 HD
BRANCH  25  28
ATOM     28  C   UNL     1      45.584   5.760  10.901  0.00  0.00    +0.000 A 
ATOM     29  C   UNL     1      45.816   5.624   9.537  0.00  0.00    +0.000 A 
ATOM     30  S   UNL     1      45.155   4.191   8.879  0.00  0.00    +0.000 S 
ATOM     31  C   UNL     1      44.490   3.736  10.377  0.00  0.00    +0.000 A 
ATOM     32  N   UNL     1      43.755   2.602  10.511  0.00  0.00    +0.000 NA
ATOM     33  C   UNL     1      43.301   2.393  11.704  0.00  0.00    +0.000 A 
ATOM     34  N   UNL     1      43.519   3.216  12.774  0.00  0.00    +0.000 N 
ATOM     35  C   UNL     1      44.275   4.356  12.692  0.00  0.00    +0.000 A 
ATOM     36  O   UNL     1      44.500   5.032  13.691  0.00  0.00    +0.000 OA
ATOM     37  C   UNL     1      44.798   4.643  11.370  0.00  0.00    +0.000 A 
ATOM     38  H   UNL     1      43.152   2.998  13.689  0.00  0.00    +0.000 HD
ENDBRANCH  25  28
ENDBRANCH   1  24
TORSDOF 7
ENDMDL
MODEL 9
REMARK VINA RESULT:    -6.914      3.888      7.387
REMARK INTER + INTRA:         -11.132
REMARK INTER:                 -10.163
REMARK INTRA:                  -0.969
REMARK UNBOUND:                -1.389
REMARK  Name = 
REMARK  7 active torsions:
REMARK  status: ('A' for Active; 'I' for Inactive)
REMARK    1  A    between atoms: C_2  and  C_4
REMARK    2  A    between atoms: C_4  and  N_5
REMARK    3  A    between atoms: C_4  and  C_18
REMARK    4  A    between atoms: C_6  and  C_8
REMARK    5  A    between atoms: C_21  and  C_22
REMARK    6  A    between atoms: C_22  and  N_23
REMARK    7  A    between atoms: C_24  and  C_26
REMARK                            x       y       z     vdW  Elec       q    Type
REMARK                         _______ _______ _______ _____ _____    ______ ____
ROOT
ATOM      1  C   UNL     1      48.491   8.255  14.494  0.00  0.00    +0.000 C 
ENDROOT
BRANCH   1   2
ATOM      2  C   UNL     1      47.389   7.628  13.639  0.00  0.00    +0.000 A 
ATOM      3  C   UNL     1      47.378   6.233  13.457  0.00  0.00    +0.000 A 
ATOM      4  C   UNL     1      46.443   5.614  12.611  0.00  0.00    +0.000 A 
ATOM      5  C   UNL     1      45.488   6.371  11.921  0.00  0.00    +0.000 A 
ATOM      6  C   UNL     1      45.439   7.747  12.165  0.00  0.00    +0.000 A 
ATOM      7  C   UNL     1      46.366   8.363  13.019  0.00  0.00    +0.000 A 
BRANCH   5   8
ATOM      8  C   UNL     1      44.555   5.739  10.918  0.00  0.00    +0.000 C 
BRANCH   8   9
ATOM      9  N   UNL     1      45.254   4.970   9.914  0.00  0.00    +0.000 N 
ATOM     10  C   UNL     1      44.784   3.725   9.536  0.00  0.00    +0.000 C 
ATOM     11  O   UNL     1      43.780   3.208   9.996  0.00  0.00    +0.000 OA
ATOM     12  H   UNL     1      45.916   5.457   9.325  0.00  0.00    +0.000 HD
BRANCH  10  13
ATOM     13  C   UNL     1      45.568   3.040   8.478  0.00  0.00    +0.000 A 
ATOM     14  C   UNL     1      45.914   1.687   8.558  0.00  0.00    +0.000 A 
ATOM     15  C   UNL     1      46.648   1.104   7.525  0.00  0.00    +0.000 A 
ATOM     16  C   UNL     1      47.005   1.895   6.444  0.00  0.00    +0.000 A 
ATOM     17  N   UNL     1      46.676   3.200   6.329  0.00  0.00    +0.000 NA
ATOM     18  C   UNL     1      45.952   3.742   7.343  0.00  0.00    +0.000 A 
ENDBRANCH  10  13
ENDBRANCH   8   9
ENDBRANCH   5   8
ENDBRANCH   1   2
BRANCH   1  20
ATOM     19  N   UNL     1      48.477  10.699  14.882  0.00  0.00    +0.000 N 
ATOM     20  C   UNL     1      48.931   9.686  14.073  0.00  0.00    +0.000 C 
ATOM     21  O   UNL     1      49.552   9.985  13.057  0.00  0.00    +0.000 OA
ATOM     22  H   UNL     1      48.646  11.638  14.545  0.00  0.00    +0.000 HD
ATOM     23  H   UNL     1      47.661  10.549  15.468  0.00  0.00    +0.000 HD
ENDBRANCH   1  20
BRANCH   1  24
ATOM     24  N   UNL     1      48.109   8.295  15.893  0.00  0.00    +0.000 N 
ATOM     25  C   UNL     1      48.849   7.730  16.898  0.00  0.00    +0.000 C 
ATOM     26  O   UNL     1      49.907   7.143  16.679  0.00  0.00    +0.000 OA
ATOM     27  H   UNL     1      47.199   8.695  16.093  0.00  0.00    +0.000 HD
BRANCH  25  28
ATOM     28  C   UNL     1      48.335   7.923  18.262  0.00  0.00    +0.000 A 
ATOM     29  C   UNL     1      48.006   9.190  18.731  0.00  0.00    +0.000 A 
ATOM     30  S   UNL     1      47.391   9.182  20.326  0.00  0.00    +0.000 S 
ATOM     31  C   UNL     1      47.598   7.499  20.463  0.00  0.00    +0.000 A 
ATOM     32  N   UNL     1      47.292   6.839  21.610  0.00  0.00    +0.000 NA
ATOM     33  C   UNL     1      47.515   5.565  21.573  0.00  0.00    +0.000 A 
ATOM     34  N   UNL     1      48.016   4.894  20.492  0.00  0.00    +0.000 N 
ATOM     35  C   UNL     1      48.315   5.515  19.306  0.00  0.00    +0.000 A 
ATOM     36  O   UNL     1      48.702   4.866  18.339  0.00  0.00    +0.000 OA
ATOM     37  C   UNL     1      48.094   6.948  19.300  0.00  0.00    +0.000 A 
ATOM     38  H   UNL     1      48.159   3.895  20.511  0.00  0.00    +0.000 HD
ENDBRANCH  25  28
ENDBRANCH   1  24
TORSDOF 7
ENDMDL
