MODEL 1
REMARK VINA RESULT:    -8.244      0.000      0.000
REMARK INTER + INTRA:         -12.216
REMARK INTER:                 -11.136
REMARK INTRA:                  -1.080
REMARK UNBOUND:                -1.080
REMARK  Name = 
REMARK  6 active torsions:
REMARK  status: ('A' for Active; 'I' for Inactive)
REMARK    1  A    between atoms: C_2  and  C_4
REMARK    2  A    between atoms: C_7  and  O_8
REMARK    3  A    between atoms: O_8  and  C_9
REMARK    4  A    between atoms: C_9  and  C_10
REMARK    5  A    between atoms: C_10  and  C_11
REMARK    6  A    between atoms: C_15  and  C_16
REMARK                            x       y       z     vdW  Elec       q    Type
REMARK                         _______ _______ _______ _____ _____    ______ ____
ROOT
ATOM      1  C   UNL     1      43.397   3.473  11.391  0.00  0.00    +0.000 C 
ENDROOT
BRANCH   1   2
ATOM      2  O   UNL     1      43.686   4.101  10.143  0.00  0.00    +0.000 OA
BRANCH   2   6
ATOM      3  C   UNL     1      46.487   2.397   7.563  0.00  0.00    +0.000 A 
ATOM      4  C   UNL     1      45.789   1.556   8.437  0.00  0.00    +0.000 A 
ATOM      5  C   UNL     1      44.844   2.090   9.318  0.00  0.00    +0.000 A 
ATOM      6  C   UNL     1      44.594   3.464   9.338  0.00  0.00    +0.000 A 
ATOM      7  C   UNL     1      45.309   4.302   8.479  0.00  0.00    +0.000 A 
ATOM      8  C   UNL     1      46.258   3.775   7.598  0.00  0.00    +0.000 A 
BRANCH   3  10
ATOM      9  N   UNL     1      48.577   2.643   6.338  0.00  0.00    +0.000 N 
ATOM     10  C   UNL     1      47.489   1.861   6.604  0.00  0.00    +0.000 C 
ATOM     11  O   UNL     1      47.372   0.748   6.106  0.00  0.00    +0.000 OA
ATOM     12  H   UNL     1      49.303   2.219   5.775  0.00  0.00    +0.000 HD
ATOM     13  H   UNL     1      48.832   3.427   6.920  0.00  0.00    +0.000 HD
ENDBRANCH   3  10
ENDBRANCH   2   6
ENDBRANCH   1   2
BRANCH   1  14
ATOM     14  C   UNL     1      43.250   4.547  12.469  0.00  0.00    +0.000 C 
BRANCH  14  15
ATOM     15  C   UNL     1      44.598   5.099  12.852  0.00  0.00    +0.000 A 
ATOM     16  C   UNL     1      45.638   4.253  13.248  0.00  0.00    +0.000 A 
ATOM     17  C   UNL     1      46.898   4.778  13.516  0.00  0.00    +0.000 A 
ATOM     18  C   UNL     1      47.138   6.147  13.361  0.00  0.00    +0.000 A 
ATOM     19  C   UNL     1      46.131   7.022  12.914  0.00  0.00    +0.000 A 
ATOM     20  C   UNL     1      44.855   6.470  12.701  0.00  0.00    +0.000 A 
BRANCH  19  21
ATOM     21  C   UNL     1      46.413   8.433  12.556  0.00  0.00    +0.000 A 
ATOM     22  C   UNL     1      47.730   8.863  12.311  0.00  0.00    +0.000 A 
ATOM     23  C   UNL     1      48.004  10.144  11.827  0.00  0.00    +0.000 A 
ATOM     24  C   UNL     1      46.962  11.028  11.574  0.00  0.00    +0.000 A 
ATOM     25  C   UNL     1      45.652  10.644  11.837  0.00  0.00    +0.000 A 
ATOM     26  C   UNL     1      45.381   9.366  12.337  0.00  0.00    +0.000 A 
ENDBRANCH  19  21
ENDBRANCH  14  15
ENDBRANCH   1  14
TORSDOF 6
ENDMDL
MODEL 2
REMARK VINA RESULT:    -8.201      1.856      3.963
REMARK INTER + INTRA:         -12.158
REMARK INTER:                 -11.012
REMARK INTRA:                  -1.146
REMARK UNBOUND:                -1.080
REMARK  Name = 
REMARK  6 active torsions:
REMARK  status: ('A' for Active; 'I' for Inactive)
REMARK    1  A    between atoms: C_2  and  C_4
REMARK    2  A    between atoms: C_7  and  O_8
REMARK    3  A    between atoms: O_8  and  C_9
REMARK    4  A    between atoms: C_9  and  C_10
REMARK    5  A    between atoms: C_10  and  C_11
REMARK    6  A    between atoms: C_15  and  C_16
REMARK                            x       y       z     vdW  Elec       q    Type
REMARK                         _______ _______ _______ _____ _____    ______ ____
ROOT
ATOM      1  C   UNL     1      43.389   4.986  10.654  0.00  0.00    +0.000 C 
ENDROOT
BRANCH   1   2
ATOM      2  O   UNL     1      43.585   3.601  10.371  0.00  0.00    +0.000 OA
BRANCH   2   6
ATOM      3  C   UNL     1      46.465   2.436   7.585  0.00  0.00    +0.000 A 
ATOM      4  C   UNL     1      46.145   3.794   7.684  0.00  0.00    +0.000 A 
ATOM      5  C   UNL     1      45.183   4.223   8.604  0.00  0.00    +0.000 A 
ATOM      6  C   UNL     1      44.531   3.302   9.426  0.00  0.00    +0.000 A 
ATOM      7  C   UNL     1      44.838   1.944   9.309  0.00  0.00    +0.000 A 
ATOM      8  C   UNL     1      45.795   1.508   8.389  0.00  0.00    +0.000 A 
BRANCH   3  10
ATOM      9  N   UNL     1      48.603   2.722   6.456  0.00  0.00    +0.000 N 
ATOM     10  C   UNL     1      47.491   1.947   6.628  0.00  0.00    +0.000 C 
ATOM     11  O   UNL     1      47.372   0.874   6.049  0.00  0.00    +0.000 OA
ATOM     12  H   UNL     1      49.341   2.324   5.891  0.00  0.00    +0.000 HD
ATOM     13  H   UNL     1      48.850   3.459   7.100  0.00  0.00    +0.000 HD
ENDBRANCH   3  10
ENDBRANCH   2   6
ENDBRANCH   1   2
BRANCH   1  14
ATOM     14  C   UNL     1      43.641   5.234  12.141  0.00  0.00    +0.000 C 
BRANCH  14  15
ATOM     15  C   UNL     1      45.101   5.516  12.388  0.00  0.00    +0.000 A 
ATOM     16  C   UNL     1      45.819   6.382  11.560  0.00  0.00    +0.000 A 
ATOM     17  C   UNL     1      47.143   6.692  11.857  0.00  0.00    +0.000 A 
ATOM     18  C   UNL     1      47.749   6.165  13.002  0.00  0.00    +0.000 A 
ATOM     19  C   UNL     1      47.042   5.332  13.888  0.00  0.00    +0.000 A 
ATOM     20  C   UNL     1      45.723   4.995  13.533  0.00  0.00    +0.000 A 
BRANCH  19  21
ATOM     21  C   UNL     1      47.598   4.924  15.201  0.00  0.00    +0.000 A 
ATOM     22  C   UNL     1      47.342   3.642  15.722  0.00  0.00    +0.000 A 
ATOM     23  C   UNL     1      47.975   3.183  16.879  0.00  0.00    +0.000 A 
ATOM     24  C   UNL     1      48.882   3.998  17.545  0.00  0.00    +0.000 A 
ATOM     25  C   UNL     1      49.130   5.283  17.074  0.00  0.00    +0.000 A 
ATOM     26  C   UNL     1      48.483   5.747  15.924  0.00  0.00    +0.000 A 
ENDBRANCH  19  21
ENDBRANCH  14  15
ENDBRANCH   1  14
TORSDOF 6
ENDMDL
MODEL 3
REMARK VINA RESULT:    -7.150      3.136      7.351
REMARK INTER + INTRA:         -10.738
REMARK INTER:                 -10.050
REMARK INTRA:                  -0.688
REMARK UNBOUND:                -1.080
REMARK  Name = 
REMARK  6 active torsions:
REMARK  status: ('A' for Active; 'I' for Inactive)
REMARK    1  A    between atoms: C_2  and  C_4
REMARK    2  A    between atoms: C_7  and  O_8
REMARK    3  A    between atoms: O_8  and  C_9
REMARK    4  A    between atoms: C_9  and  C_10
REMARK    5  A    between atoms: C_10  and  C_11
REMARK    6  A    between atoms: C_15  and  C_16
REMARK                            x       y       z     vdW  Elec       q    Type
REMARK                         _______ _______ _______ _____ _____    ______ ____
ROOT
ATOM      1  C   UNL     1      43.208   3.817  12.156  0.00  0.00    +0.000 C 
ENDROOT
BRANCH   1   2
ATOM      2  O   UNL     1      44.087   3.772  13.279  0.00  0.00    +0.000 OA
BRANCH   2   6
ATOM      3  C   UNL     1      46.884   6.869  13.309  0.00  0.00    +0.000 A 
ATOM      4  C   UNL     1      47.313   5.580  13.646  0.00  0.00    +0.000 A 
ATOM      5  C   UNL     1      46.405   4.518  13.650  0.00  0.00    +0.000 A 
ATOM      6  C   UNL     1      45.064   4.732  13.324  0.00  0.00    +0.000 A 
ATOM      7  C   UNL     1      44.635   6.024  13.009  0.00  0.00    +0.000 A 
ATOM      8  C   UNL     1      45.537   7.092  13.007  0.00  0.00    +0.000 A 
BRANCH   3  10
ATOM      9  N   UNL     1      47.404   9.182  13.862  0.00  0.00    +0.000 N 
ATOM     10  C   UNL     1      47.825   8.019  13.282  0.00  0.00    +0.000 C 
ATOM     11  O   UNL     1      48.948   7.921  12.803  0.00  0.00    +0.000 OA
ATOM     12  H   UNL     1      48.094   9.918  13.937  0.00  0.00    +0.000 HD
ATOM     13  H   UNL     1      46.611   9.216  14.486  0.00  0.00    +0.000 HD
ENDBRANCH   3  10
ENDBRANCH   2   6
ENDBRANCH   1   2
BRANCH   1  14
ATOM     14  C   UNL     1      43.678   2.804  11.112  0.00  0.00    +0.000 C 
BRANCH  14  15
ATOM     15  C   UNL     1      44.493   3.486  10.044  0.00  0.00    +0.000 A 
ATOM     16  C   UNL     1      44.882   4.822  10.176  0.00  0.00    +0.000 A 
ATOM     17  C   UNL     1      45.705   5.405   9.217  0.00  0.00    +0.000 A 
ATOM     18  C   UNL     1      46.171   4.650   8.136  0.00  0.00    +0.000 A 
ATOM     19  C   UNL     1      45.845   3.289   7.998  0.00  0.00    +0.000 A 
ATOM     20  C   UNL     1      44.970   2.741   8.954  0.00  0.00    +0.000 A 
BRANCH  19  21
ATOM     21  C   UNL     1      46.484   2.423   6.977  0.00  0.00    +0.000 A 
ATOM     22  C   UNL     1      46.786   1.079   7.262  0.00  0.00    +0.000 A 
ATOM     23  C   UNL     1      47.246   0.207   6.273  0.00  0.00    +0.000 A 
ATOM     24  C   UNL     1      47.414   0.660   4.971  0.00  0.00    +0.000 A 
ATOM     25  C   UNL     1      47.157   1.992   4.665  0.00  0.00    +0.000 A 
ATOM     26  C   UNL     1      46.711   2.868   5.660  0.00  0.00    +0.000 A 
ENDBRANCH  19  21
ENDBRANCH  14  15
ENDBRANCH   1  14
TORSDOF 6
ENDMDL
MODEL 4
REMARK VINA RESULT:    -7.141      3.026      7.057
REMARK INTER + INTRA:         -10.726
REMARK INTER:                  -9.763
REMARK INTRA:                  -0.962
REMARK UNBOUND:                -1.080
REMARK  Name = 
REMARK  6 active torsions:
REMARK  status: ('A' for Active; 'I' for Inactive)
REMARK    1  A    between atoms: C_2  and  C_4
REMARK    2  A    between atoms: C_7  and  O_8
REMARK    3  A    between atoms: O_8  and  C_9
REMARK    4  A    between atoms: C_9  and  C_10
REMARK    5  A    between atoms: C_10  and  C_11
REMARK    6  A    between atoms: C_15  and  C_16
REMARK                            x       y       z     vdW  Elec       q    Type
REMARK                         _______ _______ _______ _____ _____    ______ ____
ROOT
ATOM      1  C   UNL     1      45.070   6.880  12.759  0.00  0.00    +0.000 C 
ENDROOT
BRANCH   1   2
ATOM      2  O   UNL     1      45.552   8.221  12.682  0.00  0.00    +0.000 OA
BRANCH   2   6
ATOM      3  C   UNL     1      49.599   8.428  11.687  0.00  0.00    +0.000 A 
ATOM      4  C   UNL     1      48.847   9.608  11.668  0.00  0.00    +0.000 A 
ATOM      5  C   UNL     1      47.488   9.579  11.992  0.00  0.00    +0.000 A 
ATOM      6  C   UNL     1      46.868   8.374  12.333  0.00  0.00    +0.000 A 
ATOM      7  C   UNL     1      47.618   7.195  12.330  0.00  0.00    +0.000 A 
ATOM      8  C   UNL     1      48.976   7.217  12.002  0.00  0.00    +0.000 A 
BRANCH   3  10
ATOM      9  N   UNL     1      51.578   7.259  10.884  0.00  0.00    +0.000 N 
ATOM     10  C   UNL     1      51.049   8.425  11.360  0.00  0.00    +0.000 C 
ATOM     11  O   UNL     1      51.735   9.434  11.467  0.00  0.00    +0.000 OA
ATOM     12  H   UNL     1      52.535   7.304  10.560  0.00  0.00    +0.000 HD
ATOM     13  H   UNL     1      51.000   6.506  10.540  0.00  0.00    +0.000 HD
ENDBRANCH   3  10
ENDBRANCH   2   6
ENDBRANCH   1   2
BRANCH   1  14
ATOM     14  C   UNL     1      44.196   6.593  11.538  0.00  0.00    +0.000 C 
BRANCH  14  15
ATOM     15  C   UNL     1      44.191   5.118  11.227  0.00  0.00    +0.000 A 
ATOM     16  C   UNL     1      43.326   4.244  11.891  0.00  0.00    +0.000 A 
ATOM     17  C   UNL     1      43.281   2.901  11.528  0.00  0.00    +0.000 A 
ATOM     18  C   UNL     1      44.076   2.428  10.480  0.00  0.00    +0.000 A 
ATOM     19  C   UNL     1      44.920   3.288   9.754  0.00  0.00    +0.000 A 
ATOM     20  C   UNL     1      44.983   4.628  10.177  0.00  0.00    +0.000 A 
BRANCH  19  21
ATOM     21  C   UNL     1      45.618   2.853   8.520  0.00  0.00    +0.000 A 
ATOM     22  C   UNL     1      45.924   3.777   7.504  0.00  0.00    +0.000 A 
ATOM     23  C   UNL     1      46.711   3.423   6.406  0.00  0.00    +0.000 A 
ATOM     24  C   UNL     1      47.213   2.132   6.298  0.00  0.00    +0.000 A 
ATOM     25  C   UNL     1      46.900   1.186   7.269  0.00  0.00    +0.000 A 
ATOM     26  C   UNL     1      46.098   1.539   8.360  0.00  0.00    +0.000 A 
ENDBRANCH  19  21
ENDBRANCH  14  15
ENDBRANCH   1  14
TORSDOF 6
ENDMDL
MODEL 5
REMARK VINA RESULT:    -7.137      3.376      7.537
REMARK INTER + INTRA:         -10.721
REMARK INTER:                  -9.873
REMARK INTRA:                  -0.847
REMARK UNBOUND:                -1.080
REMARK  Name = 
REMARK  6 active torsions:
REMARK  status: ('A' for Active; 'I' for Inactive)
REMARK    1  A    between atoms: C_2  and  C_4
REMARK    2  A    between atoms: C_7  and  O_8
REMARK    3  A    between atoms: O_8  and  C_9
REMARK    4  A    between atoms: C_9  and  C_10
REMARK    5  A    between atoms: C_10  and  C_11
REMARK    6  A    between atoms: C_15  and  C_16
REMARK                            x       y       z     vdW  Elec       q    Type
REMARK                         _______ _______ _______ _____ _____    ______ ____
ROOT
ATOM      1  C   UNL     1      45.734   7.200  12.057  0.00  0.00    +0.000 C 
ENDROOT
BRANCH   1   2
ATOM      2  O   UNL     1      46.636   6.096  12.114  0.00  0.00    +0.000 OA
BRANCH   2   6
ATOM      3  C   UNL     1      47.817   4.801  15.900  0.00  0.00    +0.000 A 
ATOM      4  C   UNL     1      48.327   6.012  15.421  0.00  0.00    +0.000 A 
ATOM      5  C   UNL     1      47.957   6.478  14.156  0.00  0.00    +0.000 A 
ATOM      6  C   UNL     1      47.082   5.738  13.359  0.00  0.00    +0.000 A 
ATOM      7  C   UNL     1      46.591   4.518  13.832  0.00  0.00    +0.000 A 
ATOM      8  C   UNL     1      46.961   4.045  15.094  0.00  0.00    +0.000 A 
BRANCH   3  10
ATOM      9  N   UNL     1      48.805   3.069  17.297  0.00  0.00    +0.000 N 
ATOM     10  C   UNL     1      48.180   4.282  17.245  0.00  0.00    +0.000 C 
ATOM     11  O   UNL     1      47.970   4.931  18.263  0.00  0.00    +0.000 OA
ATOM     12  H   UNL     1      49.146   2.782  18.206  0.00  0.00    +0.000 HD
ATOM     13  H   UNL     1      49.222   2.642  16.483  0.00  0.00    +0.000 HD
ENDBRANCH   3  10
ENDBRANCH   2   6
ENDBRANCH   1   2
BRANCH   1  14
ATOM     14  C   UNL     1      44.593   6.866  11.097  0.00  0.00    +0.000 C 
BRANCH  14  15
ATOM     15  C   UNL     1      44.482   5.375  10.907  0.00  0.00    +0.000 A 
ATOM     16  C   UNL     1      43.573   4.619  11.650  0.00  0.00    +0.000 A 
ATOM     17  C   UNL     1      43.429   3.258  11.399  0.00  0.00    +0.000 A 
ATOM     18  C   UNL     1      44.171   2.649  10.381  0.00  0.00    +0.000 A 
ATOM     19  C   UNL     1      45.057   3.387   9.577  0.00  0.00    +0.000 A 
ATOM     20  C   UNL     1      45.219   4.749   9.890  0.00  0.00    +0.000 A 
BRANCH  19  21
ATOM     21  C   UNL     1      45.701   2.808   8.373  0.00  0.00    +0.000 A 
ATOM     22  C   UNL     1      46.016   3.618   7.267  0.00  0.00    +0.000 A 
ATOM     23  C   UNL     1      46.756   3.129   6.188  0.00  0.00    +0.000 A 
ATOM     24  C   UNL     1      47.199   1.811   6.191  0.00  0.00    +0.000 A 
ATOM     25  C   UNL     1      46.875   0.976   7.254  0.00  0.00    +0.000 A 
ATOM     26  C   UNL     1      46.120   1.464   8.327  0.00  0.00    +0.000 A 
ENDBRANCH  19  21
ENDBRANCH  14  15
ENDBRANCH   1  14
TORSDOF 6
ENDMDL
MODEL 6
REMARK VINA RESULT:    -7.124      4.857      8.513
REMARK INTER + INTRA:         -10.702
REMARK INTER:                 -10.031
REMARK INTRA:                  -0.671
REMARK UNBOUND:                -1.080
REMARK  Name = 
REMARK  6 active torsions:
REMARK  status: ('A' for Active; 'I' for Inactive)
REMARK    1  A    between atoms: C_2  and  C_4
REMARK    2  A    between atoms: C_7  and  O_8
REMARK    3  A    between atoms: O_8  and  C_9
REMARK    4  A    between atoms: C_9  and  C_10
REMARK    5  A    between atoms: C_10  and  C_11
REMARK    6  A    between atoms: C_15  and  C_16
REMARK                            x       y       z     vdW  Elec       q    Type
REMARK                         _______ _______ _______ _____ _____    ______ ____
ROOT
ATOM      1  C   UNL     1      47.007   4.173  13.784  0.00  0.00    +0.000 C 
ENDROOT
BRANCH   1   2
ATOM      2  O   UNL     1      47.448   3.214  14.745  0.00  0.00    +0.000 OA
BRANCH   2   6
ATOM      3  C   UNL     1      48.445   4.461  18.600  0.00  0.00    +0.000 A 
ATOM      4  C   UNL     1      48.403   5.418  17.580  0.00  0.00    +0.000 A 
ATOM      5  C   UNL     1      48.076   5.038  16.276  0.00  0.00    +0.000 A 
ATOM      6  C   UNL     1      47.794   3.704  15.977  0.00  0.00    +0.000 A 
ATOM      7  C   UNL     1      47.857   2.748  16.994  0.00  0.00    +0.000 A 
ATOM      8  C   UNL     1      48.188   3.120  18.300  0.00  0.00    +0.000 A 
BRANCH   3  10
ATOM      9  N   UNL     1      47.733   5.141  20.827  0.00  0.00    +0.000 N 
ATOM     10  C   UNL     1      48.776   4.831  20.001  0.00  0.00    +0.000 C 
ATOM     11  O   UNL     1      49.929   4.817  20.415  0.00  0.00    +0.000 OA
ATOM     12  H   UNL     1      47.963   5.280  21.802  0.00  0.00    +0.000 HD
ATOM     13  H   UNL     1      46.778   4.909  20.598  0.00  0.00    +0.000 HD
ENDBRANCH   3  10
ENDBRANCH   2   6
ENDBRANCH   1   2
BRANCH   1  14
ATOM     14  C   UNL     1      45.546   4.524  14.063  0.00  0.00    +0.000 C 
BRANCH  14  15
ATOM     15  C   UNL     1      44.757   4.558  12.780  0.00  0.00    +0.000 A 
ATOM     16  C   UNL     1      43.619   5.359  12.653  0.00  0.00    +0.000 A 
ATOM     17  C   UNL     1      42.955   5.438  11.432  0.00  0.00    +0.000 A 
ATOM     18  C   UNL     1      43.441   4.741  10.321  0.00  0.00    +0.000 A 
ATOM     19  C   UNL     1      44.613   3.967  10.396  0.00  0.00    +0.000 A 
ATOM     20  C   UNL     1      45.232   3.865  11.655  0.00  0.00    +0.000 A 
BRANCH  19  21
ATOM     21  C   UNL     1      45.253   3.384   9.191  0.00  0.00    +0.000 A 
ATOM     22  C   UNL     1      45.778   4.214   8.184  0.00  0.00    +0.000 A 
ATOM     23  C   UNL     1      46.516   3.695   7.119  0.00  0.00    +0.000 A 
ATOM     24  C   UNL     1      46.747   2.327   7.035  0.00  0.00    +0.000 A 
ATOM     25  C   UNL     1      46.212   1.477   7.997  0.00  0.00    +0.000 A 
ATOM     26  C   UNL     1      45.460   1.998   9.055  0.00  0.00    +0.000 A 
ENDBRANCH  19  21
ENDBRANCH  14  15
ENDBRANCH   1  14
TORSDOF 6
ENDMDL
MODEL 7
REMARK VINA RESULT:    -7.065      4.807      8.164
REMARK INTER + INTRA:         -10.623
REMARK INTER:                  -9.932
REMARK INTRA:                  -0.691
REMARK UNBOUND:                -1.080
REMARK  Name = 
REMARK  6 active torsions:
REMARK  status: ('A' for Active; 'I' for Inactive)
REMARK    1  A    between atoms: C_2  and  C_4
REMARK    2  A    between atoms: C_7  and  O_8
REMARK    3  A    between atoms: O_8  and  C_9
REMARK    4  A    between atoms: C_9  and  C_10
REMARK    5  A    between atoms: C_10  and  C_11
REMARK    6  A    between atoms: C_15  and  C_16
REMARK                            x       y       z     vdW  Elec       q    Type
REMARK                         _______ _______ _______ _____ _____    ______ ____
ROOT
ATOM      1  C   UNL     1      46.899   4.242  14.197  0.00  0.00    +0.000 C 
ENDROOT
BRANCH   1   2
ATOM      2  O   UNL     1      46.764   3.890  15.574  0.00  0.00    +0.000 OA
BRANCH   2   6
ATOM      3  C   UNL     1      50.337   3.780  17.727  0.00  0.00    +0.000 A 
ATOM      4  C   UNL     1      49.751   2.568  17.345  0.00  0.00    +0.000 A 
ATOM      5  C   UNL     1      48.553   2.563  16.626  0.00  0.00    +0.000 A 
ATOM      6  C   UNL     1      47.928   3.765  16.286  0.00  0.00    +0.000 A 
ATOM      7  C   UNL     1      48.505   4.973  16.687  0.00  0.00    +0.000 A 
ATOM      8  C   UNL     1      49.701   4.984  17.411  0.00  0.00    +0.000 A 
BRANCH   3  10
ATOM      9  N   UNL     1      51.569   4.294  19.763  0.00  0.00    +0.000 N 
ATOM     10  C   UNL     1      51.616   3.821  18.482  0.00  0.00    +0.000 C 
ATOM     11  O   UNL     1      52.663   3.409  17.998  0.00  0.00    +0.000 OA
ATOM     12  H   UNL     1      52.422   4.210  20.301  0.00  0.00    +0.000 HD
ATOM     13  H   UNL     1      50.701   4.388  20.270  0.00  0.00    +0.000 HD
ENDBRANCH   3  10
ENDBRANCH   2   6
ENDBRANCH   1   2
BRANCH   1  14
ATOM     14  C   UNL     1      45.958   5.404  13.884  0.00  0.00    +0.000 C 
BRANCH  14  15
ATOM     15  C   UNL     1      45.001   5.027  12.783  0.00  0.00    +0.000 A 
ATOM     16  C   UNL     1      43.677   5.472  12.794  0.00  0.00    +0.000 A 
ATOM     17  C   UNL     1      42.835   5.180  11.724  0.00  0.00    +0.000 A 
ATOM     18  C   UNL     1      43.320   4.470  10.621  0.00  0.00    +0.000 A 
ATOM     19  C   UNL     1      44.661   4.052  10.550  0.00  0.00    +0.000 A 
ATOM     20  C   UNL     1      45.472   4.315  11.669  0.00  0.00    +0.000 A 
BRANCH  19  21
ATOM     21  C   UNL     1      45.244   3.475   9.315  0.00  0.00    +0.000 A 
ATOM     22  C   UNL     1      45.767   4.309   8.309  0.00  0.00    +0.000 A 
ATOM     23  C   UNL     1      46.454   3.789   7.211  0.00  0.00    +0.000 A 
ATOM     24  C   UNL     1      46.637   2.417   7.091  0.00  0.00    +0.000 A 
ATOM     25  C   UNL     1      46.103   1.564   8.051  0.00  0.00    +0.000 A 
ATOM     26  C   UNL     1      45.401   2.086   9.143  0.00  0.00    +0.000 A 
ENDBRANCH  19  21
ENDBRANCH  14  15
ENDBRANCH   1  14
TORSDOF 6
ENDMDL
MODEL 8
REMARK VINA RESULT:    -6.883      4.062      7.642
REMARK INTER + INTRA:         -10.377
REMARK INTER:                  -9.227
REMARK INTRA:                  -1.150
REMARK UNBOUND:                -1.080
REMARK  Name = 
REMARK  6 active torsions:
REMARK  status: ('A' for Active; 'I' for Inactive)
REMARK    1  A    between atoms: C_2  and  C_4
REMARK    2  A    between atoms: C_7  and  O_8
REMARK    3  A    between atoms: O_8  and  C_9
REMARK    4  A    between atoms: C_9  and  C_10
REMARK    5  A    between atoms: C_10  and  C_11
REMARK    6  A    between atoms: C_15  and  C_16
REMARK                            x       y       z     vdW  Elec       q    Type
REMARK                         _______ _______ _______ _____ _____    ______ ____
ROOT
ATOM      1  C   UNL     1      49.552   7.365  13.200  0.00  0.00    +0.000 C 
ENDROOT
BRANCH   1   2
ATOM      2  O   UNL     1      48.756   7.672  14.344  0.00  0.00    +0.000 OA
BRANCH   2   6
ATOM      3  C   UNL     1      47.941   4.476  16.900  0.00  0.00    +0.000 A 
ATOM      4  C   UNL     1      48.868   5.440  17.312  0.00  0.00    +0.000 A 
ATOM      5  C   UNL     1      49.170   6.523  16.482  0.00  0.00    +0.000 A 
ATOM      6  C   UNL     1      48.554   6.652  15.235  0.00  0.00    +0.000 A 
ATOM      7  C   UNL     1      47.645   5.676  14.818  0.00  0.00    +0.000 A 
ATOM      8  C   UNL     1      47.342   4.588  15.642  0.00  0.00    +0.000 A 
BRANCH   3  10
ATOM      9  N   UNL     1      48.386   3.082  18.846  0.00  0.00    +0.000 N 
ATOM     10  C   UNL     1      47.588   3.318  17.762  0.00  0.00    +0.000 C 
ATOM     11  O   UNL     1      46.599   2.630  17.542  0.00  0.00    +0.000 OA
ATOM     12  H   UNL     1      48.069   2.364  19.484  0.00  0.00    +0.000 HD
ATOM     13  H   UNL     1      49.034   3.771  19.198  0.00  0.00    +0.000 HD
ENDBRANCH   3  10
ENDBRANCH   2   6
ENDBRANCH   1   2
BRANCH   1  14
ATOM     14  C   UNL     1      48.949   8.050  11.973  0.00  0.00    +0.000 C 
BRANCH  14  15
ATOM     15  C   UNL     1      47.470   7.777  11.889  0.00  0.00    +0.000 A 
ATOM     16  C   UNL     1      46.535   8.759  12.229  0.00  0.00    +0.000 A 
ATOM     17  C   UNL     1      45.175   8.512  12.064  0.00  0.00    +0.000 A 
ATOM     18  C   UNL     1      44.741   7.295  11.529  0.00  0.00    +0.000 A 
ATOM     19  C   UNL     1      45.653   6.304  11.126  0.00  0.00    +0.000 A 
ATOM     20  C   UNL     1      47.018   6.561  11.354  0.00  0.00    +0.000 A 
BRANCH  19  21
ATOM     21  C   UNL     1      45.228   5.095  10.379  0.00  0.00    +0.000 A 
ATOM     22  C   UNL     1      45.578   4.927   9.027  0.00  0.00    +0.000 A 
ATOM     23  C   UNL     1      45.320   3.734   8.348  0.00  0.00    +0.000 A 
ATOM     24  C   UNL     1      44.705   2.677   9.008  0.00  0.00    +0.000 A 
ATOM     25  C   UNL     1      44.316   2.826  10.335  0.00  0.00    +0.000 A 
ATOM     26  C   UNL     1      44.561   4.027  11.009  0.00  0.00    +0.000 A 
ENDBRANCH  19  21
ENDBRANCH  14  15
ENDBRANCH   1  14
TORSDOF 6
ENDMDL
MODEL 9
REMARK VINA RESULT:    -6.558      4.781      7.445
REMARK INTER + INTRA:          -9.939
REMARK INTER:                  -8.973
REMARK INTRA:                  -0.966
REMARK UNBOUND:                -1.080
REMARK  Name = 
REMARK  6 active torsions:
REMARK  status: ('A' for Active; 'I' for Inactive)
REMARK    1  A    between atoms: C_2  and  C_4
REMARK    2  A    between atoms: C_7  and  O_8
REMARK    3  A    between atoms: O_8  and  C_9
REMARK    4  A    between atoms: C_9  and  C_10
REMARK    5  A    between atoms: C_10  and  C_11
REMARK    6  A    between atoms: C_15  and  C_16
REMARK                            x       y       z     vdW  Elec       q    Type
REMARK                         _______ _______ _______ _____ _____    ______ ____
ROOT
ATOM      1  C   UNL     1      48.439   6.432  14.297  0.00  0.00    +0.000 C 
ENDROOT
BRANCH   1   2
ATOM      2  O   UNL     1      47.302   7.136  13.799  0.00  0.00    +0.000 OA
BRANCH   2   6
ATOM      3  C   UNL     1      44.912   4.915  11.198  0.00  0.00    +0.000 A 
ATOM      4  C   UNL     1      45.545   6.062  10.706  0.00  0.00    +0.000 A 
ATOM      5  C   UNL     1      46.352   6.833  11.547  0.00  0.00    +0.000 A 
ATOM      6  C   UNL     1      46.528   6.471  12.885  0.00  0.00    +0.000 A 
ATOM      7  C   UNL     1      45.877   5.338  13.377  0.00  0.00    +0.000 A 
ATOM      8  C   UNL     1      45.066   4.564  12.542  0.00  0.00    +0.000 A 
BRANCH   3  10
ATOM      9  N   UNL     1      44.029   4.367   8.996  0.00  0.00    +0.000 N 
ATOM     10  C   UNL     1      44.058   4.064  10.328  0.00  0.00    +0.000 C 
ATOM     11  O   UNL     1      43.441   3.105  10.772  0.00  0.00    +0.000 OA
ATOM     12  H   UNL     1      43.537   3.714   8.401  0.00  0.00    +0.000 HD
ATOM     13  H   UNL     1      44.716   4.969   8.565  0.00  0.00    +0.000 HD
ENDBRANCH   3  10
ENDBRANCH   2   6
ENDBRANCH   1   2
BRANCH   1  14
ATOM     14  C   UNL     1      48.532   6.638  15.808  0.00  0.00    +0.000 C 
BRANCH  14  15
ATOM     15  C   UNL     1      48.525   5.312  16.524  0.00  0.00    +0.000 A 
ATOM     16  C   UNL     1      47.347   4.575  16.664  0.00  0.00    +0.000 A 
ATOM     17  C   UNL     1      47.381   3.315  17.255  0.00  0.00    +0.000 A 
ATOM     18  C   UNL     1      48.597   2.770  17.681  0.00  0.00    +0.000 A 
ATOM     19  C   UNL     1      49.810   3.460  17.509  0.00  0.00    +0.000 A 
ATOM     20  C   UNL     1      49.737   4.752  16.957  0.00  0.00    +0.000 A 
BRANCH  19  21
ATOM     21  C   UNL     1      51.124   2.824  17.770  0.00  0.00    +0.000 A 
ATOM     22  C   UNL     1      51.357   1.484  17.412  0.00  0.00    +0.000 A 
ATOM     23  C   UNL     1      52.627   0.911  17.508  0.00  0.00    +0.000 A 
ATOM     24  C   UNL     1      53.698   1.668  17.968  0.00  0.00    +0.000 A 
ATOM     25  C   UNL     1      53.492   2.986  18.362  0.00  0.00    +0.000 A 
ATOM     26  C   UNL     1      52.216   3.553  18.279  0.00  0.00    +0.000 A 
ENDBRANCH  19  21
ENDBRANCH  14  15
ENDBRANCH   1  14
TORSDOF 6
ENDMDL
