MODEL 1
REMARK VINA RESULT:    -8.435      0.000      0.000
REMARK INTER + INTRA:         -12.688
REMARK INTER:                 -11.394
REMARK INTRA:                  -1.294
REMARK UNBOUND:                -1.294
REMARK  Name = 
REMARK  7 active torsions:
REMARK  status: ('A' for Active; 'I' for Inactive)
REMARK    1  A    between atoms: C_1  and  C_2
REMARK    2  A    between atoms: C_5  and  C_6
REMARK    3  A    between atoms: C_6  and  N_7
REMARK    4  A    between atoms: N_7  and  C_8
REMARK    5  A    between atoms: C_11  and  C_12
REMARK    6  A    between atoms: C_12  and  N_13
REMARK    7  A    between atoms: C_14  and  C_16
REMARK                            x       y       z     vdW  Elec       q    Type
REMARK                         _______ _______ _______ _____ _____    ______ ____
ROOT
ATOM      1  C   UNL     1      45.032   5.382  11.081  0.00  0.00    +0.000 C 
ATOM      2  C   UNL     1      44.227   6.407  11.896  0.00  0.00    +0.000 C 
ATOM      3  C   UNL     1      45.093   7.170  12.897  0.00  0.00    +0.000 C 
ATOM      4  C   UNL     1      46.298   7.844  12.221  0.00  0.00    +0.000 C 
ATOM      5  C   UNL     1      47.100   6.810  11.422  0.00  0.00    +0.000 C 
ATOM      6  C   UNL     1      46.234   6.066  10.410  0.00  0.00    +0.000 C 
ENDROOT
BRANCH   1   7
ATOM      7  N   UNL     1      44.108   4.762  10.121  0.00  0.00    +0.000 NA
ATOM      8  H   UNL     1      43.149   4.939  10.417  0.00  0.00    +0.000 HD
BRANCH   7   9
ATOM      9  C   UNL     1      44.283   3.317   9.984  0.00  0.00    +0.000 C 
BRANCH   9  14
ATOM     10  C   UNL     1      47.783   1.751   5.588  0.00  0.00    +0.000 C 
ATOM     11  C   UNL     1      46.880   2.177   6.705  0.00  0.00    +0.000 A 
ATOM     12  C   UNL     1      46.360   3.475   6.765  0.00  0.00    +0.000 A 
ATOM     13  C   UNL     1      45.518   3.852   7.809  0.00  0.00    +0.000 A 
ATOM     14  C   UNL     1      45.154   2.936   8.809  0.00  0.00    +0.000 A 
ATOM     15  C   UNL     1      45.700   1.645   8.756  0.00  0.00    +0.000 A 
ATOM     16  C   UNL     1      46.550   1.268   7.717  0.00  0.00    +0.000 A 
ENDBRANCH   9  14
ENDBRANCH   7   9
ENDBRANCH   1   7
BRANCH   4  17
ATOM     17  C   UNL     1      47.229   8.529  13.237  0.00  0.00    +0.000 C 
BRANCH  17  18
ATOM     18  N   UNL     1      47.473   7.730  14.416  0.00  0.00    +0.000 N 
ATOM     19  C   UNL     1      48.720   7.233  14.707  0.00  0.00    +0.000 C 
ATOM     20  O   UNL     1      49.691   7.448  13.986  0.00  0.00    +0.000 OA
ATOM     21  H   UNL     1      46.669   7.406  14.947  0.00  0.00    +0.000 HD
BRANCH  19  22
ATOM     22  C   UNL     1      48.856   6.473  15.952  0.00  0.00    +0.000 A 
ATOM     23  C   UNL     1      49.719   6.936  16.935  0.00  0.00    +0.000 A 
ATOM     24  S   UNL     1      49.784   5.937  18.314  0.00  0.00    +0.000 S 
ATOM     25  C   UNL     1      48.685   4.832  17.630  0.00  0.00    +0.000 A 
ATOM     26  N   UNL     1      48.335   3.697  18.292  0.00  0.00    +0.000 NA
ATOM     27  C   UNL     1      47.518   2.935  17.647  0.00  0.00    +0.000 A 
ATOM     28  N   UNL     1      47.005   3.212  16.406  0.00  0.00    +0.000 N 
ATOM     29  C   UNL     1      47.292   4.370  15.720  0.00  0.00    +0.000 A 
ATOM     30  O   UNL     1      46.745   4.632  14.653  0.00  0.00    +0.000 OA
ATOM     31  C   UNL     1      48.243   5.240  16.383  0.00  0.00    +0.000 A 
ATOM     32  H   UNL     1      46.347   2.584  15.969  0.00  0.00    +0.000 HD
ENDBRANCH  19  22
ENDBRANCH  17  18
ENDBRANCH   4  17
TORSDOF 6
ENDMDL
MODEL 2
REMARK VINA RESULT:    -8.005      1.704      2.251
REMARK INTER + INTRA:         -12.106
REMARK INTER:                 -11.056
REMARK INTRA:                  -1.050
REMARK UNBOUND:                -1.294
REMARK  Name = 
REMARK  7 active torsions:
REMARK  status: ('A' for Active; 'I' for Inactive)
REMARK    1  A    between atoms: C_1  and  C_2
REMARK    2  A    between atoms: C_5  and  C_6
REMARK    3  A    between atoms: C_6  and  N_7
REMARK    4  A    between atoms: N_7  and  C_8
REMARK    5  A    between atoms: C_11  and  C_12
REMARK    6  A    between atoms: C_12  and  N_13
REMARK    7  A    between atoms: C_14  and  C_16
REMARK                            x       y       z     vdW  Elec       q    Type
REMARK                         _______ _______ _______ _____ _____    ______ ____
ROOT
ATOM      1  C   UNL     1      44.637   5.077  12.421  0.00  0.00    +0.000 C 
ATOM      2  C   UNL     1      45.012   6.325  11.605  0.00  0.00    +0.000 C 
ATOM      3  C   UNL     1      46.037   7.205  12.318  0.00  0.00    +0.000 C 
ATOM      4  C   UNL     1      47.298   6.418  12.712  0.00  0.00    +0.000 C 
ATOM      5  C   UNL     1      46.913   5.184  13.535  0.00  0.00    +0.000 C 
ATOM      6  C   UNL     1      45.905   4.299  12.809  0.00  0.00    +0.000 C 
ENDROOT
BRANCH   1   7
ATOM      7  N   UNL     1      43.699   4.289  11.610  0.00  0.00    +0.000 NA
ATOM      8  H   UNL     1      43.928   3.300  11.697  0.00  0.00    +0.000 HD
BRANCH   7   9
ATOM      9  C   UNL     1      43.714   4.636  10.189  0.00  0.00    +0.000 C 
BRANCH   9  14
ATOM     10  C   UNL     1      47.390   1.504   6.916  0.00  0.00    +0.000 C 
ATOM     11  C   UNL     1      46.438   2.286   7.770  0.00  0.00    +0.000 A 
ATOM     12  C   UNL     1      45.563   1.647   8.655  0.00  0.00    +0.000 A 
ATOM     13  C   UNL     1      44.688   2.391   9.444  0.00  0.00    +0.000 A 
ATOM     14  C   UNL     1      44.679   3.793   9.387  0.00  0.00    +0.000 A 
ATOM     15  C   UNL     1      45.541   4.425   8.479  0.00  0.00    +0.000 A 
ATOM     16  C   UNL     1      46.412   3.683   7.681  0.00  0.00    +0.000 A 
ENDBRANCH   9  14
ENDBRANCH   7   9
ENDBRANCH   1   7
BRANCH   4  17
ATOM     17  C   UNL     1      48.290   7.274  13.518  0.00  0.00    +0.000 C 
BRANCH  17  18
ATOM     18  N   UNL     1      48.073   7.209  14.945  0.00  0.00    +0.000 N 
ATOM     19  C   UNL     1      49.084   6.885  15.817  0.00  0.00    +0.000 C 
ATOM     20  O   UNL     1      50.225   6.644  15.429  0.00  0.00    +0.000 OA
ATOM     21  H   UNL     1      47.115   7.249  15.283  0.00  0.00    +0.000 HD
BRANCH  19  22
ATOM     22  C   UNL     1      48.755   6.892  17.244  0.00  0.00    +0.000 A 
ATOM     23  C   UNL     1      48.374   8.085  17.844  0.00  0.00    +0.000 A 
ATOM     24  S   UNL     1      48.042   7.938  19.508  0.00  0.00    +0.000 S 
ATOM     25  C   UNL     1      48.429   6.281  19.493  0.00  0.00    +0.000 A 
ATOM     26  N   UNL     1      48.393   5.546  20.636  0.00  0.00    +0.000 NA
ATOM     27  C   UNL     1      48.738   4.312  20.488  0.00  0.00    +0.000 A 
ATOM     28  N   UNL     1      49.101   3.740  19.295  0.00  0.00    +0.000 N 
ATOM     29  C   UNL     1      49.105   4.431  18.106  0.00  0.00    +0.000 A 
ATOM     30  O   UNL     1      49.344   3.868  17.041  0.00  0.00    +0.000 OA
ATOM     31  C   UNL     1      48.768   5.836  18.226  0.00  0.00    +0.000 A 
ATOM     32  H   UNL     1      49.332   2.759  19.245  0.00  0.00    +0.000 HD
ENDBRANCH  19  22
ENDBRANCH  17  18
ENDBRANCH   4  17
TORSDOF 6
ENDMDL
MODEL 3
REMARK VINA RESULT:    -7.835      2.229      2.915
REMARK INTER + INTRA:         -11.878
REMARK INTER:                 -10.707
REMARK INTRA:                  -1.171
REMARK UNBOUND:                -1.294
REMARK  Name = 
REMARK  7 active torsions:
REMARK  status: ('A' for Active; 'I' for Inactive)
REMARK    1  A    between atoms: C_1  and  C_2
REMARK    2  A    between atoms: C_5  and  C_6
REMARK    3  A    between atoms: C_6  and  N_7
REMARK    4  A    between atoms: N_7  and  C_8
REMARK    5  A    between atoms: C_11  and  C_12
REMARK    6  A    between atoms: C_12  and  N_13
REMARK    7  A    between atoms: C_14  and  C_16
REMARK                            x       y       z     vdW  Elec       q    Type
REMARK                         _______ _______ _______ _____ _____    ______ ____
ROOT
ATOM      1  C   UNL     1      44.696   4.589  12.503  0.00  0.00    +0.000 C 
ATOM      2  C   UNL     1      44.972   5.938  11.820  0.00  0.00    +0.000 C 
ATOM      3  C   UNL     1      45.896   6.834  12.644  0.00  0.00    +0.000 C 
ATOM      4  C   UNL     1      47.214   6.129  13.001  0.00  0.00    +0.000 C 
ATOM      5  C   UNL     1      46.926   4.792  13.693  0.00  0.00    +0.000 C 
ATOM      6  C   UNL     1      46.021   3.894  12.856  0.00  0.00    +0.000 C 
ENDROOT
BRANCH   1   7
ATOM      7  N   UNL     1      43.853   3.802  11.593  0.00  0.00    +0.000 NA
ATOM      8  H   UNL     1      44.185   2.838  11.576  0.00  0.00    +0.000 HD
BRANCH   7   9
ATOM      9  C   UNL     1      43.844   4.302  10.218  0.00  0.00    +0.000 C 
BRANCH   9  14
ATOM     10  C   UNL     1      47.558   1.644   6.589  0.00  0.00    +0.000 C 
ATOM     11  C   UNL     1      46.599   2.303   7.533  0.00  0.00    +0.000 A 
ATOM     12  C   UNL     1      45.835   1.553   8.434  0.00  0.00    +0.000 A 
ATOM     13  C   UNL     1      44.951   2.184   9.308  0.00  0.00    +0.000 A 
ATOM     14  C   UNL     1      44.824   3.581   9.321  0.00  0.00    +0.000 A 
ATOM     15  C   UNL     1      45.574   4.324   8.398  0.00  0.00    +0.000 A 
ATOM     16  C   UNL     1      46.453   3.695   7.516  0.00  0.00    +0.000 A 
ENDBRANCH   9  14
ENDBRANCH   7   9
ENDBRANCH   1   7
BRANCH   4  17
ATOM     17  C   UNL     1      48.105   6.989  13.916  0.00  0.00    +0.000 C 
BRANCH  17  18
ATOM     18  N   UNL     1      47.995   6.639  15.313  0.00  0.00    +0.000 N 
ATOM     19  C   UNL     1      49.103   6.372  16.080  0.00  0.00    +0.000 C 
ATOM     20  O   UNL     1      50.242   6.425  15.621  0.00  0.00    +0.000 OA
ATOM     21  H   UNL     1      47.071   6.435  15.682  0.00  0.00    +0.000 HD
BRANCH  19  22
ATOM     22  C   UNL     1      48.871   6.070  17.495  0.00  0.00    +0.000 A 
ATOM     23  C   UNL     1      49.158   4.798  17.970  0.00  0.00    +0.000 A 
ATOM     24  S   UNL     1      48.818   4.593  19.627  0.00  0.00    +0.000 S 
ATOM     25  C   UNL     1      48.243   6.189  19.760  0.00  0.00    +0.000 A 
ATOM     26  N   UNL     1      47.747   6.656  20.936  0.00  0.00    +0.000 NA
ATOM     27  C   UNL     1      47.318   7.872  20.890  0.00  0.00    +0.000 A 
ATOM     28  N   UNL     1      47.355   8.671  19.776  0.00  0.00    +0.000 N 
ATOM     29  C   UNL     1      47.892   8.259  18.578  0.00  0.00    +0.000 A 
ATOM     30  O   UNL     1      47.995   9.027  17.626  0.00  0.00    +0.000 OA
ATOM     31  C   UNL     1      48.346   6.883  18.565  0.00  0.00    +0.000 A 
ATOM     32  H   UNL     1      47.028   9.625  19.816  0.00  0.00    +0.000 HD
ENDBRANCH  19  22
ENDBRANCH  17  18
ENDBRANCH   4  17
TORSDOF 6
ENDMDL
MODEL 4
REMARK VINA RESULT:    -7.564      2.102      3.477
REMARK INTER + INTRA:         -11.511
REMARK INTER:                 -10.794
REMARK INTRA:                  -0.717
REMARK UNBOUND:                -1.294
REMARK  Name = 
REMARK  7 active torsions:
REMARK  status: ('A' for Active; 'I' for Inactive)
REMARK    1  A    between atoms: C_1  and  C_2
REMARK    2  A    between atoms: C_5  and  C_6
REMARK    3  A    between atoms: C_6  and  N_7
REMARK    4  A    between atoms: N_7  and  C_8
REMARK    5  A    between atoms: C_11  and  C_12
REMARK    6  A    between atoms: C_12  and  N_13
REMARK    7  A    between atoms: C_14  and  C_16
REMARK                            x       y       z     vdW  Elec       q    Type
REMARK                         _______ _______ _______ _____ _____    ______ ____
ROOT
ATOM      1  C   UNL     1      45.727   3.997   8.904  0.00  0.00    +0.000 C 
ATOM      2  C   UNL     1      44.580   3.037   9.259  0.00  0.00    +0.000 C 
ATOM      3  C   UNL     1      44.336   2.946  10.765  0.00  0.00    +0.000 C 
ATOM      4  C   UNL     1      44.099   4.328  11.395  0.00  0.00    +0.000 C 
ATOM      5  C   UNL     1      45.255   5.272  11.044  0.00  0.00    +0.000 C 
ATOM      6  C   UNL     1      45.479   5.374   9.539  0.00  0.00    +0.000 C 
ENDROOT
BRANCH   1   7
ATOM      7  N   UNL     1      45.821   4.043   7.438  0.00  0.00    +0.000 NA
ATOM      8  H   UNL     1      45.129   3.412   7.037  0.00  0.00    +0.000 HD
BRANCH   7   9
ATOM      9  C   UNL     1      47.135   3.665   6.920  0.00  0.00    +0.000 C 
BRANCH   9  14
ATOM     10  C   UNL     1      46.872  -1.238   3.769  0.00  0.00    +0.000 C 
ATOM     11  C   UNL     1      46.944   0.007   4.600  0.00  0.00    +0.000 A 
ATOM     12  C   UNL     1      47.063  -0.056   5.993  0.00  0.00    +0.000 A 
ATOM     13  C   UNL     1      47.134   1.112   6.750  0.00  0.00    +0.000 A 
ATOM     14  C   UNL     1      47.110   2.373   6.134  0.00  0.00    +0.000 A 
ATOM     15  C   UNL     1      46.964   2.428   4.740  0.00  0.00    +0.000 A 
ATOM     16  C   UNL     1      46.885   1.261   3.981  0.00  0.00    +0.000 A 
ENDBRANCH   9  14
ENDBRANCH   7   9
ENDBRANCH   1   7
BRANCH   4  17
ATOM     17  C   UNL     1      43.955   4.253  12.925  0.00  0.00    +0.000 C 
BRANCH  17  18
ATOM     18  N   UNL     1      45.005   4.948  13.633  0.00  0.00    +0.000 N 
ATOM     19  C   UNL     1      46.189   4.331  13.956  0.00  0.00    +0.000 C 
ATOM     20  O   UNL     1      46.419   3.163  13.653  0.00  0.00    +0.000 OA
ATOM     21  H   UNL     1      44.789   5.857  14.032  0.00  0.00    +0.000 HD
BRANCH  19  22
ATOM     22  C   UNL     1      47.196   5.149  14.637  0.00  0.00    +0.000 A 
ATOM     23  C   UNL     1      47.789   6.200  13.952  0.00  0.00    +0.000 A 
ATOM     24  S   UNL     1      48.952   7.045  14.867  0.00  0.00    +0.000 S 
ATOM     25  C   UNL     1      48.729   6.012  16.201  0.00  0.00    +0.000 A 
ATOM     26  N   UNL     1      49.469   6.163  17.331  0.00  0.00    +0.000 NA
ATOM     27  C   UNL     1      49.219   5.295  18.252  0.00  0.00    +0.000 A 
ATOM     28  N   UNL     1      48.283   4.298  18.153  0.00  0.00    +0.000 N 
ATOM     29  C   UNL     1      47.477   4.137  17.049  0.00  0.00    +0.000 A 
ATOM     30  O   UNL     1      46.585   3.294  17.028  0.00  0.00    +0.000 OA
ATOM     31  C   UNL     1      47.751   5.060  15.966  0.00  0.00    +0.000 A 
ATOM     32  H   UNL     1      48.118   3.669  18.925  0.00  0.00    +0.000 HD
ENDBRANCH  19  22
ENDBRANCH  17  18
ENDBRANCH   4  17
TORSDOF 6
ENDMDL
MODEL 5
REMARK VINA RESULT:    -6.940      3.796      9.913
REMARK INTER + INTRA:         -10.669
REMARK INTER:                  -9.659
REMARK INTRA:                  -1.010
REMARK UNBOUND:                -1.294
REMARK  Name = 
REMARK  7 active torsions:
REMARK  status: ('A' for Active; 'I' for Inactive)
REMARK    1  A    between atoms: C_1  and  C_2
REMARK    2  A    between atoms: C_5  and  C_6
REMARK    3  A    between atoms: C_6  and  N_7
REMARK    4  A    between atoms: N_7  and  C_8
REMARK    5  A    between atoms: C_11  and  C_12
REMARK    6  A    between atoms: C_12  and  N_13
REMARK    7  A    between atoms: C_14  and  C_16
REMARK                            x       y       z     vdW  Elec       q    Type
REMARK                         _______ _______ _______ _____ _____    ______ ____
ROOT
ATOM      1  C   UNL     1      49.150   6.876  18.968  0.00  0.00    +0.000 C 
ATOM      2  C   UNL     1      47.969   6.049  19.502  0.00  0.00    +0.000 C 
ATOM      3  C   UNL     1      47.265   5.255  18.402  0.00  0.00    +0.000 C 
ATOM      4  C   UNL     1      48.242   4.360  17.622  0.00  0.00    +0.000 C 
ATOM      5  C   UNL     1      49.408   5.197  17.085  0.00  0.00    +0.000 C 
ATOM      6  C   UNL     1      50.119   5.971  18.190  0.00  0.00    +0.000 C 
ENDROOT
BRANCH   1   7
ATOM      7  N   UNL     1      49.776   7.540  20.120  0.00  0.00    +0.000 NA
ATOM      8  H   UNL     1      49.315   7.232  20.976  0.00  0.00    +0.000 HD
BRANCH   7   9
ATOM      9  C   UNL     1      49.706   9.000  20.067  0.00  0.00    +0.000 C 
BRANCH   9  14
ATOM     10  C   UNL     1      44.420  11.264  21.050  0.00  0.00    +0.000 C 
ATOM     11  C   UNL     1      45.775  10.666  20.818  0.00  0.00    +0.000 A 
ATOM     12  C   UNL     1      46.331   9.754  21.723  0.00  0.00    +0.000 A 
ATOM     13  C   UNL     1      47.590   9.205  21.489  0.00  0.00    +0.000 A 
ATOM     14  C   UNL     1      48.318   9.534  20.335  0.00  0.00    +0.000 A 
ATOM     15  C   UNL     1      47.765  10.468  19.447  0.00  0.00    +0.000 A 
ATOM     16  C   UNL     1      46.509  11.026  19.682  0.00  0.00    +0.000 A 
ENDBRANCH   9  14
ENDBRANCH   7   9
ENDBRANCH   1   7
BRANCH   4  17
ATOM     17  C   UNL     1      47.558   3.635  16.450  0.00  0.00    +0.000 C 
BRANCH  17  18
ATOM     18  N   UNL     1      46.850   4.527  15.561  0.00  0.00    +0.000 N 
ATOM     19  C   UNL     1      46.884   4.367  14.197  0.00  0.00    +0.000 C 
ATOM     20  O   UNL     1      47.510   3.454  13.665  0.00  0.00    +0.000 OA
ATOM     21  H   UNL     1      46.454   5.377  15.955  0.00  0.00    +0.000 HD
BRANCH  19  22
ATOM     22  C   UNL     1      46.093   5.307  13.401  0.00  0.00    +0.000 A 
ATOM     23  C   UNL     1      46.541   6.613  13.255  0.00  0.00    +0.000 A 
ATOM     24  S   UNL     1      45.506   7.592  12.319  0.00  0.00    +0.000 S 
ATOM     25  C   UNL     1      44.405   6.312  12.104  0.00  0.00    +0.000 A 
ATOM     26  N   UNL     1      43.248   6.497  11.415  0.00  0.00    +0.000 NA
ATOM     27  C   UNL     1      42.491   5.453  11.353  0.00  0.00    +0.000 A 
ATOM     28  N   UNL     1      42.795   4.235  11.905  0.00  0.00    +0.000 N 
ATOM     29  C   UNL     1      43.975   3.987  12.568  0.00  0.00    +0.000 A 
ATOM     30  O   UNL     1      44.258   2.862  12.969  0.00  0.00    +0.000 OA
ATOM     31  C   UNL     1      44.840   5.142  12.704  0.00  0.00    +0.000 A 
ATOM     32  H   UNL     1      42.169   3.450  11.794  0.00  0.00    +0.000 HD
ENDBRANCH  19  22
ENDBRANCH  17  18
ENDBRANCH   4  17
TORSDOF 6
ENDMDL
MODEL 6
REMARK VINA RESULT:    -6.857      3.096      8.087
REMARK INTER + INTRA:         -10.557
REMARK INTER:                  -9.358
REMARK INTRA:                  -1.199
REMARK UNBOUND:                -1.294
REMARK  Name = 
REMARK  7 active torsions:
REMARK  status: ('A' for Active; 'I' for Inactive)
REMARK    1  A    between atoms: C_1  and  C_2
REMARK    2  A    between atoms: C_5  and  C_6
REMARK    3  A    between atoms: C_6  and  N_7
REMARK    4  A    between atoms: N_7  and  C_8
REMARK    5  A    between atoms: C_11  and  C_12
REMARK    6  A    between atoms: C_12  and  N_13
REMARK    7  A    between atoms: C_14  and  C_16
REMARK                            x       y       z     vdW  Elec       q    Type
REMARK                         _______ _______ _______ _____ _____    ______ ____
ROOT
ATOM      1  C   UNL     1      48.902   7.779  15.902  0.00  0.00    +0.000 C 
ATOM      2  C   UNL     1      49.882   7.211  14.862  0.00  0.00    +0.000 C 
ATOM      3  C   UNL     1      49.231   7.003  13.496  0.00  0.00    +0.000 C 
ATOM      4  C   UNL     1      48.570   8.288  12.971  0.00  0.00    +0.000 C 
ATOM      5  C   UNL     1      47.587   8.838  14.010  0.00  0.00    +0.000 C 
ATOM      6  C   UNL     1      48.248   9.062  15.366  0.00  0.00    +0.000 C 
ENDROOT
BRANCH   1   7
ATOM      7  N   UNL     1      49.656   7.989  17.145  0.00  0.00    +0.000 NA
ATOM      8  H   UNL     1      50.654   7.908  16.951  0.00  0.00    +0.000 HD
BRANCH   7   9
ATOM      9  C   UNL     1      49.321   7.039  18.205  0.00  0.00    +0.000 C 
BRANCH   9  14
ATOM     10  C   UNL     1      51.151   1.576  17.285  0.00  0.00    +0.000 C 
ATOM     11  C   UNL     1      50.706   2.988  17.520  0.00  0.00    +0.000 A 
ATOM     12  C   UNL     1      51.633   4.018  17.715  0.00  0.00    +0.000 A 
ATOM     13  C   UNL     1      51.201   5.326  17.928  0.00  0.00    +0.000 A 
ATOM     14  C   UNL     1      49.834   5.643  17.930  0.00  0.00    +0.000 A 
ATOM     15  C   UNL     1      48.911   4.601  17.760  0.00  0.00    +0.000 A 
ATOM     16  C   UNL     1      49.340   3.290  17.555  0.00  0.00    +0.000 A 
ENDBRANCH   9  14
ENDBRANCH   7   9
ENDBRANCH   1   7
BRANCH   4  17
ATOM     17  C   UNL     1      47.826   8.059  11.643  0.00  0.00    +0.000 C 
BRANCH  17  18
ATOM     18  N   UNL     1      47.042   6.846  11.629  0.00  0.00    +0.000 N 
ATOM     19  C   UNL     1      45.669   6.872  11.615  0.00  0.00    +0.000 C 
ATOM     20  O   UNL     1      45.038   7.926  11.605  0.00  0.00    +0.000 OA
ATOM     21  H   UNL     1      47.524   5.966  11.792  0.00  0.00    +0.000 HD
BRANCH  19  22
ATOM     22  C   UNL     1      44.983   5.579  11.558  0.00  0.00    +0.000 A 
ATOM     23  C   UNL     1      44.260   5.148  12.661  0.00  0.00    +0.000 A 
ATOM     24  S   UNL     1      43.536   3.620  12.453  0.00  0.00    +0.000 S 
ATOM     25  C   UNL     1      44.194   3.464  10.891  0.00  0.00    +0.000 A 
ATOM     26  N   UNL     1      43.989   2.338  10.157  0.00  0.00    +0.000 NA
ATOM     27  C   UNL     1      44.568   2.340   9.004  0.00  0.00    +0.000 A 
ATOM     28  N   UNL     1      45.322   3.374   8.510  0.00  0.00    +0.000 N 
ATOM     29  C   UNL     1      45.516   4.551   9.195  0.00  0.00    +0.000 A 
ATOM     30  O   UNL     1      46.117   5.493   8.688  0.00  0.00    +0.000 OA
ATOM     31  C   UNL     1      44.923   4.581  10.517  0.00  0.00    +0.000 A 
ATOM     32  H   UNL     1      45.724   3.321   7.586  0.00  0.00    +0.000 HD
ENDBRANCH  19  22
ENDBRANCH  17  18
ENDBRANCH   4  17
TORSDOF 6
ENDMDL
MODEL 7
REMARK VINA RESULT:    -6.513      3.404      7.972
REMARK INTER + INTRA:         -10.092
REMARK INTER:                  -8.885
REMARK INTRA:                  -1.207
REMARK UNBOUND:                -1.294
REMARK  Name = 
REMARK  7 active torsions:
REMARK  status: ('A' for Active; 'I' for Inactive)
REMARK    1  A    between atoms: C_1  and  C_2
REMARK    2  A    between atoms: C_5  and  C_6
REMARK    3  A    between atoms: C_6  and  N_7
REMARK    4  A    between atoms: N_7  and  C_8
REMARK    5  A    between atoms: C_11  and  C_12
REMARK    6  A    between atoms: C_12  and  N_13
REMARK    7  A    between atoms: C_14  and  C_16
REMARK                            x       y       z     vdW  Elec       q    Type
REMARK                         _______ _______ _______ _____ _____    ______ ____
ROOT
ATOM      1  C   UNL     1      50.093   8.470  16.333  0.00  0.00    +0.000 C 
ATOM      2  C   UNL     1      48.561   8.525  16.208  0.00  0.00    +0.000 C 
ATOM      3  C   UNL     1      48.098   8.761  14.772  0.00  0.00    +0.000 C 
ATOM      4  C   UNL     1      48.683   7.724  13.800  0.00  0.00    +0.000 C 
ATOM      5  C   UNL     1      50.210   7.687  13.924  0.00  0.00    +0.000 C 
ATOM      6  C   UNL     1      50.665   7.431  15.356  0.00  0.00    +0.000 C 
ENDROOT
BRANCH   1   7
ATOM      7  N   UNL     1      50.408   8.180  17.738  0.00  0.00    +0.000 NA
ATOM      8  H   UNL     1      51.337   7.766  17.796  0.00  0.00    +0.000 HD
BRANCH   7   9
ATOM      9  C   UNL     1      49.463   7.265  18.377  0.00  0.00    +0.000 C 
BRANCH   9  14
ATOM     10  C   UNL     1      50.772   1.721  17.120  0.00  0.00    +0.000 C 
ATOM     11  C   UNL     1      50.410   3.140  17.437  0.00  0.00    +0.000 A 
ATOM     12  C   UNL     1      49.118   3.628  17.211  0.00  0.00    +0.000 A 
ATOM     13  C   UNL     1      48.799   4.949  17.516  0.00  0.00    +0.000 A 
ATOM     14  C   UNL     1      49.754   5.812  18.076  0.00  0.00    +0.000 A 
ATOM     15  C   UNL     1      51.053   5.323  18.276  0.00  0.00    +0.000 A 
ATOM     16  C   UNL     1      51.378   4.003  17.963  0.00  0.00    +0.000 A 
ENDBRANCH   9  14
ENDBRANCH   7   9
ENDBRANCH   1   7
BRANCH   4  17
ATOM     17  C   UNL     1      48.301   8.016  12.338  0.00  0.00    +0.000 C 
BRANCH  17  18
ATOM     18  N   UNL     1      47.619   6.917  11.694  0.00  0.00    +0.000 N 
ATOM     19  C   UNL     1      46.248   6.820  11.691  0.00  0.00    +0.000 C 
ATOM     20  O   UNL     1      45.534   7.664  12.227  0.00  0.00    +0.000 OA
ATOM     21  H   UNL     1      48.177   6.128  11.381  0.00  0.00    +0.000 HD
BRANCH  19  22
ATOM     22  C   UNL     1      45.668   5.684  10.971  0.00  0.00    +0.000 A 
ATOM     23  C   UNL     1      45.790   5.627   9.590  0.00  0.00    +0.000 A 
ATOM     24  S   UNL     1      45.049   4.260   8.893  0.00  0.00    +0.000 S 
ATOM     25  C   UNL     1      44.508   3.714  10.412  0.00  0.00    +0.000 A 
ATOM     26  N   UNL     1      43.755   2.588  10.520  0.00  0.00    +0.000 NA
ATOM     27  C   UNL     1      43.388   2.305  11.725  0.00  0.00    +0.000 A 
ATOM     28  N   UNL     1      43.721   3.038  12.835  0.00  0.00    +0.000 N 
ATOM     29  C   UNL     1      44.521   4.156  12.780  0.00  0.00    +0.000 A 
ATOM     30  O   UNL     1      44.878   4.737  13.801  0.00  0.00    +0.000 OA
ATOM     31  C   UNL     1      44.922   4.542  11.442  0.00  0.00    +0.000 A 
ATOM     32  H   UNL     1      43.424   2.744  13.754  0.00  0.00    +0.000 HD
ENDBRANCH  19  22
ENDBRANCH  17  18
ENDBRANCH   4  17
TORSDOF 6
ENDMDL
MODEL 8
REMARK VINA RESULT:    -6.481      3.733      5.371
REMARK INTER + INTRA:         -10.048
REMARK INTER:                  -8.974
REMARK INTRA:                  -1.074
REMARK UNBOUND:                -1.294
REMARK  Name = 
REMARK  7 active torsions:
REMARK  status: ('A' for Active; 'I' for Inactive)
REMARK    1  A    between atoms: C_1  and  C_2
REMARK    2  A    between atoms: C_5  and  C_6
REMARK    3  A    between atoms: C_6  and  N_7
REMARK    4  A    between atoms: N_7  and  C_8
REMARK    5  A    between atoms: C_11  and  C_12
REMARK    6  A    between atoms: C_12  and  N_13
REMARK    7  A    between atoms: C_14  and  C_16
REMARK                            x       y       z     vdW  Elec       q    Type
REMARK                         _______ _______ _______ _____ _____    ______ ____
ROOT
ATOM      1  C   UNL     1      45.487   5.210  11.552  0.00  0.00    +0.000 C 
ATOM      2  C   UNL     1      46.184   4.988  12.904  0.00  0.00    +0.000 C 
ATOM      3  C   UNL     1      47.170   6.105  13.245  0.00  0.00    +0.000 C 
ATOM      4  C   UNL     1      46.509   7.492  13.200  0.00  0.00    +0.000 C 
ATOM      5  C   UNL     1      45.828   7.706  11.844  0.00  0.00    +0.000 C 
ATOM      6  C   UNL     1      44.830   6.600  11.518  0.00  0.00    +0.000 C 
ENDROOT
BRANCH   1   7
ATOM      7  N   UNL     1      44.528   4.112  11.368  0.00  0.00    +0.000 NA
ATOM      8  H   UNL     1      44.973   3.231  11.625  0.00  0.00    +0.000 HD
BRANCH   7   9
ATOM      9  C   UNL     1      44.032   3.987   9.998  0.00  0.00    +0.000 C 
BRANCH   9  14
ATOM     10  C   UNL     1      47.885   1.829   6.186  0.00  0.00    +0.000 C 
ATOM     11  C   UNL     1      46.894   2.359   7.176  0.00  0.00    +0.000 A 
ATOM     12  C   UNL     1      46.252   1.512   8.086  0.00  0.00    +0.000 A 
ATOM     13  C   UNL     1      45.336   2.023   9.004  0.00  0.00    +0.000 A 
ATOM     14  C   UNL     1      45.054   3.397   9.052  0.00  0.00    +0.000 A 
ATOM     15  C   UNL     1      45.681   4.236   8.120  0.00  0.00    +0.000 A 
ATOM     16  C   UNL     1      46.592   3.726   7.195  0.00  0.00    +0.000 A 
ENDBRANCH   9  14
ENDBRANCH   7   9
ENDBRANCH   1   7
BRANCH   4  17
ATOM     17  C   UNL     1      47.519   8.627  13.443  0.00  0.00    +0.000 C 
BRANCH  17  18
ATOM     18  N   UNL     1      48.842   8.331  12.943  0.00  0.00    +0.000 N 
ATOM     19  C   UNL     1      49.392   9.031  11.896  0.00  0.00    +0.000 C 
ATOM     20  O   UNL     1      48.792   9.948  11.340  0.00  0.00    +0.000 OA
ATOM     21  H   UNL     1      49.298   7.486  13.274  0.00  0.00    +0.000 HD
BRANCH  19  22
ATOM     22  C   UNL     1      50.756   8.671  11.504  0.00  0.00    +0.000 A 
ATOM     23  C   UNL     1      50.955   7.562  10.694  0.00  0.00    +0.000 A 
ATOM     24  S   UNL     1      52.594   7.258  10.339  0.00  0.00    +0.000 S 
ATOM     25  C   UNL     1      53.098   8.579  11.286  0.00  0.00    +0.000 A 
ATOM     26  N   UNL     1      54.418   8.860  11.445  0.00  0.00    +0.000 NA
ATOM     27  C   UNL     1      54.661   9.869  12.211  0.00  0.00    +0.000 A 
ATOM     28  N   UNL     1      53.701  10.636  12.820  0.00  0.00    +0.000 N 
ATOM     29  C   UNL     1      52.353  10.421  12.649  0.00  0.00    +0.000 A 
ATOM     30  O   UNL     1      51.519  11.181  13.132  0.00  0.00    +0.000 OA
ATOM     31  C   UNL     1      52.028   9.268  11.833  0.00  0.00    +0.000 A 
ATOM     32  H   UNL     1      53.960  11.432  13.385  0.00  0.00    +0.000 HD
ENDBRANCH  19  22
ENDBRANCH  17  18
ENDBRANCH   4  17
TORSDOF 6
ENDMDL
MODEL 9
REMARK VINA RESULT:    -6.407      3.889      6.853
REMARK INTER + INTRA:          -9.949
REMARK INTER:                  -8.929
REMARK INTRA:                  -1.020
REMARK UNBOUND:                -1.294
REMARK  Name = 
REMARK  7 active torsions:
REMARK  status: ('A' for Active; 'I' for Inactive)
REMARK    1  A    between atoms: C_1  and  C_2
REMARK    2  A    between atoms: C_5  and  C_6
REMARK    3  A    between atoms: C_6  and  N_7
REMARK    4  A    between atoms: N_7  and  C_8
REMARK    5  A    between atoms: C_11  and  C_12
REMARK    6  A    between atoms: C_12  and  N_13
REMARK    7  A    between atoms: C_14  and  C_16
REMARK                            x       y       z     vdW  Elec       q    Type
REMARK                         _______ _______ _______ _____ _____    ______ ____
ROOT
ATOM      1  C   UNL     1      44.364   9.109  11.254  0.00  0.00    +0.000 C 
ATOM      2  C   UNL     1      43.508   7.833  11.195  0.00  0.00    +0.000 C 
ATOM      3  C   UNL     1      44.324   6.567  11.456  0.00  0.00    +0.000 C 
ATOM      4  C   UNL     1      45.093   6.642  12.785  0.00  0.00    +0.000 C 
ATOM      5  C   UNL     1      45.952   7.910  12.826  0.00  0.00    +0.000 C 
ATOM      6  C   UNL     1      45.129   9.171  12.585  0.00  0.00    +0.000 C 
ENDROOT
BRANCH   1   7
ATOM      7  N   UNL     1      43.463  10.251  11.049  0.00  0.00    +0.000 NA
ATOM      8  H   UNL     1      43.315  10.726  11.939  0.00  0.00    +0.000 HD
BRANCH   7   9
ATOM      9  C   UNL     1      42.155   9.879  10.510  0.00  0.00    +0.000 C 
BRANCH   9  14
ATOM     10  C   UNL     1      37.837  12.295  13.601  0.00  0.00    +0.000 C 
ATOM     11  C   UNL     1      38.928  11.661  12.793  0.00  0.00    +0.000 A 
ATOM     12  C   UNL     1      38.649  10.660  11.855  0.00  0.00    +0.000 A 
ATOM     13  C   UNL     1      39.676  10.085  11.109  0.00  0.00    +0.000 A 
ATOM     14  C   UNL     1      41.005  10.509  11.263  0.00  0.00    +0.000 A 
ATOM     15  C   UNL     1      41.280  11.494  12.223  0.00  0.00    +0.000 A 
ATOM     16  C   UNL     1      40.255  12.065  12.978  0.00  0.00    +0.000 A 
ENDBRANCH   9  14
ENDBRANCH   7   9
ENDBRANCH   1   7
BRANCH   4  17
ATOM     17  C   UNL     1      45.995   5.414  13.004  0.00  0.00    +0.000 C 
BRANCH  17  18
ATOM     18  N   UNL     1      46.591   5.370  14.320  0.00  0.00    +0.000 N 
ATOM     19  C   UNL     1      47.165   4.225  14.815  0.00  0.00    +0.000 C 
ATOM     20  O   UNL     1      47.210   3.184  14.164  0.00  0.00    +0.000 OA
ATOM     21  H   UNL     1      46.434   6.160  14.940  0.00  0.00    +0.000 HD
BRANCH  19  22
ATOM     22  C   UNL     1      47.775   4.313  16.144  0.00  0.00    +0.000 A 
ATOM     23  C   UNL     1      47.431   3.375  17.108  0.00  0.00    +0.000 A 
ATOM     24  S   UNL     1      48.205   3.618  18.607  0.00  0.00    +0.000 S 
ATOM     25  C   UNL     1      49.001   5.007  18.029  0.00  0.00    +0.000 A 
ATOM     26  N   UNL     1      49.808   5.738  18.843  0.00  0.00    +0.000 NA
ATOM     27  C   UNL     1      50.324   6.781  18.287  0.00  0.00    +0.000 A 
ATOM     28  N   UNL     1      50.120   7.152  16.982  0.00  0.00    +0.000 N 
ATOM     29  C   UNL     1      49.352   6.418  16.108  0.00  0.00    +0.000 A 
ATOM     30  O   UNL     1      49.265   6.725  14.922  0.00  0.00    +0.000 OA
ATOM     31  C   UNL     1      48.712   5.259  16.698  0.00  0.00    +0.000 A 
ATOM     32  H   UNL     1      50.579   7.967  16.601  0.00  0.00    +0.000 HD
ENDBRANCH  19  22
ENDBRANCH  17  18
ENDBRANCH   4  17
TORSDOF 6
ENDMDL
