MODEL 1
REMARK VINA RESULT:    -7.973      0.000      0.000
REMARK INTER + INTRA:         -12.106
REMARK INTER:                 -11.236
REMARK INTRA:                  -0.870
REMARK UNBOUND:                -0.870
REMARK  Name = 
REMARK  7 active torsions:
REMARK  status: ('A' for Active; 'I' for Inactive)
REMARK    1  A    between atoms: C_2  and  C_4
REMARK    2  A    between atoms: C_7  and  O_8
REMARK    3  A    between atoms: O_8  and  C_9
REMARK    4  A    between atoms: C_9  and  C_10
REMARK    5  A    between atoms: C_10  and  C_11
REMARK    6  A    between atoms: C_15  and  O_16
REMARK    7  A    between atoms: O_16  and  C_17
REMARK                            x       y       z     vdW  Elec       q    Type
REMARK                         _______ _______ _______ _____ _____    ______ ____
ROOT
ATOM      1  C   UNL     1      43.910   3.276  11.601  0.00  0.00    +0.000 C 
ENDROOT
BRANCH   1   2
ATOM      2  O   UNL     1      43.607   3.715  10.269  0.00  0.00    +0.000 OA
BRANCH   2   6
ATOM      3  C   UNL     1      46.471   2.389   7.612  0.00  0.00    +0.000 A 
ATOM      4  C   UNL     1      46.198   3.755   7.703  0.00  0.00    +0.000 A 
ATOM      5  C   UNL     1      45.222   4.200   8.600  0.00  0.00    +0.000 A 
ATOM      6  C   UNL     1      44.559   3.258   9.371  0.00  0.00    +0.000 A 
ATOM      7  N   UNL     1      44.798   1.930   9.286  0.00  0.00    +0.000 NA
ATOM      8  C   UNL     1      45.739   1.523   8.405  0.00  0.00    +0.000 A 
BRANCH   3  10
ATOM      9  N   UNL     1      48.566   2.595   6.406  0.00  0.00    +0.000 N 
ATOM     10  C   UNL     1      47.488   1.813   6.710  0.00  0.00    +0.000 C 
ATOM     11  O   UNL     1      47.399   0.664   6.293  0.00  0.00    +0.000 OA
ATOM     12  H   UNL     1      49.316   2.141   5.896  0.00  0.00    +0.000 HD
ATOM     13  H   UNL     1      48.801   3.421   6.939  0.00  0.00    +0.000 HD
ENDBRANCH   3  10
ENDBRANCH   2   6
ENDBRANCH   1   2
BRANCH   1  14
ATOM     14  C   UNL     1      43.904   4.446  12.586  0.00  0.00    +0.000 C 
BRANCH  14  15
ATOM     15  C   UNL     1      45.307   4.992  12.723  0.00  0.00    +0.000 A 
ATOM     16  C   UNL     1      45.803   5.923  11.805  0.00  0.00    +0.000 A 
ATOM     17  C   UNL     1      47.035   6.543  12.029  0.00  0.00    +0.000 A 
ATOM     18  C   UNL     1      47.790   6.235  13.166  0.00  0.00    +0.000 A 
ATOM     19  C   UNL     1      47.318   5.287  14.071  0.00  0.00    +0.000 A 
ATOM     20  C   UNL     1      46.081   4.674  13.850  0.00  0.00    +0.000 A 
BRANCH  19  21
ATOM     21  O   UNL     1      47.943   4.925  15.239  0.00  0.00    +0.000 OA
BRANCH  21  22
ATOM     22  C   UNL     1      47.230   4.125  16.209  0.00  0.00    +0.000 C 
ATOM     23  C   UNL     1      47.223   4.602  17.675  0.00  0.00    +0.000 C 
ATOM     24  N   UNL     1      47.621   3.256  18.127  0.00  0.00    +0.000 NA
ATOM     25  C   UNL     1      48.021   2.910  16.751  0.00  0.00    +0.000 C 
ATOM     26  H   UNL     1      46.851   2.692  18.485  0.00  0.00    +0.000 HD
ENDBRANCH  21  22
ENDBRANCH  19  21
ENDBRANCH  14  15
ENDBRANCH   1  14
TORSDOF 7
ENDMDL
MODEL 2
REMARK VINA RESULT:    -7.185      1.661      1.836
REMARK INTER + INTRA:         -10.995
REMARK INTER:                 -10.085
REMARK INTRA:                  -0.910
REMARK UNBOUND:                -0.870
REMARK  Name = 
REMARK  7 active torsions:
REMARK  status: ('A' for Active; 'I' for Inactive)
REMARK    1  A    between atoms: C_2  and  C_4
REMARK    2  A    between atoms: C_7  and  O_8
REMARK    3  A    between atoms: O_8  and  C_9
REMARK    4  A    between atoms: C_9  and  C_10
REMARK    5  A    between atoms: C_10  and  C_11
REMARK    6  A    between atoms: C_15  and  O_16
REMARK    7  A    between atoms: O_16  and  C_17
REMARK                            x       y       z     vdW  Elec       q    Type
REMARK                         _______ _______ _______ _____ _____    ______ ____
ROOT
ATOM      1  C   UNL     1      43.747   4.514  11.148  0.00  0.00    +0.000 C 
ENDROOT
BRANCH   1   2
ATOM      2  O   UNL     1      43.430   3.355  10.365  0.00  0.00    +0.000 OA
BRANCH   2   6
ATOM      3  C   UNL     1      46.389   2.679   7.571  0.00  0.00    +0.000 A 
ATOM      4  C   UNL     1      45.840   3.957   7.695  0.00  0.00    +0.000 A 
ATOM      5  C   UNL     1      44.833   4.180   8.638  0.00  0.00    +0.000 A 
ATOM      6  C   UNL     1      44.416   3.114   9.421  0.00  0.00    +0.000 A 
ATOM      7  N   UNL     1      44.925   1.867   9.304  0.00  0.00    +0.000 NA
ATOM      8  C   UNL     1      45.890   1.672   8.379  0.00  0.00    +0.000 A 
BRANCH   3  10
ATOM      9  N   UNL     1      47.497   3.025   5.440  0.00  0.00    +0.000 N 
ATOM     10  C   UNL     1      47.464   2.335   6.619  0.00  0.00    +0.000 C 
ATOM     11  O   UNL     1      48.323   1.505   6.893  0.00  0.00    +0.000 OA
ATOM     12  H   UNL     1      48.312   2.872   4.857  0.00  0.00    +0.000 HD
ATOM     13  H   UNL     1      46.983   3.884   5.304  0.00  0.00    +0.000 HD
ENDBRANCH   3  10
ENDBRANCH   2   6
ENDBRANCH   1   2
BRANCH   1  14
ATOM     14  C   UNL     1      44.525   4.136  12.409  0.00  0.00    +0.000 C 
BRANCH  14  15
ATOM     15  C   UNL     1      45.771   4.987  12.501  0.00  0.00    +0.000 A 
ATOM     16  C   UNL     1      46.048   5.954  11.530  0.00  0.00    +0.000 A 
ATOM     17  C   UNL     1      47.111   6.844  11.707  0.00  0.00    +0.000 A 
ATOM     18  C   UNL     1      47.915   6.773  12.850  0.00  0.00    +0.000 A 
ATOM     19  C   UNL     1      47.666   5.793  13.808  0.00  0.00    +0.000 A 
ATOM     20  C   UNL     1      46.597   4.910  13.634  0.00  0.00    +0.000 A 
BRANCH  19  21
ATOM     21  O   UNL     1      48.355   5.642  14.986  0.00  0.00    +0.000 OA
BRANCH  21  22
ATOM     22  C   UNL     1      48.860   6.810  15.671  0.00  0.00    +0.000 C 
ATOM     23  C   UNL     1      50.386   6.943  15.848  0.00  0.00    +0.000 C 
ATOM     24  N   UNL     1      50.205   7.233  17.282  0.00  0.00    +0.000 NA
ATOM     25  C   UNL     1      48.826   6.718  17.215  0.00  0.00    +0.000 C 
ATOM     26  H   UNL     1      50.264   8.223  17.518  0.00  0.00    +0.000 HD
ENDBRANCH  21  22
ENDBRANCH  19  21
ENDBRANCH  14  15
ENDBRANCH   1  14
TORSDOF 7
ENDMDL
MODEL 3
REMARK VINA RESULT:    -6.386      3.115      7.565
REMARK INTER + INTRA:          -9.870
REMARK INTER:                  -9.100
REMARK INTRA:                  -0.770
REMARK UNBOUND:                -0.870
REMARK  Name = 
REMARK  7 active torsions:
REMARK  status: ('A' for Active; 'I' for Inactive)
REMARK    1  A    between atoms: C_2  and  C_4
REMARK    2  A    between atoms: C_7  and  O_8
REMARK    3  A    between atoms: O_8  and  C_9
REMARK    4  A    between atoms: C_9  and  C_10
REMARK    5  A    between atoms: C_10  and  C_11
REMARK    6  A    between atoms: C_15  and  O_16
REMARK    7  A    between atoms: O_16  and  C_17
REMARK                            x       y       z     vdW  Elec       q    Type
REMARK                         _______ _______ _______ _____ _____    ______ ____
ROOT
ATOM      1  C   UNL     1      49.263   7.242  13.101  0.00  0.00    +0.000 C 
ENDROOT
BRANCH   1   2
ATOM      2  O   UNL     1      49.286   7.644  14.477  0.00  0.00    +0.000 OA
BRANCH   2   6
ATOM      3  C   UNL     1      48.075   4.583  16.965  0.00  0.00    +0.000 A 
ATOM      4  C   UNL     1      48.941   5.562  17.453  0.00  0.00    +0.000 A 
ATOM      5  C   UNL     1      49.355   6.594  16.604  0.00  0.00    +0.000 A 
ATOM      6  C   UNL     1      48.882   6.604  15.301  0.00  0.00    +0.000 A 
ATOM      7  N   UNL     1      48.056   5.655  14.806  0.00  0.00    +0.000 NA
ATOM      8  C   UNL     1      47.678   4.662  15.641  0.00  0.00    +0.000 A 
BRANCH   3  10
ATOM      9  N   UNL     1      48.267   3.135  18.903  0.00  0.00    +0.000 N 
ATOM     10  C   UNL     1      47.567   3.458  17.775  0.00  0.00    +0.000 C 
ATOM     11  O   UNL     1      46.532   2.871  17.481  0.00  0.00    +0.000 OA
ATOM     12  H   UNL     1      47.835   2.453  19.515  0.00  0.00    +0.000 HD
ATOM     13  H   UNL     1      48.949   3.759  19.311  0.00  0.00    +0.000 HD
ENDBRANCH   3  10
ENDBRANCH   2   6
ENDBRANCH   1   2
BRANCH   1  14
ATOM     14  C   UNL     1      48.514   8.258  12.238  0.00  0.00    +0.000 C 
BRANCH  14  15
ATOM     15  C   UNL     1      47.074   7.821  12.088  0.00  0.00    +0.000 A 
ATOM     16  C   UNL     1      46.040   8.762  12.091  0.00  0.00    +0.000 A 
ATOM     17  C   UNL     1      44.732   8.371  11.790  0.00  0.00    +0.000 A 
ATOM     18  C   UNL     1      44.441   7.035  11.490  0.00  0.00    +0.000 A 
ATOM     19  C   UNL     1      45.459   6.085  11.513  0.00  0.00    +0.000 A 
ATOM     20  C   UNL     1      46.768   6.481  11.806  0.00  0.00    +0.000 A 
BRANCH  19  21
ATOM     21  O   UNL     1      45.312   4.756  11.203  0.00  0.00    +0.000 OA
BRANCH  21  22
ATOM     22  C   UNL     1      43.991   4.170  11.190  0.00  0.00    +0.000 C 
ATOM     23  C   UNL     1      43.517   3.424  12.454  0.00  0.00    +0.000 C 
ATOM     24  N   UNL     1      43.106   2.271  11.633  0.00  0.00    +0.000 NA
ATOM     25  C   UNL     1      43.906   2.784  10.507  0.00  0.00    +0.000 C 
ATOM     26  H   UNL     1      42.105   2.232  11.442  0.00  0.00    +0.000 HD
ENDBRANCH  21  22
ENDBRANCH  19  21
ENDBRANCH  14  15
ENDBRANCH   1  14
TORSDOF 7
ENDMDL
MODEL 4
REMARK VINA RESULT:    -6.372      3.012      3.762
REMARK INTER + INTRA:          -9.850
REMARK INTER:                  -9.255
REMARK INTRA:                  -0.595
REMARK UNBOUND:                -0.870
REMARK  Name = 
REMARK  7 active torsions:
REMARK  status: ('A' for Active; 'I' for Inactive)
REMARK    1  A    between atoms: C_2  and  C_4
REMARK    2  A    between atoms: C_7  and  O_8
REMARK    3  A    between atoms: O_8  and  C_9
REMARK    4  A    between atoms: C_9  and  C_10
REMARK    5  A    between atoms: C_10  and  C_11
REMARK    6  A    between atoms: C_15  and  O_16
REMARK    7  A    between atoms: O_16  and  C_17
REMARK                            x       y       z     vdW  Elec       q    Type
REMARK                         _______ _______ _______ _____ _____    ______ ____
ROOT
ATOM      1  C   UNL     1      44.676   5.531  10.552  0.00  0.00    +0.000 C 
ENDROOT
BRANCH   1   2
ATOM      2  O   UNL     1      44.053   4.353  10.019  0.00  0.00    +0.000 OA
BRANCH   2   6
ATOM      3  C   UNL     1      46.588   2.320   7.478  0.00  0.00    +0.000 A 
ATOM      4  C   UNL     1      45.839   1.607   8.416  0.00  0.00    +0.000 A 
ATOM      5  C   UNL     1      44.986   2.301   9.280  0.00  0.00    +0.000 A 
ATOM      6  C   UNL     1      44.917   3.681   9.169  0.00  0.00    +0.000 A 
ATOM      7  N   UNL     1      45.647   4.389   8.278  0.00  0.00    +0.000 NA
ATOM      8  C   UNL     1      46.471   3.699   7.460  0.00  0.00    +0.000 A 
BRANCH   3  10
ATOM      9  N   UNL     1      48.680   2.339   6.248  0.00  0.00    +0.000 N 
ATOM     10  C   UNL     1      47.508   1.688   6.510  0.00  0.00    +0.000 C 
ATOM     11  O   UNL     1      47.257   0.602   6.001  0.00  0.00    +0.000 OA
ATOM     12  H   UNL     1      49.355   1.832   5.687  0.00  0.00    +0.000 HD
ATOM     13  H   UNL     1      49.031   3.077   6.843  0.00  0.00    +0.000 HD
ENDBRANCH   3  10
ENDBRANCH   2   6
ENDBRANCH   1   2
BRANCH   1  14
ATOM     14  C   UNL     1      45.455   5.217  11.830  0.00  0.00    +0.000 C 
BRANCH  14  15
ATOM     15  C   UNL     1      46.173   6.462  12.296  0.00  0.00    +0.000 A 
ATOM     16  C   UNL     1      45.455   7.607  12.656  0.00  0.00    +0.000 A 
ATOM     17  C   UNL     1      46.111   8.695  13.238  0.00  0.00    +0.000 A 
ATOM     18  C   UNL     1      47.492   8.656  13.461  0.00  0.00    +0.000 A 
ATOM     19  C   UNL     1      48.221   7.532  13.079  0.00  0.00    +0.000 A 
ATOM     20  C   UNL     1      47.561   6.442  12.504  0.00  0.00    +0.000 A 
BRANCH  19  21
ATOM     21  O   UNL     1      49.568   7.356  13.275  0.00  0.00    +0.000 OA
BRANCH  21  22
ATOM     22  C   UNL     1      50.476   8.450  13.013  0.00  0.00    +0.000 C 
ATOM     23  C   UNL     1      51.336   8.386  11.735  0.00  0.00    +0.000 C 
ATOM     24  N   UNL     1      52.545   8.697  12.520  0.00  0.00    +0.000 NA
ATOM     25  C   UNL     1      51.826   8.363  13.763  0.00  0.00    +0.000 C 
ATOM     26  H   UNL     1      52.839   9.671  12.464  0.00  0.00    +0.000 HD
ENDBRANCH  21  22
ENDBRANCH  19  21
ENDBRANCH  14  15
ENDBRANCH   1  14
TORSDOF 7
ENDMDL
MODEL 5
REMARK VINA RESULT:    -6.356      2.556      3.658
REMARK INTER + INTRA:          -9.828
REMARK INTER:                  -9.198
REMARK INTRA:                  -0.630
REMARK UNBOUND:                -0.870
REMARK  Name = 
REMARK  7 active torsions:
REMARK  status: ('A' for Active; 'I' for Inactive)
REMARK    1  A    between atoms: C_2  and  C_4
REMARK    2  A    between atoms: C_7  and  O_8
REMARK    3  A    between atoms: O_8  and  C_9
REMARK    4  A    between atoms: C_9  and  C_10
REMARK    5  A    between atoms: C_10  and  C_11
REMARK    6  A    between atoms: C_15  and  O_16
REMARK    7  A    between atoms: O_16  and  C_17
REMARK                            x       y       z     vdW  Elec       q    Type
REMARK                         _______ _______ _______ _____ _____    ______ ____
ROOT
ATOM      1  C   UNL     1      44.007   4.601  11.439  0.00  0.00    +0.000 C 
ENDROOT
BRANCH   1   2
ATOM      2  O   UNL     1      43.517   3.620  10.515  0.00  0.00    +0.000 OA
BRANCH   2   6
ATOM      3  C   UNL     1      46.394   2.784   7.678  0.00  0.00    +0.000 A 
ATOM      4  C   UNL     1      46.004   4.107   7.892  0.00  0.00    +0.000 A 
ATOM      5  C   UNL     1      45.024   4.385   8.849  0.00  0.00    +0.000 A 
ATOM      6  C   UNL     1      44.474   3.326   9.555  0.00  0.00    +0.000 A 
ATOM      7  N   UNL     1      44.828   2.037   9.351  0.00  0.00    +0.000 NA
ATOM      8  C   UNL     1      45.770   1.791   8.414  0.00  0.00    +0.000 A 
BRANCH   3  10
ATOM      9  N   UNL     1      47.439   3.028   5.502  0.00  0.00    +0.000 N 
ATOM     10  C   UNL     1      47.427   2.378   6.704  0.00  0.00    +0.000 C 
ATOM     11  O   UNL     1      48.271   1.533   6.977  0.00  0.00    +0.000 OA
ATOM     12  H   UNL     1      48.230   2.833   4.899  0.00  0.00    +0.000 HD
ATOM     13  H   UNL     1      46.945   3.897   5.354  0.00  0.00    +0.000 HD
ENDBRANCH   3  10
ENDBRANCH   2   6
ENDBRANCH   1   2
BRANCH   1  14
ATOM     14  C   UNL     1      44.691   3.941  12.637  0.00  0.00    +0.000 C 
BRANCH  14  15
ATOM     15  C   UNL     1      45.787   4.849  13.149  0.00  0.00    +0.000 A 
ATOM     16  C   UNL     1      46.484   4.535  14.320  0.00  0.00    +0.000 A 
ATOM     17  C   UNL     1      47.599   5.288  14.698  0.00  0.00    +0.000 A 
ATOM     18  C   UNL     1      48.026   6.367  13.916  0.00  0.00    +0.000 A 
ATOM     19  C   UNL     1      47.322   6.706  12.764  0.00  0.00    +0.000 A 
ATOM     20  C   UNL     1      46.212   5.946  12.383  0.00  0.00    +0.000 A 
BRANCH  19  21
ATOM     21  O   UNL     1      47.658   7.714  11.895  0.00  0.00    +0.000 OA
BRANCH  21  22
ATOM     22  C   UNL     1      47.349   9.083  12.239  0.00  0.00    +0.000 C 
ATOM     23  C   UNL     1      48.074  10.205  11.468  0.00  0.00    +0.000 C 
ATOM     24  N   UNL     1      48.428  10.865  12.737  0.00  0.00    +0.000 NA
ATOM     25  C   UNL     1      48.109   9.628  13.472  0.00  0.00    +0.000 C 
ATOM     26  H   UNL     1      47.828  11.653  12.979  0.00  0.00    +0.000 HD
ENDBRANCH  21  22
ENDBRANCH  19  21
ENDBRANCH  14  15
ENDBRANCH   1  14
TORSDOF 7
ENDMDL
MODEL 6
REMARK VINA RESULT:    -6.312      3.200      4.748
REMARK INTER + INTRA:          -9.766
REMARK INTER:                  -9.044
REMARK INTRA:                  -0.722
REMARK UNBOUND:                -0.870
REMARK  Name = 
REMARK  7 active torsions:
REMARK  status: ('A' for Active; 'I' for Inactive)
REMARK    1  A    between atoms: C_2  and  C_4
REMARK    2  A    between atoms: C_7  and  O_8
REMARK    3  A    between atoms: O_8  and  C_9
REMARK    4  A    between atoms: C_9  and  C_10
REMARK    5  A    between atoms: C_10  and  C_11
REMARK    6  A    between atoms: C_15  and  O_16
REMARK    7  A    between atoms: O_16  and  C_17
REMARK                            x       y       z     vdW  Elec       q    Type
REMARK                         _______ _______ _______ _____ _____    ______ ____
ROOT
ATOM      1  C   UNL     1      44.822   3.281  11.594  0.00  0.00    +0.000 C 
ENDROOT
BRANCH   1   2
ATOM      2  O   UNL     1      44.091   3.163  10.366  0.00  0.00    +0.000 OA
BRANCH   2   6
ATOM      3  C   UNL     1      46.664   2.423   7.227  0.00  0.00    +0.000 A 
ATOM      4  C   UNL     1      46.226   3.727   7.463  0.00  0.00    +0.000 A 
ATOM      5  C   UNL     1      45.348   3.972   8.523  0.00  0.00    +0.000 A 
ATOM      6  C   UNL     1      44.946   2.901   9.306  0.00  0.00    +0.000 A 
ATOM      7  N   UNL     1      45.348   1.629   9.083  0.00  0.00    +0.000 NA
ATOM      8  C   UNL     1      46.188   1.415   8.047  0.00  0.00    +0.000 A 
BRANCH   3  10
ATOM      9  N   UNL     1      48.866   2.561   6.216  0.00  0.00    +0.000 N 
ATOM     10  C   UNL     1      47.599   2.053   6.146  0.00  0.00    +0.000 C 
ATOM     11  O   UNL     1      47.273   1.283   5.250  0.00  0.00    +0.000 OA
ATOM     12  H   UNL     1      49.530   2.195   5.544  0.00  0.00    +0.000 HD
ATOM     13  H   UNL     1      49.238   2.965   7.065  0.00  0.00    +0.000 HD
ENDBRANCH   3  10
ENDBRANCH   2   6
ENDBRANCH   1   2
BRANCH   1  14
ATOM     14  C   UNL     1      44.193   4.326  12.515  0.00  0.00    +0.000 C 
BRANCH  14  15
ATOM     15  C   UNL     1      44.983   5.612  12.426  0.00  0.00    +0.000 A 
ATOM     16  C   UNL     1      46.371   5.609  12.597  0.00  0.00    +0.000 A 
ATOM     17  C   UNL     1      47.111   6.770  12.353  0.00  0.00    +0.000 A 
ATOM     18  C   UNL     1      46.474   7.947  11.946  0.00  0.00    +0.000 A 
ATOM     19  C   UNL     1      45.089   7.968  11.802  0.00  0.00    +0.000 A 
ATOM     20  C   UNL     1      44.351   6.804  12.038  0.00  0.00    +0.000 A 
BRANCH  19  21
ATOM     21  O   UNL     1      44.352   9.044  11.375  0.00  0.00    +0.000 OA
BRANCH  21  22
ATOM     22  C   UNL     1      45.027  10.198  10.827  0.00  0.00    +0.000 C 
ATOM     23  C   UNL     1      45.161  11.449  11.720  0.00  0.00    +0.000 C 
ATOM     24  N   UNL     1      44.649  12.297  10.627  0.00  0.00    +0.000 NA
ATOM     25  C   UNL     1      44.145  11.099   9.931  0.00  0.00    +0.000 C 
ATOM     26  H   UNL     1      45.374  12.796  10.113  0.00  0.00    +0.000 HD
ENDBRANCH  21  22
ENDBRANCH  19  21
ENDBRANCH  14  15
ENDBRANCH   1  14
TORSDOF 7
ENDMDL
MODEL 7
REMARK VINA RESULT:    -6.261      1.921      8.430
REMARK INTER + INTRA:          -9.693
REMARK INTER:                  -9.174
REMARK INTRA:                  -0.519
REMARK UNBOUND:                -0.870
REMARK  Name = 
REMARK  7 active torsions:
REMARK  status: ('A' for Active; 'I' for Inactive)
REMARK    1  A    between atoms: C_2  and  C_4
REMARK    2  A    between atoms: C_7  and  O_8
REMARK    3  A    between atoms: O_8  and  C_9
REMARK    4  A    between atoms: C_9  and  C_10
REMARK    5  A    between atoms: C_10  and  C_11
REMARK    6  A    between atoms: C_15  and  O_16
REMARK    7  A    between atoms: O_16  and  C_17
REMARK                            x       y       z     vdW  Elec       q    Type
REMARK                         _______ _______ _______ _____ _____    ______ ____
ROOT
ATOM      1  C   UNL     1      47.397   5.743  13.507  0.00  0.00    +0.000 C 
ENDROOT
BRANCH   1   2
ATOM      2  O   UNL     1      46.882   4.631  14.253  0.00  0.00    +0.000 OA
BRANCH   2   6
ATOM      3  C   UNL     1      48.510   4.482  18.041  0.00  0.00    +0.000 A 
ATOM      4  C   UNL     1      47.502   3.583  17.691  0.00  0.00    +0.000 A 
ATOM      5  C   UNL     1      46.948   3.641  16.408  0.00  0.00    +0.000 A 
ATOM      6  C   UNL     1      47.428   4.598  15.528  0.00  0.00    +0.000 A 
ATOM      7  N   UNL     1      48.392   5.487  15.854  0.00  0.00    +0.000 NA
ATOM      8  C   UNL     1      48.905   5.419  17.102  0.00  0.00    +0.000 A 
BRANCH   3  10
ATOM      9  N   UNL     1      48.573   3.801  20.369  0.00  0.00    +0.000 N 
ATOM     10  C   UNL     1      49.172   4.501  19.361  0.00  0.00    +0.000 C 
ATOM     11  O   UNL     1      50.241   5.075  19.534  0.00  0.00    +0.000 OA
ATOM     12  H   UNL     1      49.104   3.714  21.228  0.00  0.00    +0.000 HD
ATOM     13  H   UNL     1      47.858   3.109  20.194  0.00  0.00    +0.000 HD
ENDBRANCH   3  10
ENDBRANCH   2   6
ENDBRANCH   1   2
BRANCH   1  14
ATOM     14  C   UNL     1      46.266   6.627  12.979  0.00  0.00    +0.000 C 
BRANCH  14  15
ATOM     15  C   UNL     1      45.397   5.820  12.041  0.00  0.00    +0.000 A 
ATOM     16  C   UNL     1      44.093   5.466  12.405  0.00  0.00    +0.000 A 
ATOM     17  C   UNL     1      43.243   4.864  11.474  0.00  0.00    +0.000 A 
ATOM     18  C   UNL     1      43.685   4.600  10.173  0.00  0.00    +0.000 A 
ATOM     19  C   UNL     1      44.991   4.922   9.810  0.00  0.00    +0.000 A 
ATOM     20  C   UNL     1      45.838   5.532  10.740  0.00  0.00    +0.000 A 
BRANCH  19  21
ATOM     21  O   UNL     1      45.533   4.749   8.561  0.00  0.00    +0.000 OA
BRANCH  21  22
ATOM     22  C   UNL     1      45.414   3.467   7.903  0.00  0.00    +0.000 C 
ATOM     23  C   UNL     1      45.717   2.200   8.728  0.00  0.00    +0.000 C 
ATOM     24  N   UNL     1      46.604   1.704   7.660  0.00  0.00    +0.000 NA
ATOM     25  C   UNL     1      46.647   3.053   7.066  0.00  0.00    +0.000 C 
ATOM     26  H   UNL     1      46.178   1.003   7.056  0.00  0.00    +0.000 HD
ENDBRANCH  21  22
ENDBRANCH  19  21
ENDBRANCH  14  15
ENDBRANCH   1  14
TORSDOF 7
ENDMDL
MODEL 8
REMARK VINA RESULT:    -6.167      2.887      4.827
REMARK INTER + INTRA:          -9.561
REMARK INTER:                  -8.531
REMARK INTRA:                  -1.030
REMARK UNBOUND:                -0.870
REMARK  Name = 
REMARK  7 active torsions:
REMARK  status: ('A' for Active; 'I' for Inactive)
REMARK    1  A    between atoms: C_2  and  C_4
REMARK    2  A    between atoms: C_7  and  O_8
REMARK    3  A    between atoms: O_8  and  C_9
REMARK    4  A    between atoms: C_9  and  C_10
REMARK    5  A    between atoms: C_10  and  C_11
REMARK    6  A    between atoms: C_15  and  O_16
REMARK    7  A    between atoms: O_16  and  C_17
REMARK                            x       y       z     vdW  Elec       q    Type
REMARK                         _______ _______ _______ _____ _____    ______ ____
ROOT
ATOM      1  C   UNL     1      48.580   7.537  11.895  0.00  0.00    +0.000 C 
ENDROOT
BRANCH   1   2
ATOM      2  O   UNL     1      47.204   7.811  12.189  0.00  0.00    +0.000 OA
BRANCH   2   6
ATOM      3  C   UNL     1      44.877   4.428  11.790  0.00  0.00    +0.000 A 
ATOM      4  C   UNL     1      45.266   4.848  13.063  0.00  0.00    +0.000 A 
ATOM      5  C   UNL     1      46.060   5.991  13.193  0.00  0.00    +0.000 A 
ATOM      6  C   UNL     1      46.432   6.669  12.042  0.00  0.00    +0.000 A 
ATOM      7  N   UNL     1      46.077   6.269  10.800  0.00  0.00    +0.000 NA
ATOM      8  C   UNL     1      45.318   5.156  10.698  0.00  0.00    +0.000 A 
BRANCH   3  10
ATOM      9  N   UNL     1      43.713   2.464  12.613  0.00  0.00    +0.000 N 
ATOM     10  C   UNL     1      44.029   3.245  11.538  0.00  0.00    +0.000 C 
ATOM     11  O   UNL     1      43.584   3.001  10.423  0.00  0.00    +0.000 OA
ATOM     12  H   UNL     1      43.028   1.736  12.449  0.00  0.00    +0.000 HD
ATOM     13  H   UNL     1      43.833   2.783  13.564  0.00  0.00    +0.000 HD
ENDBRANCH   3  10
ENDBRANCH   2   6
ENDBRANCH   1   2
BRANCH   1  14
ATOM     14  C   UNL     1      49.509   8.473  12.670  0.00  0.00    +0.000 C 
BRANCH  14  15
ATOM     15  C   UNL     1      49.344   8.228  14.153  0.00  0.00    +0.000 A 
ATOM     16  C   UNL     1      49.057   9.285  15.022  0.00  0.00    +0.000 A 
ATOM     17  C   UNL     1      48.746   9.028  16.361  0.00  0.00    +0.000 A 
ATOM     18  C   UNL     1      48.727   7.717  16.848  0.00  0.00    +0.000 A 
ATOM     19  C   UNL     1      49.040   6.660  15.997  0.00  0.00    +0.000 A 
ATOM     20  C   UNL     1      49.343   6.917  14.656  0.00  0.00    +0.000 A 
BRANCH  19  21
ATOM     21  O   UNL     1      49.021   5.331  16.340  0.00  0.00    +0.000 OA
BRANCH  21  22
ATOM     22  C   UNL     1      47.759   4.631  16.407  0.00  0.00    +0.000 C 
ATOM     23  C   UNL     1      47.066   4.515  17.780  0.00  0.00    +0.000 C 
ATOM     24  N   UNL     1      46.885   3.066  17.578  0.00  0.00    +0.000 NA
ATOM     25  C   UNL     1      47.877   3.091  16.489  0.00  0.00    +0.000 C 
ATOM     26  H   UNL     1      45.948   2.802  17.275  0.00  0.00    +0.000 HD
ENDBRANCH  21  22
ENDBRANCH  19  21
ENDBRANCH  14  15
ENDBRANCH   1  14
TORSDOF 7
ENDMDL
MODEL 9
REMARK VINA RESULT:    -6.060      1.839      7.736
REMARK INTER + INTRA:          -9.410
REMARK INTER:                  -8.942
REMARK INTRA:                  -0.467
REMARK UNBOUND:                -0.870
REMARK  Name = 
REMARK  7 active torsions:
REMARK  status: ('A' for Active; 'I' for Inactive)
REMARK    1  A    between atoms: C_2  and  C_4
REMARK    2  A    between atoms: C_7  and  O_8
REMARK    3  A    between atoms: O_8  and  C_9
REMARK    4  A    between atoms: C_9  and  C_10
REMARK    5  A    between atoms: C_10  and  C_11
REMARK    6  A    between atoms: C_15  and  O_16
REMARK    7  A    between atoms: O_16  and  C_17
REMARK                            x       y       z     vdW  Elec       q    Type
REMARK                         _______ _______ _______ _____ _____    ______ ____
ROOT
ATOM      1  C   UNL     1      47.108   7.395  13.041  0.00  0.00    +0.000 C 
ENDROOT
BRANCH   1   2
ATOM      2  O   UNL     1      48.345   6.878  13.552  0.00  0.00    +0.000 OA
BRANCH   2   6
ATOM      3  C   UNL     1      47.663   4.205  16.620  0.00  0.00    +0.000 A 
ATOM      4  C   UNL     1      46.923   4.101  15.441  0.00  0.00    +0.000 A 
ATOM      5  C   UNL     1      47.152   5.013  14.406  0.00  0.00    +0.000 A 
ATOM      6  C   UNL     1      48.115   5.993  14.594  0.00  0.00    +0.000 A 
ATOM      7  N   UNL     1      48.830   6.118  15.734  0.00  0.00    +0.000 NA
ATOM      8  C   UNL     1      48.585   5.232  16.724  0.00  0.00    +0.000 A 
BRANCH   3  10
ATOM      9  N   UNL     1      48.337   3.490  18.839  0.00  0.00    +0.000 N 
ATOM     10  C   UNL     1      47.512   3.289  17.769  0.00  0.00    +0.000 C 
ATOM     11  O   UNL     1      46.650   2.418  17.786  0.00  0.00    +0.000 OA
ATOM     12  H   UNL     1      48.134   2.942  19.667  0.00  0.00    +0.000 HD
ATOM     13  H   UNL     1      48.855   4.348  18.966  0.00  0.00    +0.000 HD
ENDBRANCH   3  10
ENDBRANCH   2   6
ENDBRANCH   1   2
BRANCH   1  14
ATOM     14  C   UNL     1      46.890   6.974  11.587  0.00  0.00    +0.000 C 
BRANCH  14  15
ATOM     15  C   UNL     1      45.600   6.191  11.481  0.00  0.00    +0.000 A 
ATOM     16  C   UNL     1      44.365   6.831  11.626  0.00  0.00    +0.000 A 
ATOM     17  C   UNL     1      43.180   6.136  11.367  0.00  0.00    +0.000 A 
ATOM     18  C   UNL     1      43.214   4.795  10.969  0.00  0.00    +0.000 A 
ATOM     19  C   UNL     1      44.438   4.142  10.850  0.00  0.00    +0.000 A 
ATOM     20  C   UNL     1      45.623   4.840  11.101  0.00  0.00    +0.000 A 
BRANCH  19  21
ATOM     21  O   UNL     1      44.608   2.845  10.434  0.00  0.00    +0.000 OA
BRANCH  21  22
ATOM     22  C   UNL     1      44.639   2.549   9.019  0.00  0.00    +0.000 C 
ATOM     23  C   UNL     1      45.904   1.879   8.447  0.00  0.00    +0.000 C 
ATOM     24  N   UNL     1      45.960   2.882   7.368  0.00  0.00    +0.000 NA
ATOM     25  C   UNL     1      45.028   3.743   8.117  0.00  0.00    +0.000 C 
ATOM     26  H   UNL     1      45.591   2.555   6.476  0.00  0.00    +0.000 HD
ENDBRANCH  21  22
ENDBRANCH  19  21
ENDBRANCH  14  15
ENDBRANCH   1  14
TORSDOF 7
ENDMDL
