MODEL 1
REMARK VINA RESULT:    -8.486      0.000      0.000
REMARK INTER + INTRA:         -12.895
REMARK INTER:                 -11.711
REMARK INTRA:                  -1.184
REMARK UNBOUND:                -1.184
REMARK  Name = 
REMARK  7 active torsions:
REMARK  status: ('A' for Active; 'I' for Inactive)
REMARK    1  A    between atoms: N_1  and  C_2
REMARK    2  A    between atoms: C_2  and  N_3
REMARK    3  A    between atoms: C_2  and  C_16
REMARK    4  A    between atoms: C_4  and  C_6
REMARK    5  A    between atoms: C_19  and  C_20
REMARK    6  A    between atoms: C_20  and  N_21
REMARK    7  A    between atoms: C_22  and  C_24
REMARK                            x       y       z     vdW  Elec       q    Type
REMARK                         _______ _______ _______ _____ _____    ______ ____
ROOT
ATOM      1  C   UNL     1      46.791   4.382  14.806  0.00  0.00    +0.000 C 
ENDROOT
BRANCH   1   2
ATOM      2  C   UNL     1      46.046   4.395  13.480  0.00  0.00    +0.000 A 
ATOM      3  C   UNL     1      45.654   5.605  12.891  0.00  0.00    +0.000 A 
ATOM      4  C   UNL     1      45.009   5.619  11.646  0.00  0.00    +0.000 A 
ATOM      5  C   UNL     1      44.726   4.424  10.970  0.00  0.00    +0.000 A 
ATOM      6  C   UNL     1      45.104   3.213  11.561  0.00  0.00    +0.000 A 
ATOM      7  C   UNL     1      45.748   3.200  12.801  0.00  0.00    +0.000 A 
BRANCH   5   8
ATOM      8  C   UNL     1      44.051   4.437   9.621  0.00  0.00    +0.000 C 
BRANCH   8   9
ATOM      9  N   UNL     1      44.719   3.559   8.689  0.00  0.00    +0.000 N 
ATOM     10  C   UNL     1      45.862   3.968   8.035  0.00  0.00    +0.000 C 
ATOM     11  O   UNL     1      46.368   5.072   8.181  0.00  0.00    +0.000 OA
ATOM     12  H   UNL     1      44.477   2.579   8.717  0.00  0.00    +0.000 HD
BRANCH  10  13
ATOM     13  C   UNL     1      46.501   2.970   7.134  0.00  0.00    +0.000 A 
ATOM     14  C   UNL     1      46.900   3.306   5.839  0.00  0.00    +0.000 A 
ATOM     15  C   UNL     1      47.500   2.323   5.072  0.00  0.00    +0.000 A 
ATOM     16  N   UNL     1      47.720   1.063   5.503  0.00  0.00    +0.000 NA
ATOM     17  C   UNL     1      47.343   0.771   6.766  0.00  0.00    +0.000 A 
ATOM     18  C   UNL     1      46.741   1.682   7.616  0.00  0.00    +0.000 A 
ENDBRANCH  10  13
ENDBRANCH   8   9
ENDBRANCH   5   8
ENDBRANCH   1   2
BRANCH   1  19
ATOM     19  N   UNL     1      47.573   5.578  14.944  0.00  0.00    +0.000 N 
ATOM     20  C   UNL     1      48.516   5.760  15.923  0.00  0.00    +0.000 C 
ATOM     21  O   UNL     1      48.833   4.870  16.706  0.00  0.00    +0.000 OA
ATOM     22  H   UNL     1      47.109   6.417  14.607  0.00  0.00    +0.000 HD
BRANCH  20  23
ATOM     23  C   UNL     1      49.228   7.042  15.896  0.00  0.00    +0.000 A 
ATOM     24  C   UNL     1      49.509   7.697  17.089  0.00  0.00    +0.000 A 
ATOM     25  S   UNL     1      50.386   9.144  16.884  0.00  0.00    +0.000 S 
ATOM     26  C   UNL     1      50.380   8.972  15.191  0.00  0.00    +0.000 A 
ATOM     27  N   UNL     1      50.948   9.912  14.389  0.00  0.00    +0.000 NA
ATOM     28  C   UNL     1      50.839   9.670  13.126  0.00  0.00    +0.000 A 
ATOM     29  N   UNL     1      50.226   8.567  12.590  0.00  0.00    +0.000 N 
ATOM     30  C   UNL     1      49.674   7.572  13.363  0.00  0.00    +0.000 A 
ATOM     31  O   UNL     1      49.184   6.564  12.862  0.00  0.00    +0.000 OA
ATOM     32  C   UNL     1      49.743   7.811  14.790  0.00  0.00    +0.000 A 
ATOM     33  H   UNL     1      50.185   8.434  11.591  0.00  0.00    +0.000 HD
ENDBRANCH  20  23
ENDBRANCH   1  19
BRANCH   1  34
ATOM     34  N   UNL     1      47.714   3.270  14.864  0.00  0.00    +0.000 NA
ATOM     35  H   UNL     1      47.850   3.064  15.858  0.00  0.00    +0.000 HD
ATOM     36  H   UNL     1      48.619   3.597  14.539  0.00  0.00    +0.000 HD
ENDBRANCH   1  34
TORSDOF 7
ENDMDL
MODEL 2
REMARK VINA RESULT:    -8.169      2.011      3.598
REMARK INTER + INTRA:         -12.457
REMARK INTER:                 -11.548
REMARK INTRA:                  -0.910
REMARK UNBOUND:                -1.184
REMARK  Name = 
REMARK  7 active torsions:
REMARK  status: ('A' for Active; 'I' for Inactive)
REMARK    1  A    between atoms: N_1  and  C_2
REMARK    2  A    between atoms: C_2  and  N_3
REMARK    3  A    between atoms: C_2  and  C_16
REMARK    4  A    between atoms: C_4  and  C_6
REMARK    5  A    between atoms: C_19  and  C_20
REMARK    6  A    between atoms: C_20  and  N_21
REMARK    7  A    between atoms: C_22  and  C_24
REMARK                            x       y       z     vdW  Elec       q    Type
REMARK                         _______ _______ _______ _____ _____    ______ ____
ROOT
ATOM      1  C   UNL     1      47.433   7.763  13.555  0.00  0.00    +0.000 C 
ENDROOT
BRANCH   1   2
ATOM      2  C   UNL     1      46.589   6.702  12.866  0.00  0.00    +0.000 A 
ATOM      3  C   UNL     1      45.986   6.960  11.628  0.00  0.00    +0.000 A 
ATOM      4  C   UNL     1      45.246   5.966  10.971  0.00  0.00    +0.000 A 
ATOM      5  C   UNL     1      45.079   4.698  11.544  0.00  0.00    +0.000 A 
ATOM      6  C   UNL     1      45.669   4.441  12.787  0.00  0.00    +0.000 A 
ATOM      7  C   UNL     1      46.407   5.431  13.440  0.00  0.00    +0.000 A 
BRANCH   5   8
ATOM      8  C   UNL     1      44.301   3.620  10.830  0.00  0.00    +0.000 C 
BRANCH   8   9
ATOM      9  N   UNL     1      45.119   2.942   9.852  0.00  0.00    +0.000 N 
ATOM     10  C   UNL     1      45.153   3.375   8.542  0.00  0.00    +0.000 C 
ATOM     11  O   UNL     1      44.503   4.324   8.127  0.00  0.00    +0.000 OA
ATOM     12  H   UNL     1      45.835   2.317  10.195  0.00  0.00    +0.000 HD
BRANCH  10  13
ATOM     13  C   UNL     1      46.064   2.638   7.625  0.00  0.00    +0.000 A 
ATOM     14  C   UNL     1      46.563   3.228   6.463  0.00  0.00    +0.000 A 
ATOM     15  C   UNL     1      47.417   2.479   5.673  0.00  0.00    +0.000 A 
ATOM     16  N   UNL     1      47.794   1.215   5.962  0.00  0.00    +0.000 NA
ATOM     17  C   UNL     1      47.313   0.676   7.102  0.00  0.00    +0.000 A 
ATOM     18  C   UNL     1      46.459   1.342   7.964  0.00  0.00    +0.000 A 
ENDBRANCH  10  13
ENDBRANCH   8   9
ENDBRANCH   5   8
ENDBRANCH   1   2
BRANCH   1  19
ATOM     19  N   UNL     1      47.723   7.365  14.903  0.00  0.00    +0.000 N 
ATOM     20  C   UNL     1      48.950   6.910  15.314  0.00  0.00    +0.000 C 
ATOM     21  O   UNL     1      49.929   6.898  14.574  0.00  0.00    +0.000 OA
ATOM     22  H   UNL     1      46.919   7.005  15.409  0.00  0.00    +0.000 HD
BRANCH  20  23
ATOM     23  C   UNL     1      49.062   6.564  16.735  0.00  0.00    +0.000 A 
ATOM     24  C   UNL     1      49.490   7.523  17.643  0.00  0.00    +0.000 A 
ATOM     25  S   UNL     1      49.515   6.974  19.257  0.00  0.00    +0.000 S 
ATOM     26  C   UNL     1      49.001   5.419  18.793  0.00  0.00    +0.000 A 
ATOM     27  N   UNL     1      48.851   4.428  19.711  0.00  0.00    +0.000 NA
ATOM     28  C   UNL     1      48.491   3.292  19.213  0.00  0.00    +0.000 A 
ATOM     29  N   UNL     1      48.253   3.060  17.883  0.00  0.00    +0.000 N 
ATOM     30  C   UNL     1      48.354   4.042  16.926  0.00  0.00    +0.000 A 
ATOM     31  O   UNL     1      48.078   3.826  15.749  0.00  0.00    +0.000 OA
ATOM     32  C   UNL     1      48.786   5.330  17.429  0.00  0.00    +0.000 A 
ATOM     33  H   UNL     1      47.964   2.148  17.562  0.00  0.00    +0.000 HD
ENDBRANCH  20  23
ENDBRANCH   1  19
BRANCH   1  34
ATOM     34  N   UNL     1      46.715   9.016  13.635  0.00  0.00    +0.000 NA
ATOM     35  H   UNL     1      47.374   9.699  14.018  0.00  0.00    +0.000 HD
ATOM     36  H   UNL     1      45.996   8.921  14.345  0.00  0.00    +0.000 HD
ENDBRANCH   1  34
TORSDOF 7
ENDMDL
MODEL 3
REMARK VINA RESULT:    -8.041      1.420      2.315
REMARK INTER + INTRA:         -12.280
REMARK INTER:                 -11.183
REMARK INTRA:                  -1.097
REMARK UNBOUND:                -1.184
REMARK  Name = 
REMARK  7 active torsions:
REMARK  status: ('A' for Active; 'I' for Inactive)
REMARK    1  A    between atoms: N_1  and  C_2
REMARK    2  A    between atoms: C_2  and  N_3
REMARK    3  A    between atoms: C_2  and  C_16
REMARK    4  A    between atoms: C_4  and  C_6
REMARK    5  A    between atoms: C_19  and  C_20
REMARK    6  A    between atoms: C_20  and  N_21
REMARK    7  A    between atoms: C_22  and  C_24
REMARK                            x       y       z     vdW  Elec       q    Type
REMARK                         _______ _______ _______ _____ _____    ______ ____
ROOT
ATOM      1  C   UNL     1      46.785   4.502  14.742  0.00  0.00    +0.000 C 
ENDROOT
BRANCH   1   2
ATOM      2  C   UNL     1      46.046   4.476  13.414  0.00  0.00    +0.000 A 
ATOM      3  C   UNL     1      45.863   5.651  12.673  0.00  0.00    +0.000 A 
ATOM      4  C   UNL     1      45.222   5.620  11.427  0.00  0.00    +0.000 A 
ATOM      5  C   UNL     1      44.734   4.417  10.900  0.00  0.00    +0.000 A 
ATOM      6  C   UNL     1      44.903   3.242  11.642  0.00  0.00    +0.000 A 
ATOM      7  C   UNL     1      45.543   3.274  12.884  0.00  0.00    +0.000 A 
BRANCH   5   8
ATOM      8  C   UNL     1      44.063   4.377   9.549  0.00  0.00    +0.000 C 
BRANCH   8   9
ATOM      9  N   UNL     1      44.743   3.474   8.650  0.00  0.00    +0.000 N 
ATOM     10  C   UNL     1      45.876   3.877   7.974  0.00  0.00    +0.000 C 
ATOM     11  O   UNL     1      46.363   4.995   8.074  0.00  0.00    +0.000 OA
ATOM     12  H   UNL     1      44.518   2.492   8.717  0.00  0.00    +0.000 HD
BRANCH  10  13
ATOM     13  C   UNL     1      46.529   2.856   7.110  0.00  0.00    +0.000 A 
ATOM     14  C   UNL     1      46.791   1.566   7.575  0.00  0.00    +0.000 A 
ATOM     15  C   UNL     1      47.387   0.674   6.702  0.00  0.00    +0.000 A 
ATOM     16  N   UNL     1      47.729   0.978   5.433  0.00  0.00    +0.000 NA
ATOM     17  C   UNL     1      47.446   2.225   5.002  0.00  0.00    +0.000 A 
ATOM     18  C   UNL     1      46.846   3.190   5.793  0.00  0.00    +0.000 A 
ENDBRANCH  10  13
ENDBRANCH   8   9
ENDBRANCH   5   8
ENDBRANCH   1   2
BRANCH   1  19
ATOM     19  N   UNL     1      47.612   5.672  14.824  0.00  0.00    +0.000 N 
ATOM     20  C   UNL     1      48.445   5.941  15.879  0.00  0.00    +0.000 C 
ATOM     21  O   UNL     1      48.620   5.148  16.800  0.00  0.00    +0.000 OA
ATOM     22  H   UNL     1      47.238   6.478  14.332  0.00  0.00    +0.000 HD
BRANCH  20  23
ATOM     23  C   UNL     1      49.227   7.178  15.780  0.00  0.00    +0.000 A 
ATOM     24  C   UNL     1      50.064   7.376  14.690  0.00  0.00    +0.000 A 
ATOM     25  S   UNL     1      50.858   8.885  14.702  0.00  0.00    +0.000 S 
ATOM     26  C   UNL     1      50.149   9.307  16.190  0.00  0.00    +0.000 A 
ATOM     27  N   UNL     1      50.442  10.488  16.796  0.00  0.00    +0.000 NA
ATOM     28  C   UNL     1      49.860  10.661  17.936  0.00  0.00    +0.000 A 
ATOM     29  N   UNL     1      49.000   9.766  18.519  0.00  0.00    +0.000 N 
ATOM     30  C   UNL     1      48.645   8.578  17.925  0.00  0.00    +0.000 A 
ATOM     31  O   UNL     1      47.827   7.821  18.438  0.00  0.00    +0.000 OA
ATOM     32  C   UNL     1      49.296   8.322  16.656  0.00  0.00    +0.000 A 
ATOM     33  H   UNL     1      48.571   9.969  19.409  0.00  0.00    +0.000 HD
ENDBRANCH  20  23
ENDBRANCH   1  19
BRANCH   1  34
ATOM     34  N   UNL     1      47.665   3.359  14.861  0.00  0.00    +0.000 NA
ATOM     35  H   UNL     1      48.217   3.512  15.709  0.00  0.00    +0.000 HD
ATOM     36  H   UNL     1      48.337   3.401  14.101  0.00  0.00    +0.000 HD
ENDBRANCH   1  34
TORSDOF 7
ENDMDL
MODEL 4
REMARK VINA RESULT:    -7.701      1.557      2.118
REMARK INTER + INTRA:         -11.811
REMARK INTER:                 -10.794
REMARK INTRA:                  -1.017
REMARK UNBOUND:                -1.184
REMARK  Name = 
REMARK  7 active torsions:
REMARK  status: ('A' for Active; 'I' for Inactive)
REMARK    1  A    between atoms: N_1  and  C_2
REMARK    2  A    between atoms: C_2  and  N_3
REMARK    3  A    between atoms: C_2  and  C_16
REMARK    4  A    between atoms: C_4  and  C_6
REMARK    5  A    between atoms: C_19  and  C_20
REMARK    6  A    between atoms: C_20  and  N_21
REMARK    7  A    between atoms: C_22  and  C_24
REMARK                            x       y       z     vdW  Elec       q    Type
REMARK                         _______ _______ _______ _____ _____    ______ ____
ROOT
ATOM      1  C   UNL     1      46.924   5.008  14.600  0.00  0.00    +0.000 C 
ENDROOT
BRANCH   1   2
ATOM      2  C   UNL     1      46.131   4.846  13.313  0.00  0.00    +0.000 A 
ATOM      3  C   UNL     1      45.852   5.952  12.499  0.00  0.00    +0.000 A 
ATOM      4  C   UNL     1      45.161   5.796  11.290  0.00  0.00    +0.000 A 
ATOM      5  C   UNL     1      44.718   4.532  10.874  0.00  0.00    +0.000 A 
ATOM      6  C   UNL     1      44.983   3.426  11.689  0.00  0.00    +0.000 A 
ATOM      7  C   UNL     1      45.673   3.583  12.894  0.00  0.00    +0.000 A 
BRANCH   5   8
ATOM      8  C   UNL     1      43.992   4.358   9.562  0.00  0.00    +0.000 C 
BRANCH   8   9
ATOM      9  N   UNL     1      44.691   3.441   8.692  0.00  0.00    +0.000 N 
ATOM     10  C   UNL     1      45.802   3.852   7.985  0.00  0.00    +0.000 C 
ATOM     11  O   UNL     1      46.252   4.988   8.032  0.00  0.00    +0.000 OA
ATOM     12  H   UNL     1      44.500   2.455   8.804  0.00  0.00    +0.000 HD
BRANCH  10  13
ATOM     13  C   UNL     1      46.478   2.817   7.156  0.00  0.00    +0.000 A 
ATOM     14  C   UNL     1      46.763   1.548   7.661  0.00  0.00    +0.000 A 
ATOM     15  C   UNL     1      47.381   0.641   6.819  0.00  0.00    +0.000 A 
ATOM     16  N   UNL     1      47.720   0.912   5.541  0.00  0.00    +0.000 NA
ATOM     17  C   UNL     1      47.414   2.139   5.071  0.00  0.00    +0.000 A 
ATOM     18  C   UNL     1      46.793   3.117   5.829  0.00  0.00    +0.000 A 
ENDBRANCH  10  13
ENDBRANCH   8   9
ENDBRANCH   5   8
ENDBRANCH   1   2
BRANCH   1  19
ATOM     19  N   UNL     1      48.010   5.925  14.398  0.00  0.00    +0.000 N 
ATOM     20  C   UNL     1      48.663   6.566  15.419  0.00  0.00    +0.000 C 
ATOM     21  O   UNL     1      48.430   6.329  16.601  0.00  0.00    +0.000 OA
ATOM     22  H   UNL     1      47.975   6.418  13.510  0.00  0.00    +0.000 HD
BRANCH  20  23
ATOM     23  C   UNL     1      49.759   7.455  15.021  0.00  0.00    +0.000 A 
ATOM     24  C   UNL     1      49.498   8.539  14.193  0.00  0.00    +0.000 A 
ATOM     25  S   UNL     1      50.870   9.499  13.871  0.00  0.00    +0.000 S 
ATOM     26  C   UNL     1      51.871   8.473  14.787  0.00  0.00    +0.000 A 
ATOM     27  N   UNL     1      53.205   8.710  14.896  0.00  0.00    +0.000 NA
ATOM     28  C   UNL     1      53.847   7.832  15.592  0.00  0.00    +0.000 A 
ATOM     29  N   UNL     1      53.274   6.745  16.202  0.00  0.00    +0.000 N 
ATOM     30  C   UNL     1      51.924   6.488  16.151  0.00  0.00    +0.000 A 
ATOM     31  O   UNL     1      51.426   5.543  16.755  0.00  0.00    +0.000 OA
ATOM     32  C   UNL     1      51.163   7.429  15.355  0.00  0.00    +0.000 A 
ATOM     33  H   UNL     1      53.834   6.102  16.740  0.00  0.00    +0.000 HD
ENDBRANCH  20  23
ENDBRANCH   1  19
BRANCH   1  34
ATOM     34  N   UNL     1      47.511   3.748  15.001  0.00  0.00    +0.000 NA
ATOM     35  H   UNL     1      47.967   3.921  15.902  0.00  0.00    +0.000 HD
ATOM     36  H   UNL     1      48.271   3.538  14.361  0.00  0.00    +0.000 HD
ENDBRANCH   1  34
TORSDOF 7
ENDMDL
MODEL 5
REMARK VINA RESULT:    -7.216      4.772      7.169
REMARK INTER + INTRA:         -11.142
REMARK INTER:                 -10.197
REMARK INTRA:                  -0.945
REMARK UNBOUND:                -1.184
REMARK  Name = 
REMARK  7 active torsions:
REMARK  status: ('A' for Active; 'I' for Inactive)
REMARK    1  A    between atoms: N_1  and  C_2
REMARK    2  A    between atoms: C_2  and  N_3
REMARK    3  A    between atoms: C_2  and  C_16
REMARK    4  A    between atoms: C_4  and  C_6
REMARK    5  A    between atoms: C_19  and  C_20
REMARK    6  A    between atoms: C_20  and  N_21
REMARK    7  A    between atoms: C_22  and  C_24
REMARK                            x       y       z     vdW  Elec       q    Type
REMARK                         _______ _______ _______ _____ _____    ______ ____
ROOT
ATOM      1  C   UNL     1      46.142   4.373  14.256  0.00  0.00    +0.000 C 
ENDROOT
BRANCH   1   2
ATOM      2  C   UNL     1      45.824   5.598  13.414  0.00  0.00    +0.000 A 
ATOM      3  C   UNL     1      44.657   5.652  12.640  0.00  0.00    +0.000 A 
ATOM      4  C   UNL     1      44.339   6.799  11.900  0.00  0.00    +0.000 A 
ATOM      5  C   UNL     1      45.189   7.914  11.904  0.00  0.00    +0.000 A 
ATOM      6  C   UNL     1      46.362   7.860  12.666  0.00  0.00    +0.000 A 
ATOM      7  C   UNL     1      46.677   6.717  13.404  0.00  0.00    +0.000 A 
BRANCH   5   8
ATOM      8  C   UNL     1      44.840   9.158  11.126  0.00  0.00    +0.000 C 
BRANCH   8   9
ATOM      9  N   UNL     1      43.427   9.449  11.204  0.00  0.00    +0.000 N 
ATOM     10  C   UNL     1      42.988  10.715  11.532  0.00  0.00    +0.000 C 
ATOM     11  O   UNL     1      43.739  11.647  11.786  0.00  0.00    +0.000 OA
ATOM     12  H   UNL     1      42.791   8.788  10.782  0.00  0.00    +0.000 HD
BRANCH  10  13
ATOM     13  C   UNL     1      41.515  10.923  11.538  0.00  0.00    +0.000 A 
ATOM     14  C   UNL     1      40.692  10.344  10.570  0.00  0.00    +0.000 A 
ATOM     15  C   UNL     1      39.331  10.576  10.656  0.00  0.00    +0.000 A 
ATOM     16  N   UNL     1      38.755  11.327  11.619  0.00  0.00    +0.000 NA
ATOM     17  C   UNL     1      39.572  11.858  12.554  0.00  0.00    +0.000 A 
ATOM     18  C   UNL     1      40.944  11.682  12.561  0.00  0.00    +0.000 A 
ENDBRANCH  10  13
ENDBRANCH   8   9
ENDBRANCH   5   8
ENDBRANCH   1   2
BRANCH   1  19
ATOM     19  N   UNL     1      47.233   4.656  15.146  0.00  0.00    +0.000 N 
ATOM     20  C   UNL     1      47.341   4.129  16.407  0.00  0.00    +0.000 C 
ATOM     21  O   UNL     1      46.554   3.293  16.841  0.00  0.00    +0.000 OA
ATOM     22  H   UNL     1      47.657   5.568  15.004  0.00  0.00    +0.000 HD
BRANCH  20  23
ATOM     23  C   UNL     1      48.534   4.518  17.166  0.00  0.00    +0.000 A 
ATOM     24  C   UNL     1      48.577   5.758  17.790  0.00  0.00    +0.000 A 
ATOM     25  S   UNL     1      50.011   6.031  18.671  0.00  0.00    +0.000 S 
ATOM     26  C   UNL     1      50.647   4.522  18.208  0.00  0.00    +0.000 A 
ATOM     27  N   UNL     1      51.889   4.135  18.601  0.00  0.00    +0.000 NA
ATOM     28  C   UNL     1      52.257   2.983  18.147  0.00  0.00    +0.000 A 
ATOM     29  N   UNL     1      51.489   2.175  17.348  0.00  0.00    +0.000 N 
ATOM     30  C   UNL     1      50.213   2.509  16.959  0.00  0.00    +0.000 A 
ATOM     31  O   UNL     1      49.522   1.743  16.293  0.00  0.00    +0.000 OA
ATOM     32  C   UNL     1      49.765   3.808  17.417  0.00  0.00    +0.000 A 
ATOM     33  H   UNL     1      51.834   1.280  17.037  0.00  0.00    +0.000 HD
ENDBRANCH  20  23
ENDBRANCH   1  19
BRANCH   1  34
ATOM     34  N   UNL     1      46.562   3.271  13.418  0.00  0.00    +0.000 NA
ATOM     35  H   UNL     1      47.106   2.646  14.020  0.00  0.00    +0.000 HD
ATOM     36  H   UNL     1      47.230   3.628  12.742  0.00  0.00    +0.000 HD
ENDBRANCH   1  34
TORSDOF 7
ENDMDL
MODEL 6
REMARK VINA RESULT:    -6.996      1.727      2.165
REMARK INTER + INTRA:         -10.838
REMARK INTER:                  -9.503
REMARK INTRA:                  -1.335
REMARK UNBOUND:                -1.184
REMARK  Name = 
REMARK  7 active torsions:
REMARK  status: ('A' for Active; 'I' for Inactive)
REMARK    1  A    between atoms: N_1  and  C_2
REMARK    2  A    between atoms: C_2  and  N_3
REMARK    3  A    between atoms: C_2  and  C_16
REMARK    4  A    between atoms: C_4  and  C_6
REMARK    5  A    between atoms: C_19  and  C_20
REMARK    6  A    between atoms: C_20  and  N_21
REMARK    7  A    between atoms: C_22  and  C_24
REMARK                            x       y       z     vdW  Elec       q    Type
REMARK                         _______ _______ _______ _____ _____    ______ ____
ROOT
ATOM      1  C   UNL     1      47.482   6.109  14.668  0.00  0.00    +0.000 C 
ENDROOT
BRANCH   1   2
ATOM      2  C   UNL     1      46.655   5.742  13.447  0.00  0.00    +0.000 A 
ATOM      3  C   UNL     1      46.489   6.653  12.394  0.00  0.00    +0.000 A 
ATOM      4  C   UNL     1      45.765   6.298  11.247  0.00  0.00    +0.000 A 
ATOM      5  C   UNL     1      45.176   5.031  11.133  0.00  0.00    +0.000 A 
ATOM      6  C   UNL     1      45.329   4.123  12.187  0.00  0.00    +0.000 A 
ATOM      7  C   UNL     1      46.051   4.477  13.329  0.00  0.00    +0.000 A 
BRANCH   5   8
ATOM      8  C   UNL     1      44.415   4.638   9.891  0.00  0.00    +0.000 C 
BRANCH   8   9
ATOM      9  N   UNL     1      45.296   4.102   8.880  0.00  0.00    +0.000 N 
ATOM     10  C   UNL     1      45.333   2.746   8.628  0.00  0.00    +0.000 C 
ATOM     11  O   UNL     1      44.654   1.927   9.233  0.00  0.00    +0.000 OA
ATOM     12  H   UNL     1      45.689   4.750   8.213  0.00  0.00    +0.000 HD
BRANCH  10  13
ATOM     13  C   UNL     1      46.238   2.301   7.534  0.00  0.00    +0.000 A 
ATOM     14  C   UNL     1      46.802   1.024   7.528  0.00  0.00    +0.000 A 
ATOM     15  C   UNL     1      47.621   0.685   6.466  0.00  0.00    +0.000 A 
ATOM     16  N   UNL     1      47.904   1.514   5.439  0.00  0.00    +0.000 NA
ATOM     17  C   UNL     1      47.328   2.735   5.460  0.00  0.00    +0.000 A 
ATOM     18  C   UNL     1      46.490   3.170   6.472  0.00  0.00    +0.000 A 
ENDBRANCH  10  13
ENDBRANCH   8   9
ENDBRANCH   5   8
ENDBRANCH   1   2
BRANCH   1  19
ATOM     19  N   UNL     1      48.742   6.663  14.262  0.00  0.00    +0.000 N 
ATOM     20  C   UNL     1      49.520   7.454  15.069  0.00  0.00    +0.000 C 
ATOM     21  O   UNL     1      49.240   7.673  16.244  0.00  0.00    +0.000 OA
ATOM     22  H   UNL     1      48.817   6.832  13.263  0.00  0.00    +0.000 HD
BRANCH  20  23
ATOM     23  C   UNL     1      50.785   7.915  14.488  0.00  0.00    +0.000 A 
ATOM     24  C   UNL     1      51.977   7.676  15.159  0.00  0.00    +0.000 A 
ATOM     25  S   UNL     1      53.356   8.231  14.322  0.00  0.00    +0.000 S 
ATOM     26  C   UNL     1      52.404   8.853  13.056  0.00  0.00    +0.000 A 
ATOM     27  N   UNL     1      52.973   9.504  12.007  0.00  0.00    +0.000 NA
ATOM     28  C   UNL     1      52.130   9.954  11.139  0.00  0.00    +0.000 A 
ATOM     29  N   UNL     1      50.770   9.799  11.216  0.00  0.00    +0.000 N 
ATOM     30  C   UNL     1      50.154   9.113  12.237  0.00  0.00    +0.000 A 
ATOM     31  O   UNL     1      48.940   8.935  12.253  0.00  0.00    +0.000 OA
ATOM     32  C   UNL     1      51.056   8.615  13.255  0.00  0.00    +0.000 A 
ATOM     33  H   UNL     1      50.167  10.167  10.495  0.00  0.00    +0.000 HD
ENDBRANCH  20  23
ENDBRANCH   1  19
BRANCH   1  34
ATOM     34  N   UNL     1      47.777   4.934  15.459  0.00  0.00    +0.000 NA
ATOM     35  H   UNL     1      47.665   5.213  16.437  0.00  0.00    +0.000 HD
ATOM     36  H   UNL     1      48.767   4.729  15.358  0.00  0.00    +0.000 HD
ENDBRANCH   1  34
TORSDOF 7
ENDMDL
MODEL 7
REMARK VINA RESULT:    -6.961      4.482      8.961
REMARK INTER + INTRA:         -10.790
REMARK INTER:                  -9.835
REMARK INTRA:                  -0.955
REMARK UNBOUND:                -1.184
REMARK  Name = 
REMARK  7 active torsions:
REMARK  status: ('A' for Active; 'I' for Inactive)
REMARK    1  A    between atoms: N_1  and  C_2
REMARK    2  A    between atoms: C_2  and  N_3
REMARK    3  A    between atoms: C_2  and  C_16
REMARK    4  A    between atoms: C_4  and  C_6
REMARK    5  A    between atoms: C_19  and  C_20
REMARK    6  A    between atoms: C_20  and  N_21
REMARK    7  A    between atoms: C_22  and  C_24
REMARK                            x       y       z     vdW  Elec       q    Type
REMARK                         _______ _______ _______ _____ _____    ______ ____
ROOT
ATOM      1  C   UNL     1      47.469   3.351  16.525  0.00  0.00    +0.000 C 
ENDROOT
BRANCH   1   2
ATOM      2  C   UNL     1      48.815   3.881  16.992  0.00  0.00    +0.000 A 
ATOM      3  C   UNL     1      49.829   3.003  17.396  0.00  0.00    +0.000 A 
ATOM      4  C   UNL     1      51.086   3.489  17.783  0.00  0.00    +0.000 A 
ATOM      5  C   UNL     1      51.353   4.865  17.791  0.00  0.00    +0.000 A 
ATOM      6  C   UNL     1      50.339   5.747  17.399  0.00  0.00    +0.000 A 
ATOM      7  C   UNL     1      49.087   5.262  17.013  0.00  0.00    +0.000 A 
BRANCH   5   8
ATOM      8  C   UNL     1      52.711   5.389  18.185  0.00  0.00    +0.000 C 
BRANCH   8   9
ATOM      9  N   UNL     1      53.131   6.468  17.321  0.00  0.00    +0.000 N 
ATOM     10  C   UNL     1      54.115   6.268  16.376  0.00  0.00    +0.000 C 
ATOM     11  O   UNL     1      54.694   5.202  16.216  0.00  0.00    +0.000 OA
ATOM     12  H   UNL     1      52.530   7.277  17.260  0.00  0.00    +0.000 HD
BRANCH  10  13
ATOM     13  C   UNL     1      54.440   7.429  15.503  0.00  0.00    +0.000 A 
ATOM     14  C   UNL     1      54.574   8.717  16.023  0.00  0.00    +0.000 A 
ATOM     15  C   UNL     1      54.892   9.738  15.144  0.00  0.00    +0.000 A 
ATOM     16  N   UNL     1      55.079   9.559  13.820  0.00  0.00    +0.000 NA
ATOM     17  C   UNL     1      54.963   8.300  13.347  0.00  0.00    +0.000 A 
ATOM     18  C   UNL     1      54.655   7.210  14.141  0.00  0.00    +0.000 A 
ENDBRANCH  10  13
ENDBRANCH   8   9
ENDBRANCH   5   8
ENDBRANCH   1   2
BRANCH   1  19
ATOM     19  N   UNL     1      46.858   4.285  15.621  0.00  0.00    +0.000 N 
ATOM     20  C   UNL     1      46.816   4.109  14.261  0.00  0.00    +0.000 C 
ATOM     21  O   UNL     1      47.217   3.085  13.717  0.00  0.00    +0.000 OA
ATOM     22  H   UNL     1      46.871   5.246  15.948  0.00  0.00    +0.000 HD
BRANCH  20  23
ATOM     23  C   UNL     1      46.134   5.161  13.500  0.00  0.00    +0.000 A 
ATOM     24  C   UNL     1      46.719   6.415  13.387  0.00  0.00    +0.000 A 
ATOM     25  S   UNL     1      45.824   7.503  12.427  0.00  0.00    +0.000 S 
ATOM     26  C   UNL     1      44.599   6.351  12.167  0.00  0.00    +0.000 A 
ATOM     27  N   UNL     1      43.493   6.656  11.438  0.00  0.00    +0.000 NA
ATOM     28  C   UNL     1      42.630   5.699  11.353  0.00  0.00    +0.000 A 
ATOM     29  N   UNL     1      42.779   4.458  11.918  0.00  0.00    +0.000 N 
ATOM     30  C   UNL     1      43.898   4.093  12.630  0.00  0.00    +0.000 A 
ATOM     31  O   UNL     1      44.036   2.958  13.075  0.00  0.00    +0.000 OA
ATOM     32  C   UNL     1      44.884   5.144  12.781  0.00  0.00    +0.000 A 
ATOM     33  H   UNL     1      42.069   3.751  11.803  0.00  0.00    +0.000 HD
ENDBRANCH  20  23
ENDBRANCH   1  19
BRANCH   1  34
ATOM     34  N   UNL     1      46.563   3.198  17.642  0.00  0.00    +0.000 NA
ATOM     35  H   UNL     1      45.924   2.439  17.390  0.00  0.00    +0.000 HD
ATOM     36  H   UNL     1      45.978   4.027  17.688  0.00  0.00    +0.000 HD
ENDBRANCH   1  34
TORSDOF 7
ENDMDL
MODEL 8
REMARK VINA RESULT:    -6.750      4.613     10.813
REMARK INTER + INTRA:         -10.500
REMARK INTER:                  -9.465
REMARK INTRA:                  -1.035
REMARK UNBOUND:                -1.184
REMARK  Name = 
REMARK  7 active torsions:
REMARK  status: ('A' for Active; 'I' for Inactive)
REMARK    1  A    between atoms: N_1  and  C_2
REMARK    2  A    between atoms: C_2  and  N_3
REMARK    3  A    between atoms: C_2  and  C_16
REMARK    4  A    between atoms: C_4  and  C_6
REMARK    5  A    between atoms: C_19  and  C_20
REMARK    6  A    between atoms: C_20  and  N_21
REMARK    7  A    between atoms: C_22  and  C_24
REMARK                            x       y       z     vdW  Elec       q    Type
REMARK                         _______ _______ _______ _____ _____    ______ ____
ROOT
ATOM      1  C   UNL     1      47.638   3.908  16.805  0.00  0.00    +0.000 C 
ENDROOT
BRANCH   1   2
ATOM      2  C   UNL     1      48.204   4.769  17.923  0.00  0.00    +0.000 A 
ATOM      3  C   UNL     1      48.684   6.059  17.661  0.00  0.00    +0.000 A 
ATOM      4  C   UNL     1      49.163   6.870  18.699  0.00  0.00    +0.000 A 
ATOM      5  C   UNL     1      49.188   6.405  20.021  0.00  0.00    +0.000 A 
ATOM      6  C   UNL     1      48.721   5.112  20.286  0.00  0.00    +0.000 A 
ATOM      7  C   UNL     1      48.243   4.305  19.251  0.00  0.00    +0.000 A 
BRANCH   5   8
ATOM      8  C   UNL     1      49.683   7.283  21.143  0.00  0.00    +0.000 C 
BRANCH   8   9
ATOM      9  N   UNL     1      48.993   8.552  21.162  0.00  0.00    +0.000 N 
ATOM     10  C   UNL     1      47.745   8.665  21.738  0.00  0.00    +0.000 C 
ATOM     11  O   UNL     1      47.147   7.726  22.245  0.00  0.00    +0.000 OA
ATOM     12  H   UNL     1      49.538   9.382  20.971  0.00  0.00    +0.000 HD
BRANCH  10  13
ATOM     13  C   UNL     1      47.142  10.025  21.749  0.00  0.00    +0.000 A 
ATOM     14  C   UNL     1      47.809  11.124  21.204  0.00  0.00    +0.000 A 
ATOM     15  C   UNL     1      47.171  12.351  21.242  0.00  0.00    +0.000 A 
ATOM     16  N   UNL     1      45.945  12.545  21.774  0.00  0.00    +0.000 NA
ATOM     17  C   UNL     1      45.315  11.462  22.276  0.00  0.00    +0.000 A 
ATOM     18  C   UNL     1      45.862  10.191  22.281  0.00  0.00    +0.000 A 
ENDBRANCH  10  13
ENDBRANCH   8   9
ENDBRANCH   5   8
ENDBRANCH   1   2
BRANCH   1  19
ATOM     19  N   UNL     1      47.087   4.740  15.773  0.00  0.00    +0.000 N 
ATOM     20  C   UNL     1      46.970   4.349  14.463  0.00  0.00    +0.000 C 
ATOM     21  O   UNL     1      47.245   3.213  14.088  0.00  0.00    +0.000 OA
ATOM     22  H   UNL     1      47.209   5.735  15.934  0.00  0.00    +0.000 HD
BRANCH  20  23
ATOM     23  C   UNL     1      46.366   5.328  13.553  0.00  0.00    +0.000 A 
ATOM     24  C   UNL     1      47.034   6.514  13.279  0.00  0.00    +0.000 A 
ATOM     25  S   UNL     1      46.220   7.515  12.164  0.00  0.00    +0.000 S 
ATOM     26  C   UNL     1      44.923   6.420  12.046  0.00  0.00    +0.000 A 
ATOM     27  N   UNL     1      43.845   6.693  11.263  0.00  0.00    +0.000 NA
ATOM     28  C   UNL     1      42.921   5.792  11.296  0.00  0.00    +0.000 A 
ATOM     29  N   UNL     1      42.983   4.634  12.029  0.00  0.00    +0.000 N 
ATOM     30  C   UNL     1      44.070   4.299  12.802  0.00  0.00    +0.000 A 
ATOM     31  O   UNL     1      44.128   3.229  13.402  0.00  0.00    +0.000 OA
ATOM     32  C   UNL     1      45.122   5.294  12.824  0.00  0.00    +0.000 A 
ATOM     33  H   UNL     1      42.228   3.966  12.001  0.00  0.00    +0.000 HD
ENDBRANCH  20  23
ENDBRANCH   1  19
BRANCH   1  34
ATOM     34  N   UNL     1      46.559   3.078  17.294  0.00  0.00    +0.000 NA
ATOM     35  H   UNL     1      45.832   3.102  16.573  0.00  0.00    +0.000 HD
ATOM     36  H   UNL     1      46.146   3.542  18.097  0.00  0.00    +0.000 HD
ENDBRANCH   1  34
TORSDOF 7
ENDMDL
MODEL 9
REMARK VINA RESULT:    -6.634      2.646      4.190
REMARK INTER + INTRA:         -10.338
REMARK INTER:                  -9.129
REMARK INTRA:                  -1.209
REMARK UNBOUND:                -1.184
REMARK  Name = 
REMARK  7 active torsions:
REMARK  status: ('A' for Active; 'I' for Inactive)
REMARK    1  A    between atoms: N_1  and  C_2
REMARK    2  A    between atoms: C_2  and  N_3
REMARK    3  A    between atoms: C_2  and  C_16
REMARK    4  A    between atoms: C_4  and  C_6
REMARK    5  A    between atoms: C_19  and  C_20
REMARK    6  A    between atoms: C_20  and  N_21
REMARK    7  A    between atoms: C_22  and  C_24
REMARK                            x       y       z     vdW  Elec       q    Type
REMARK                         _______ _______ _______ _____ _____    ______ ____
ROOT
ATOM      1  C   UNL     1      48.768   7.853  14.306  0.00  0.00    +0.000 C 
ENDROOT
BRANCH   1   2
ATOM      2  C   UNL     1      47.836   7.000  13.460  0.00  0.00    +0.000 A 
ATOM      3  C   UNL     1      47.197   5.880  14.007  0.00  0.00    +0.000 A 
ATOM      4  C   UNL     1      46.302   5.120  13.241  0.00  0.00    +0.000 A 
ATOM      5  C   UNL     1      46.038   5.453  11.905  0.00  0.00    +0.000 A 
ATOM      6  C   UNL     1      46.684   6.564  11.351  0.00  0.00    +0.000 A 
ATOM      7  C   UNL     1      47.575   7.321  12.115  0.00  0.00    +0.000 A 
BRANCH   5   8
ATOM      8  C   UNL     1      45.059   4.650  11.085  0.00  0.00    +0.000 C 
BRANCH   8   9
ATOM      9  N   UNL     1      45.680   4.122   9.892  0.00  0.00    +0.000 N 
ATOM     10  C   UNL     1      45.225   2.950   9.324  0.00  0.00    +0.000 C 
ATOM     11  O   UNL     1      44.303   2.289   9.782  0.00  0.00    +0.000 OA
ATOM     12  H   UNL     1      46.272   4.743   9.361  0.00  0.00    +0.000 HD
BRANCH  10  13
ATOM     13  C   UNL     1      45.900   2.518   8.070  0.00  0.00    +0.000 A 
ATOM     14  C   UNL     1      46.026   3.375   6.976  0.00  0.00    +0.000 A 
ATOM     15  C   UNL     1      46.680   2.898   5.854  0.00  0.00    +0.000 A 
ATOM     16  N   UNL     1      47.202   1.658   5.758  0.00  0.00    +0.000 NA
ATOM     17  C   UNL     1      47.085   0.856   6.838  0.00  0.00    +0.000 A 
ATOM     18  C   UNL     1      46.454   1.238   8.009  0.00  0.00    +0.000 A 
ENDBRANCH  10  13
ENDBRANCH   8   9
ENDBRANCH   5   8
ENDBRANCH   1   2
BRANCH   1  19
ATOM     19  N   UNL     1      48.342   7.838  15.677  0.00  0.00    +0.000 N 
ATOM     20  C   UNL     1      49.020   8.467  16.690  0.00  0.00    +0.000 C 
ATOM     21  O   UNL     1      50.001   9.176  16.486  0.00  0.00    +0.000 OA
ATOM     22  H   UNL     1      47.815   7.010  15.937  0.00  0.00    +0.000 HD
BRANCH  20  23
ATOM     23  C   UNL     1      48.424   8.356  18.026  0.00  0.00    +0.000 A 
ATOM     24  C   UNL     1      47.969   9.498  18.671  0.00  0.00    +0.000 A 
ATOM     25  S   UNL     1      47.258   9.187  20.190  0.00  0.00    +0.000 S 
ATOM     26  C   UNL     1      47.579   7.521  20.060  0.00  0.00    +0.000 A 
ATOM     27  N   UNL     1      47.249   6.663  21.062  0.00  0.00    +0.000 NA
ATOM     28  C   UNL     1      47.582   5.435  20.843  0.00  0.00    +0.000 A 
ATOM     29  N   UNL     1      48.202   4.983  19.707  0.00  0.00    +0.000 N 
ATOM     30  C   UNL     1      48.518   5.807  18.652  0.00  0.00    +0.000 A 
ATOM     31  O   UNL     1      49.018   5.369  17.620  0.00  0.00    +0.000 OA
ATOM     32  C   UNL     1      48.192   7.203  18.861  0.00  0.00    +0.000 A 
ATOM     33  H   UNL     1      48.425   4.006  19.596  0.00  0.00    +0.000 HD
ENDBRANCH  20  23
ENDBRANCH   1  19
BRANCH   1  34
ATOM     34  N   UNL     1      48.733   9.233  13.873  0.00  0.00    +0.000 NA
ATOM     35  H   UNL     1      48.951   9.224  12.873  0.00  0.00    +0.000 HD
ATOM     36  H   UNL     1      49.514   9.718  14.306  0.00  0.00    +0.000 HD
ENDBRANCH   1  34
TORSDOF 7
ENDMDL
