MODEL 1
REMARK VINA RESULT:    -8.103      0.000      0.000
REMARK INTER + INTRA:         -11.882
REMARK INTER:                 -10.945
REMARK INTRA:                  -0.937
REMARK UNBOUND:                -0.937
REMARK  Name = 
REMARK  6 active torsions:
REMARK  status: ('A' for Active; 'I' for Inactive)
REMARK    1  A    between atoms: C_2  and  C_25
REMARK    2  A    between atoms: N_3  and  C_4
REMARK    3  A    between atoms: C_4  and  C_5
REMARK    4  A    between atoms: C_8  and  C_9
REMARK    5  A    between atoms: C_9  and  N_10
REMARK    6  A    between atoms: C_11  and  C_13
REMARK                            x       y       z     vdW  Elec       q    Type
REMARK                         _______ _______ _______ _____ _____    ______ ____
ROOT
ATOM      1  C   UNL     1      44.777   5.914  11.211  0.00  0.00    +0.000 A 
ATOM      2  C   UNL     1      44.477   7.268  11.408  0.00  0.00    +0.000 A 
ATOM      3  C   UNL     1      45.274   8.067  12.241  0.00  0.00    +0.000 A 
ATOM      4  C   UNL     1      46.400   7.529  12.882  0.00  0.00    +0.000 A 
ATOM      5  C   UNL     1      46.691   6.172  12.687  0.00  0.00    +0.000 A 
ATOM      6  C   UNL     1      45.900   5.376  11.852  0.00  0.00    +0.000 A 
ENDROOT
BRANCH   1   7
ATOM      7  C   UNL     1      43.923   5.064  10.305  0.00  0.00    +0.000 C 
BRANCH   7  10
ATOM      8  O   UNL     1      44.831   2.420  10.228  0.00  0.00    +0.000 OA
ATOM      9  C   UNL     1      45.089   3.165   9.292  0.00  0.00    +0.000 C 
ATOM     10  N   UNL     1      44.702   4.487   9.236  0.00  0.00    +0.000 N 
ATOM     11  H   UNL     1      44.735   4.982   8.355  0.00  0.00    +0.000 HD
BRANCH   9  12
ATOM     12  C   UNL     1      45.811   2.653   8.095  0.00  0.00    +0.000 A 
ATOM     13  C   UNL     1      46.316   1.347   8.124  0.00  0.00    +0.000 A 
ATOM     14  C   UNL     1      46.956   0.821   7.000  0.00  0.00    +0.000 A 
ATOM     15  C   UNL     1      47.105   1.606   5.857  0.00  0.00    +0.000 A 
ATOM     16 CL   UNL     1      47.873   0.950   4.463  0.00  0.00    +0.000 Cl
ATOM     17  C   UNL     1      46.635   2.920   5.833  0.00  0.00    +0.000 A 
ATOM     18  C   UNL     1      45.990   3.447   6.955  0.00  0.00    +0.000 A 
ENDBRANCH   9  12
ENDBRANCH   7  10
ENDBRANCH   1   7
BRANCH   4  19
ATOM     19  C   UNL     1      47.296   8.371  13.762  0.00  0.00    +0.000 C 
BRANCH  19  20
ATOM     20  N   UNL     1      47.751   7.657  14.927  0.00  0.00    +0.000 N 
ATOM     21  C   UNL     1      48.999   7.080  14.982  0.00  0.00    +0.000 C 
ATOM     22  O   UNL     1      49.793   7.145  14.053  0.00  0.00    +0.000 OA
ATOM     23  H   UNL     1      47.037   7.321  15.564  0.00  0.00    +0.000 HD
BRANCH  21  24
ATOM     24  C   UNL     1      49.352   6.438  16.258  0.00  0.00    +0.000 A 
ATOM     25  C   UNL     1      50.362   6.966  17.048  0.00  0.00    +0.000 A 
ATOM     26  S   UNL     1      50.591   6.127  18.517  0.00  0.00    +0.000 S 
ATOM     27  C   UNL     1      49.390   4.990  18.118  0.00  0.00    +0.000 A 
ATOM     28  N   UNL     1      49.097   3.955  18.952  0.00  0.00    +0.000 NA
ATOM     29  C   UNL     1      48.182   3.157  18.511  0.00  0.00    +0.000 A 
ATOM     30  N   UNL     1      47.523   3.306  17.319  0.00  0.00    +0.000 N 
ATOM     31  C   UNL     1      47.750   4.363  16.471  0.00  0.00    +0.000 A 
ATOM     32  O   UNL     1      47.089   4.510  15.449  0.00  0.00    +0.000 OA
ATOM     33  C   UNL     1      48.796   5.270  16.902  0.00  0.00    +0.000 A 
ATOM     34  H   UNL     1      46.802   2.658  17.041  0.00  0.00    +0.000 HD
ENDBRANCH  21  24
ENDBRANCH  19  20
ENDBRANCH   4  19
TORSDOF 6
ENDMDL
MODEL 2
REMARK VINA RESULT:    -7.980      1.915      2.351
REMARK INTER + INTRA:         -11.715
REMARK INTER:                 -10.923
REMARK INTRA:                  -0.792
REMARK UNBOUND:                -0.937
REMARK  Name = 
REMARK  6 active torsions:
REMARK  status: ('A' for Active; 'I' for Inactive)
REMARK    1  A    between atoms: C_2  and  C_25
REMARK    2  A    between atoms: N_3  and  C_4
REMARK    3  A    between atoms: C_4  and  C_5
REMARK    4  A    between atoms: C_8  and  C_9
REMARK    5  A    between atoms: C_9  and  N_10
REMARK    6  A    between atoms: C_11  and  C_13
REMARK                            x       y       z     vdW  Elec       q    Type
REMARK                         _______ _______ _______ _____ _____    ______ ____
ROOT
ATOM      1  C   UNL     1      45.532   4.419  12.545  0.00  0.00    +0.000 A 
ATOM      2  C   UNL     1      45.427   5.787  12.258  0.00  0.00    +0.000 A 
ATOM      3  C   UNL     1      46.305   6.712  12.839  0.00  0.00    +0.000 A 
ATOM      4  C   UNL     1      47.319   6.286  13.710  0.00  0.00    +0.000 A 
ATOM      5  C   UNL     1      47.415   4.918  14.000  0.00  0.00    +0.000 A 
ATOM      6  C   UNL     1      46.543   3.992  13.415  0.00  0.00    +0.000 A 
ENDROOT
BRANCH   1   7
ATOM      7  C   UNL     1      44.593   3.428  11.907  0.00  0.00    +0.000 C 
BRANCH   7  10
ATOM      8  O   UNL     1      44.121   4.329   9.301  0.00  0.00    +0.000 OA
ATOM      9  C   UNL     1      44.876   3.381   9.476  0.00  0.00    +0.000 C 
ATOM     10  N   UNL     1      45.165   2.851  10.715  0.00  0.00    +0.000 N 
ATOM     11  H   UNL     1      45.961   2.235  10.823  0.00  0.00    +0.000 HD
BRANCH   9  12
ATOM     12  C   UNL     1      45.591   2.763   8.327  0.00  0.00    +0.000 A 
ATOM     13  C   UNL     1      45.781   3.525   7.167  0.00  0.00    +0.000 A 
ATOM     14  C   UNL     1      46.490   2.990   6.089  0.00  0.00    +0.000 A 
ATOM     15  C   UNL     1      46.992   1.691   6.165  0.00  0.00    +0.000 A 
ATOM     16 CL   UNL     1      47.886   1.040   4.847  0.00  0.00    +0.000 Cl
ATOM     17  C   UNL     1      46.777   0.914   7.304  0.00  0.00    +0.000 A 
ATOM     18  C   UNL     1      46.072   1.448   8.386  0.00  0.00    +0.000 A 
ENDBRANCH   9  12
ENDBRANCH   7  10
ENDBRANCH   1   7
BRANCH   4  19
ATOM     19  C   UNL     1      48.301   7.255  14.330  0.00  0.00    +0.000 C 
BRANCH  19  20
ATOM     20  N   UNL     1      48.139   7.366  15.757  0.00  0.00    +0.000 N 
ATOM     21  C   UNL     1      48.979   6.721  16.634  0.00  0.00    +0.000 C 
ATOM     22  O   UNL     1      49.913   6.025  16.256  0.00  0.00    +0.000 OA
ATOM     23  H   UNL     1      47.226   7.658  16.090  0.00  0.00    +0.000 HD
BRANCH  21  24
ATOM     24  C   UNL     1      48.733   6.976  18.061  0.00  0.00    +0.000 A 
ATOM     25  C   UNL     1      48.566   8.274  18.519  0.00  0.00    +0.000 A 
ATOM     26  S   UNL     1      48.230   8.373  20.190  0.00  0.00    +0.000 S 
ATOM     27  C   UNL     1      48.359   6.687  20.371  0.00  0.00    +0.000 A 
ATOM     28  N   UNL     1      48.209   6.097  21.589  0.00  0.00    +0.000 NA
ATOM     29  C   UNL     1      48.357   4.814  21.582  0.00  0.00    +0.000 A 
ATOM     30  N   UNL     1      48.626   4.064  20.467  0.00  0.00    +0.000 N 
ATOM     31  C   UNL     1      48.735   4.610  19.211  0.00  0.00    +0.000 A 
ATOM     32  O   UNL     1      48.900   3.904  18.224  0.00  0.00    +0.000 OA
ATOM     33  C   UNL     1      48.614   6.055  19.168  0.00  0.00    +0.000 A 
ATOM     34  H   UNL     1      48.709   3.060  20.525  0.00  0.00    +0.000 HD
ENDBRANCH  21  24
ENDBRANCH  19  20
ENDBRANCH   4  19
TORSDOF 6
ENDMDL
MODEL 3
REMARK VINA RESULT:    -7.410      1.718      2.172
REMARK INTER + INTRA:         -10.945
REMARK INTER:                 -10.045
REMARK INTRA:                  -0.900
REMARK UNBOUND:                -0.937
REMARK  Name = 
REMARK  6 active torsions:
REMARK  status: ('A' for Active; 'I' for Inactive)
REMARK    1  A    between atoms: C_2  and  C_25
REMARK    2  A    between atoms: N_3  and  C_4
REMARK    3  A    between atoms: C_4  and  C_5
REMARK    4  A    between atoms: C_8  and  C_9
REMARK    5  A    between atoms: C_9  and  N_10
REMARK    6  A    between atoms: C_11  and  C_13
REMARK                            x       y       z     vdW  Elec       q    Type
REMARK                         _______ _______ _______ _____ _____    ______ ____
ROOT
ATOM      1  C   UNL     1      45.225   6.582  11.679  0.00  0.00    +0.000 A 
ATOM      2  C   UNL     1      46.312   5.924  12.271  0.00  0.00    +0.000 A 
ATOM      3  C   UNL     1      47.193   6.614  13.117  0.00  0.00    +0.000 A 
ATOM      4  C   UNL     1      46.996   7.973  13.400  0.00  0.00    +0.000 A 
ATOM      5  C   UNL     1      45.912   8.627  12.799  0.00  0.00    +0.000 A 
ATOM      6  C   UNL     1      45.028   7.939  11.960  0.00  0.00    +0.000 A 
ENDROOT
BRANCH   1   7
ATOM      7  C   UNL     1      44.274   5.832  10.781  0.00  0.00    +0.000 C 
BRANCH   7  10
ATOM      8  O   UNL     1      44.355   3.043  10.582  0.00  0.00    +0.000 OA
ATOM      9  C   UNL     1      44.946   3.717   9.749  0.00  0.00    +0.000 C 
ATOM     10  N   UNL     1      44.981   5.095   9.763  0.00  0.00    +0.000 N 
ATOM     11  H   UNL     1      45.279   5.597   8.936  0.00  0.00    +0.000 HD
BRANCH   9  12
ATOM     12  C   UNL     1      45.636   3.066   8.602  0.00  0.00    +0.000 A 
ATOM     13  C   UNL     1      45.876   1.687   8.659  0.00  0.00    +0.000 A 
ATOM     14  C   UNL     1      46.479   1.038   7.579  0.00  0.00    +0.000 A 
ATOM     15  C   UNL     1      46.856   1.770   6.454  0.00  0.00    +0.000 A 
ATOM     16 CL   UNL     1      47.577   0.967   5.113  0.00  0.00    +0.000 Cl
ATOM     17  C   UNL     1      46.653   3.149   6.404  0.00  0.00    +0.000 A 
ATOM     18  C   UNL     1      46.045   3.801   7.481  0.00  0.00    +0.000 A 
ENDBRANCH   9  12
ENDBRANCH   7  10
ENDBRANCH   1   7
BRANCH   4  19
ATOM     19  C   UNL     1      47.911   8.737  14.331  0.00  0.00    +0.000 C 
BRANCH  19  20
ATOM     20  N   UNL     1      48.251   7.982  15.510  0.00  0.00    +0.000 N 
ATOM     21  C   UNL     1      48.372   8.580  16.742  0.00  0.00    +0.000 C 
ATOM     22  O   UNL     1      48.192   9.779  16.911  0.00  0.00    +0.000 OA
ATOM     23  H   UNL     1      48.702   7.085  15.363  0.00  0.00    +0.000 HD
BRANCH  21  24
ATOM     24  C   UNL     1      48.662   7.677  17.866  0.00  0.00    +0.000 A 
ATOM     25  C   UNL     1      47.984   7.819  19.068  0.00  0.00    +0.000 A 
ATOM     26  S   UNL     1      48.406   6.646  20.235  0.00  0.00    +0.000 S 
ATOM     27  C   UNL     1      49.557   5.947  19.195  0.00  0.00    +0.000 A 
ATOM     28  N   UNL     1      50.317   4.890  19.596  0.00  0.00    +0.000 NA
ATOM     29  C   UNL     1      51.164   4.478  18.713  0.00  0.00    +0.000 A 
ATOM     30  N   UNL     1      51.313   5.014  17.461  0.00  0.00    +0.000 N 
ATOM     31  C   UNL     1      50.534   6.046  16.996  0.00  0.00    +0.000 A 
ATOM     32  O   UNL     1      50.639   6.452  15.845  0.00  0.00    +0.000 OA
ATOM     33  C   UNL     1      49.589   6.572  17.963  0.00  0.00    +0.000 A 
ATOM     34  H   UNL     1      51.981   4.631  16.809  0.00  0.00    +0.000 HD
ENDBRANCH  21  24
ENDBRANCH  19  20
ENDBRANCH   4  19
TORSDOF 6
ENDMDL
MODEL 4
REMARK VINA RESULT:    -7.246      1.935      2.526
REMARK INTER + INTRA:         -10.724
REMARK INTER:                  -9.904
REMARK INTRA:                  -0.820
REMARK UNBOUND:                -0.937
REMARK  Name = 
REMARK  6 active torsions:
REMARK  status: ('A' for Active; 'I' for Inactive)
REMARK    1  A    between atoms: C_2  and  C_25
REMARK    2  A    between atoms: N_3  and  C_4
REMARK    3  A    between atoms: C_4  and  C_5
REMARK    4  A    between atoms: C_8  and  C_9
REMARK    5  A    between atoms: C_9  and  N_10
REMARK    6  A    between atoms: C_11  and  C_13
REMARK                            x       y       z     vdW  Elec       q    Type
REMARK                         _______ _______ _______ _____ _____    ______ ____
ROOT
ATOM      1  C   UNL     1      45.556   6.944  11.861  0.00  0.00    +0.000 A 
ATOM      2  C   UNL     1      46.620   6.155  12.319  0.00  0.00    +0.000 A 
ATOM      3  C   UNL     1      47.515   6.644  13.281  0.00  0.00    +0.000 A 
ATOM      4  C   UNL     1      47.354   7.929  13.819  0.00  0.00    +0.000 A 
ATOM      5  C   UNL     1      46.293   8.717  13.353  0.00  0.00    +0.000 A 
ATOM      6  C   UNL     1      45.396   8.228  12.396  0.00  0.00    +0.000 A 
ENDROOT
BRANCH   1   7
ATOM      7  C   UNL     1      44.591   6.408  10.836  0.00  0.00    +0.000 C 
BRANCH   7  10
ATOM      8  O   UNL     1      43.782   3.772  10.369  0.00  0.00    +0.000 OA
ATOM      9  C   UNL     1      44.750   4.213   9.765  0.00  0.00    +0.000 C 
ATOM     10  N   UNL     1      45.239   5.491   9.930  0.00  0.00    +0.000 N 
ATOM     11  H   UNL     1      45.881   5.874   9.249  0.00  0.00    +0.000 HD
BRANCH   9  12
ATOM     12  C   UNL     1      45.443   3.385   8.741  0.00  0.00    +0.000 A 
ATOM     13  C   UNL     1      45.978   4.021   7.613  0.00  0.00    +0.000 A 
ATOM     14  C   UNL     1      46.676   3.279   6.658  0.00  0.00    +0.000 A 
ATOM     15  C   UNL     1      46.822   1.902   6.821  0.00  0.00    +0.000 A 
ATOM     16 CL   UNL     1      47.702   0.991   5.657  0.00  0.00    +0.000 Cl
ATOM     17  C   UNL     1      46.262   1.256   7.924  0.00  0.00    +0.000 A 
ATOM     18  C   UNL     1      45.568   1.997   8.884  0.00  0.00    +0.000 A 
ENDBRANCH   9  12
ENDBRANCH   7  10
ENDBRANCH   1   7
BRANCH   4  19
ATOM     19  C   UNL     1      48.284   8.474  14.880  0.00  0.00    +0.000 C 
BRANCH  19  20
ATOM     20  N   UNL     1      48.639   7.482  15.863  0.00  0.00    +0.000 N 
ATOM     21  C   UNL     1      49.406   7.793  16.961  0.00  0.00    +0.000 C 
ATOM     22  O   UNL     1      49.825   8.924  17.170  0.00  0.00    +0.000 OA
ATOM     23  H   UNL     1      48.585   6.512  15.572  0.00  0.00    +0.000 HD
BRANCH  21  24
ATOM     24  C   UNL     1      49.637   6.696  17.912  0.00  0.00    +0.000 A 
ATOM     25  C   UNL     1      50.652   5.778  17.687  0.00  0.00    +0.000 A 
ATOM     26  S   UNL     1      50.810   4.613  18.925  0.00  0.00    +0.000 S 
ATOM     27  C   UNL     1      49.484   5.257  19.774  0.00  0.00    +0.000 A 
ATOM     28  N   UNL     1      49.054   4.695  20.938  0.00  0.00    +0.000 NA
ATOM     29  C   UNL     1      48.024   5.273  21.461  0.00  0.00    +0.000 A 
ATOM     30  N   UNL     1      47.392   6.370  20.935  0.00  0.00    +0.000 N 
ATOM     31  C   UNL     1      47.822   6.999  19.793  0.00  0.00    +0.000 A 
ATOM     32  O   UNL     1      47.282   8.024  19.391  0.00  0.00    +0.000 OA
ATOM     33  C   UNL     1      48.955   6.368  19.144  0.00  0.00    +0.000 A 
ATOM     34  H   UNL     1      46.603   6.788  21.405  0.00  0.00    +0.000 HD
ENDBRANCH  21  24
ENDBRANCH  19  20
ENDBRANCH   4  19
TORSDOF 6
ENDMDL
MODEL 5
REMARK VINA RESULT:    -6.872      3.270      3.872
REMARK INTER + INTRA:         -10.219
REMARK INTER:                  -9.340
REMARK INTRA:                  -0.878
REMARK UNBOUND:                -0.937
REMARK  Name = 
REMARK  6 active torsions:
REMARK  status: ('A' for Active; 'I' for Inactive)
REMARK    1  A    between atoms: C_2  and  C_25
REMARK    2  A    between atoms: N_3  and  C_4
REMARK    3  A    between atoms: C_4  and  C_5
REMARK    4  A    between atoms: C_8  and  C_9
REMARK    5  A    between atoms: C_9  and  N_10
REMARK    6  A    between atoms: C_11  and  C_13
REMARK                            x       y       z     vdW  Elec       q    Type
REMARK                         _______ _______ _______ _____ _____    ______ ____
ROOT
ATOM      1  C   UNL     1      46.209   6.074  12.673  0.00  0.00    +0.000 A 
ATOM      2  C   UNL     1      46.454   5.029  13.573  0.00  0.00    +0.000 A 
ATOM      3  C   UNL     1      47.352   5.194  14.637  0.00  0.00    +0.000 A 
ATOM      4  C   UNL     1      48.012   6.416  14.833  0.00  0.00    +0.000 A 
ATOM      5  C   UNL     1      47.769   7.456  13.925  0.00  0.00    +0.000 A 
ATOM      6  C   UNL     1      46.868   7.294  12.866  0.00  0.00    +0.000 A 
ENDROOT
BRANCH   1   7
ATOM      7  C   UNL     1      45.233   5.894  11.538  0.00  0.00    +0.000 C 
BRANCH   7  10
ATOM      8  O   UNL     1      43.644   4.395   9.791  0.00  0.00    +0.000 OA
ATOM      9  C   UNL     1      44.862   4.283   9.733  0.00  0.00    +0.000 C 
ATOM     10  N   UNL     1      45.734   4.964  10.555  0.00  0.00    +0.000 N 
ATOM     11  H   UNL     1      46.715   5.015  10.312  0.00  0.00    +0.000 HD
BRANCH   9  12
ATOM     12  C   UNL     1      45.493   3.420   8.698  0.00  0.00    +0.000 A 
ATOM     13  C   UNL     1      45.973   4.018   7.527  0.00  0.00    +0.000 A 
ATOM     14  C   UNL     1      46.613   3.243   6.557  0.00  0.00    +0.000 A 
ATOM     15  C   UNL     1      46.755   1.869   6.752  0.00  0.00    +0.000 A 
ATOM     16 CL   UNL     1      47.565   0.917   5.570  0.00  0.00    +0.000 Cl
ATOM     17  C   UNL     1      46.248   1.260   7.901  0.00  0.00    +0.000 A 
ATOM     18  C   UNL     1      45.612   2.034   8.874  0.00  0.00    +0.000 A 
ENDBRANCH   9  12
ENDBRANCH   7  10
ENDBRANCH   1   7
BRANCH   4  19
ATOM     19  C   UNL     1      48.963   6.636  15.988  0.00  0.00    +0.000 C 
BRANCH  19  20
ATOM     20  N   UNL     1      48.400   7.478  17.012  0.00  0.00    +0.000 N 
ATOM     21  C   UNL     1      48.842   8.765  17.215  0.00  0.00    +0.000 C 
ATOM     22  O   UNL     1      49.728   9.269  16.538  0.00  0.00    +0.000 OA
ATOM     23  H   UNL     1      47.910   7.012  17.768  0.00  0.00    +0.000 HD
BRANCH  21  24
ATOM     24  C   UNL     1      48.133   9.528  18.253  0.00  0.00    +0.000 A 
ATOM     25  C   UNL     1      47.767  10.846  18.022  0.00  0.00    +0.000 A 
ATOM     26  S   UNL     1      46.900  11.552  19.312  0.00  0.00    +0.000 S 
ATOM     27  C   UNL     1      47.040  10.140  20.250  0.00  0.00    +0.000 A 
ATOM     28  N   UNL     1      46.528  10.080  21.511  0.00  0.00    +0.000 NA
ATOM     29  C   UNL     1      46.727   8.956  22.114  0.00  0.00    +0.000 A 
ATOM     30  N   UNL     1      47.379   7.881  21.569  0.00  0.00    +0.000 N 
ATOM     31  C   UNL     1      47.866   7.879  20.285  0.00  0.00    +0.000 A 
ATOM     32  O   UNL     1      48.376   6.876  19.801  0.00  0.00    +0.000 OA
ATOM     33  C   UNL     1      47.701   9.132  19.574  0.00  0.00    +0.000 A 
ATOM     34  H   UNL     1      47.484   7.021  22.087  0.00  0.00    +0.000 HD
ENDBRANCH  21  24
ENDBRANCH  19  20
ENDBRANCH   4  19
TORSDOF 6
ENDMDL
MODEL 6
REMARK VINA RESULT:    -6.730      5.169      7.684
REMARK INTER + INTRA:         -10.027
REMARK INTER:                  -9.156
REMARK INTRA:                  -0.871
REMARK UNBOUND:                -0.937
REMARK  Name = 
REMARK  6 active torsions:
REMARK  status: ('A' for Active; 'I' for Inactive)
REMARK    1  A    between atoms: C_2  and  C_25
REMARK    2  A    between atoms: N_3  and  C_4
REMARK    3  A    between atoms: C_4  and  C_5
REMARK    4  A    between atoms: C_8  and  C_9
REMARK    5  A    between atoms: C_9  and  N_10
REMARK    6  A    between atoms: C_11  and  C_13
REMARK                            x       y       z     vdW  Elec       q    Type
REMARK                         _______ _______ _______ _____ _____    ______ ____
ROOT
ATOM      1  C   UNL     1      50.333   8.867  11.495  0.00  0.00    +0.000 A 
ATOM      2  C   UNL     1      49.912   7.586  11.879  0.00  0.00    +0.000 A 
ATOM      3  C   UNL     1      48.625   7.378  12.396  0.00  0.00    +0.000 A 
ATOM      4  C   UNL     1      47.725   8.447  12.525  0.00  0.00    +0.000 A 
ATOM      5  C   UNL     1      48.154   9.727  12.147  0.00  0.00    +0.000 A 
ATOM      6  C   UNL     1      49.436   9.934  11.625  0.00  0.00    +0.000 A 
ENDROOT
BRANCH   1   7
ATOM      7  C   UNL     1      51.712   9.081  10.929  0.00  0.00    +0.000 C 
BRANCH   7  10
ATOM      8  O   UNL     1      53.660   9.115   8.921  0.00  0.00    +0.000 OA
ATOM      9  C   UNL     1      53.144   8.049   9.232  0.00  0.00    +0.000 C 
ATOM     10  N   UNL     1      52.167   7.924  10.197  0.00  0.00    +0.000 N 
ATOM     11  H   UNL     1      51.949   7.010  10.573  0.00  0.00    +0.000 HD
BRANCH   9  12
ATOM     12  C   UNL     1      53.598   6.778   8.605  0.00  0.00    +0.000 A 
ATOM     13  C   UNL     1      52.796   6.194   7.617  0.00  0.00    +0.000 A 
ATOM     14  C   UNL     1      53.217   5.027   6.975  0.00  0.00    +0.000 A 
ATOM     15  C   UNL     1      54.429   4.437   7.335  0.00  0.00    +0.000 A 
ATOM     16 CL   UNL     1      54.960   3.013   6.528  0.00  0.00    +0.000 Cl
ATOM     17  C   UNL     1      55.217   4.994   8.342  0.00  0.00    +0.000 A 
ATOM     18  C   UNL     1      54.800   6.165   8.982  0.00  0.00    +0.000 A 
ENDBRANCH   9  12
ENDBRANCH   7  10
ENDBRANCH   1   7
BRANCH   4  19
ATOM     19  C   UNL     1      46.321   8.251  13.050  0.00  0.00    +0.000 C 
BRANCH  19  20
ATOM     20  N   UNL     1      45.811   6.931  12.778  0.00  0.00    +0.000 N 
ATOM     21  C   UNL     1      44.931   6.693  11.749  0.00  0.00    +0.000 C 
ATOM     22  O   UNL     1      44.538   7.581  11.003  0.00  0.00    +0.000 OA
ATOM     23  H   UNL     1      45.859   6.258  13.536  0.00  0.00    +0.000 HD
BRANCH  21  24
ATOM     24  C   UNL     1      44.544   5.288  11.549  0.00  0.00    +0.000 A 
ATOM     25  C   UNL     1      43.816   4.620  12.523  0.00  0.00    +0.000 A 
ATOM     26  S   UNL     1      43.406   3.020  12.093  0.00  0.00    +0.000 S 
ATOM     27  C   UNL     1      44.242   3.144  10.617  0.00  0.00    +0.000 A 
ATOM     28  N   UNL     1      44.314   2.089   9.759  0.00  0.00    +0.000 NA
ATOM     29  C   UNL     1      44.999   2.318   8.689  0.00  0.00    +0.000 A 
ATOM     30  N   UNL     1      45.609   3.509   8.390  0.00  0.00    +0.000 N 
ATOM     31  C   UNL     1      45.520   4.613   9.201  0.00  0.00    +0.000 A 
ATOM     32  O   UNL     1      46.011   5.686   8.870  0.00  0.00    +0.000 OA
ATOM     33  C   UNL     1      44.791   4.399  10.436  0.00  0.00    +0.000 A 
ATOM     34  H   UNL     1      46.114   3.630   7.525  0.00  0.00    +0.000 HD
ENDBRANCH  21  24
ENDBRANCH  19  20
ENDBRANCH   4  19
TORSDOF 6
ENDMDL
MODEL 7
REMARK VINA RESULT:    -6.549      3.081      4.645
REMARK INTER + INTRA:          -9.783
REMARK INTER:                  -8.839
REMARK INTRA:                  -0.944
REMARK UNBOUND:                -0.937
REMARK  Name = 
REMARK  6 active torsions:
REMARK  status: ('A' for Active; 'I' for Inactive)
REMARK    1  A    between atoms: C_2  and  C_25
REMARK    2  A    between atoms: N_3  and  C_4
REMARK    3  A    between atoms: C_4  and  C_5
REMARK    4  A    between atoms: C_8  and  C_9
REMARK    5  A    between atoms: C_9  and  N_10
REMARK    6  A    between atoms: C_11  and  C_13
REMARK                            x       y       z     vdW  Elec       q    Type
REMARK                         _______ _______ _______ _____ _____    ______ ____
ROOT
ATOM      1  C   UNL     1      48.469   8.231  13.733  0.00  0.00    +0.000 A 
ATOM      2  C   UNL     1      48.042   9.192  14.659  0.00  0.00    +0.000 A 
ATOM      3  C   UNL     1      48.356   9.068  16.020  0.00  0.00    +0.000 A 
ATOM      4  C   UNL     1      49.121   7.986  16.481  0.00  0.00    +0.000 A 
ATOM      5  C   UNL     1      49.540   7.024  15.552  0.00  0.00    +0.000 A 
ATOM      6  C   UNL     1      49.231   7.149  14.193  0.00  0.00    +0.000 A 
ENDROOT
BRANCH   1   7
ATOM      7  C   UNL     1      48.138   8.377  12.271  0.00  0.00    +0.000 C 
BRANCH   7  10
ATOM      8  O   UNL     1      45.463   7.595  12.512  0.00  0.00    +0.000 OA
ATOM      9  C   UNL     1      46.240   6.876  11.899  0.00  0.00    +0.000 C 
ATOM     10  N   UNL     1      47.579   7.160  11.733  0.00  0.00    +0.000 N 
ATOM     11  H   UNL     1      48.113   6.663  11.032  0.00  0.00    +0.000 HD
BRANCH   9  12
ATOM     12  C   UNL     1      45.755   5.640  11.227  0.00  0.00    +0.000 A 
ATOM     13  C   UNL     1      45.747   5.596   9.827  0.00  0.00    +0.000 A 
ATOM     14  C   UNL     1      45.343   4.434   9.166  0.00  0.00    +0.000 A 
ATOM     15  C   UNL     1      44.932   3.325   9.905  0.00  0.00    +0.000 A 
ATOM     16 CL   UNL     1      44.456   1.885   9.092  0.00  0.00    +0.000 Cl
ATOM     17  C   UNL     1      44.904   3.372  11.299  0.00  0.00    +0.000 A 
ATOM     18  C   UNL     1      45.313   4.532  11.963  0.00  0.00    +0.000 A 
ENDBRANCH   9  12
ENDBRANCH   7  10
ENDBRANCH   1   7
BRANCH   4  19
ATOM     19  C   UNL     1      49.503   7.840  17.937  0.00  0.00    +0.000 C 
BRANCH  19  20
ATOM     20  N   UNL     1      50.503   6.824  18.145  0.00  0.00    +0.000 N 
ATOM     21  C   UNL     1      50.224   5.662  18.826  0.00  0.00    +0.000 C 
ATOM     22  O   UNL     1      49.116   5.421  19.286  0.00  0.00    +0.000 OA
ATOM     23  H   UNL     1      51.472   7.114  18.063  0.00  0.00    +0.000 HD
BRANCH  21  24
ATOM     24  C   UNL     1      51.324   4.688  18.906  0.00  0.00    +0.000 A 
ATOM     25  C   UNL     1      52.449   4.968  19.667  0.00  0.00    +0.000 A 
ATOM     26  S   UNL     1      53.591   3.699  19.692  0.00  0.00    +0.000 S 
ATOM     27  C   UNL     1      52.649   2.757  18.634  0.00  0.00    +0.000 A 
ATOM     28  N   UNL     1      53.074   1.534  18.214  0.00  0.00    +0.000 NA
ATOM     29  C   UNL     1      52.269   0.942  17.395  0.00  0.00    +0.000 A 
ATOM     30  N   UNL     1      51.072   1.453  16.969  0.00  0.00    +0.000 N 
ATOM     31  C   UNL     1      50.580   2.659  17.406  0.00  0.00    +0.000 A 
ATOM     32  O   UNL     1      49.471   3.053  17.066  0.00  0.00    +0.000 OA
ATOM     33  C   UNL     1      51.463   3.383  18.300  0.00  0.00    +0.000 A 
ATOM     34  H   UNL     1      50.478   0.930  16.344  0.00  0.00    +0.000 HD
ENDBRANCH  21  24
ENDBRANCH  19  20
ENDBRANCH   4  19
TORSDOF 6
ENDMDL
MODEL 8
REMARK VINA RESULT:    -6.408      1.723      2.457
REMARK INTER + INTRA:          -9.593
REMARK INTER:                  -8.505
REMARK INTRA:                  -1.088
REMARK UNBOUND:                -0.937
REMARK  Name = 
REMARK  6 active torsions:
REMARK  status: ('A' for Active; 'I' for Inactive)
REMARK    1  A    between atoms: C_2  and  C_25
REMARK    2  A    between atoms: N_3  and  C_4
REMARK    3  A    between atoms: C_4  and  C_5
REMARK    4  A    between atoms: C_8  and  C_9
REMARK    5  A    between atoms: C_9  and  N_10
REMARK    6  A    between atoms: C_11  and  C_13
REMARK                            x       y       z     vdW  Elec       q    Type
REMARK                         _______ _______ _______ _____ _____    ______ ____
ROOT
ATOM      1  C   UNL     1      46.414   7.162  12.956  0.00  0.00    +0.000 A 
ATOM      2  C   UNL     1      46.532   8.524  13.264  0.00  0.00    +0.000 A 
ATOM      3  C   UNL     1      47.614   8.998  14.019  0.00  0.00    +0.000 A 
ATOM      4  C   UNL     1      48.611   8.120  14.469  0.00  0.00    +0.000 A 
ATOM      5  C   UNL     1      48.485   6.757  14.165  0.00  0.00    +0.000 A 
ATOM      6  C   UNL     1      47.408   6.284  13.406  0.00  0.00    +0.000 A 
ENDROOT
BRANCH   1   7
ATOM      7  C   UNL     1      45.255   6.661  12.133  0.00  0.00    +0.000 C 
BRANCH   7  10
ATOM      8  O   UNL     1      43.894   4.399  11.209  0.00  0.00    +0.000 OA
ATOM      9  C   UNL     1      44.946   4.720  10.673  0.00  0.00    +0.000 C 
ATOM     10  N   UNL     1      45.701   5.807  11.059  0.00  0.00    +0.000 N 
ATOM     11  H   UNL     1      46.423   6.159  10.444  0.00  0.00    +0.000 HD
BRANCH   9  12
ATOM     12  C   UNL     1      45.458   3.964   9.498  0.00  0.00    +0.000 A 
ATOM     13  C   UNL     1      45.367   2.567   9.508  0.00  0.00    +0.000 A 
ATOM     14  C   UNL     1      45.795   1.831   8.401  0.00  0.00    +0.000 A 
ATOM     15  C   UNL     1      46.327   2.491   7.294  0.00  0.00    +0.000 A 
ATOM     16 CL   UNL     1      46.832   1.587   5.919  0.00  0.00    +0.000 Cl
ATOM     17  C   UNL     1      46.453   3.881   7.290  0.00  0.00    +0.000 A 
ATOM     18  C   UNL     1      46.021   4.620   8.395  0.00  0.00    +0.000 A 
ENDBRANCH   9  12
ENDBRANCH   7  10
ENDBRANCH   1   7
BRANCH   4  19
ATOM     19  C   UNL     1      49.806   8.604  15.260  0.00  0.00    +0.000 C 
BRANCH  19  20
ATOM     20  N   UNL     1      49.889   7.992  16.561  0.00  0.00    +0.000 N 
ATOM     21  C   UNL     1      50.881   7.092  16.876  0.00  0.00    +0.000 C 
ATOM     22  O   UNL     1      51.748   6.765  16.077  0.00  0.00    +0.000 OA
ATOM     23  H   UNL     1      49.043   7.991  17.120  0.00  0.00    +0.000 HD
BRANCH  21  24
ATOM     24  C   UNL     1      50.879   6.596  18.261  0.00  0.00    +0.000 A 
ATOM     25  C   UNL     1      51.944   6.879  19.104  0.00  0.00    +0.000 A 
ATOM     26  S   UNL     1      51.741   6.275  20.688  0.00  0.00    +0.000 S 
ATOM     27  C   UNL     1      50.251   5.561  20.284  0.00  0.00    +0.000 A 
ATOM     28  N   UNL     1      49.544   4.844  21.200  0.00  0.00    +0.000 NA
ATOM     29  C   UNL     1      48.444   4.339  20.748  0.00  0.00    +0.000 A 
ATOM     30  N   UNL     1      47.979   4.497  19.469  0.00  0.00    +0.000 N 
ATOM     31  C   UNL     1      48.633   5.253  18.528  0.00  0.00    +0.000 A 
ATOM     32  O   UNL     1      48.152   5.438  17.416  0.00  0.00    +0.000 OA
ATOM     33  C   UNL     1      49.895   5.813  18.973  0.00  0.00    +0.000 A 
ATOM     34  H   UNL     1      47.099   4.094  19.184  0.00  0.00    +0.000 HD
ENDBRANCH  21  24
ENDBRANCH  19  20
ENDBRANCH   4  19
TORSDOF 6
ENDMDL
MODEL 9
REMARK VINA RESULT:    -6.284      5.249      7.957
REMARK INTER + INTRA:          -9.425
REMARK INTER:                  -8.435
REMARK INTRA:                  -0.989
REMARK UNBOUND:                -0.937
REMARK  Name = 
REMARK  6 active torsions:
REMARK  status: ('A' for Active; 'I' for Inactive)
REMARK    1  A    between atoms: C_2  and  C_25
REMARK    2  A    between atoms: N_3  and  C_4
REMARK    3  A    between atoms: C_4  and  C_5
REMARK    4  A    between atoms: C_8  and  C_9
REMARK    5  A    between atoms: C_9  and  N_10
REMARK    6  A    between atoms: C_11  and  C_13
REMARK                            x       y       z     vdW  Elec       q    Type
REMARK                         _______ _______ _______ _____ _____    ______ ____
ROOT
ATOM      1  C   UNL     1      50.494   8.715  12.346  0.00  0.00    +0.000 A 
ATOM      2  C   UNL     1      49.979   7.629  13.067  0.00  0.00    +0.000 A 
ATOM      3  C   UNL     1      48.595   7.461  13.221  0.00  0.00    +0.000 A 
ATOM      4  C   UNL     1      47.696   8.368  12.642  0.00  0.00    +0.000 A 
ATOM      5  C   UNL     1      48.216   9.456  11.928  0.00  0.00    +0.000 A 
ATOM      6  C   UNL     1      49.597   9.622  11.769  0.00  0.00    +0.000 A 
ENDROOT
BRANCH   1   7
ATOM      7  C   UNL     1      51.981   8.883  12.174  0.00  0.00    +0.000 C 
BRANCH   7  10
ATOM      8  O   UNL     1      52.385   6.794  10.358  0.00  0.00    +0.000 OA
ATOM      9  C   UNL     1      52.500   7.949   9.971  0.00  0.00    +0.000 C 
ATOM     10  N   UNL     1      52.335   9.050  10.785  0.00  0.00    +0.000 N 
ATOM     11  H   UNL     1      52.210   9.964  10.372  0.00  0.00    +0.000 HD
BRANCH   9  12
ATOM     12  C   UNL     1      52.777   8.243   8.538  0.00  0.00    +0.000 A 
ATOM     13  C   UNL     1      52.911   9.579   8.141  0.00  0.00    +0.000 A 
ATOM     14  C   UNL     1      53.217   9.885   6.813  0.00  0.00    +0.000 A 
ATOM     15  C   UNL     1      53.372   8.858   5.883  0.00  0.00    +0.000 A 
ATOM     16 CL   UNL     1      53.774   9.233   4.253  0.00  0.00    +0.000 Cl
ATOM     17  C   UNL     1      53.206   7.526   6.264  0.00  0.00    +0.000 A 
ATOM     18  C   UNL     1      52.904   7.216   7.593  0.00  0.00    +0.000 A 
ENDBRANCH   9  12
ENDBRANCH   7  10
ENDBRANCH   1   7
BRANCH   4  19
ATOM     19  C   UNL     1      46.198   8.197  12.764  0.00  0.00    +0.000 C 
BRANCH  19  20
ATOM     20  N   UNL     1      45.773   6.851  12.481  0.00  0.00    +0.000 N 
ATOM     21  C   UNL     1      44.670   6.588  11.702  0.00  0.00    +0.000 C 
ATOM     22  O   UNL     1      43.994   7.478  11.202  0.00  0.00    +0.000 OA
ATOM     23  H   UNL     1      46.100   6.127  13.112  0.00  0.00    +0.000 HD
BRANCH  21  24
ATOM     24  C   UNL     1      44.391   5.168  11.446  0.00  0.00    +0.000 A 
ATOM     25  C   UNL     1      43.650   4.427  12.354  0.00  0.00    +0.000 A 
ATOM     26  S   UNL     1      43.375   2.815  11.861  0.00  0.00    +0.000 S 
ATOM     27  C   UNL     1      44.291   3.035  10.446  0.00  0.00    +0.000 A 
ATOM     28  N   UNL     1      44.487   2.011   9.569  0.00  0.00    +0.000 NA
ATOM     29  C   UNL     1      45.222   2.314   8.551  0.00  0.00    +0.000 A 
ATOM     30  N   UNL     1      45.768   3.549   8.321  0.00  0.00    +0.000 N 
ATOM     31  C   UNL     1      45.555   4.623   9.150  0.00  0.00    +0.000 A 
ATOM     32  O   UNL     1      45.994   5.734   8.876  0.00  0.00    +0.000 OA
ATOM     33  C   UNL     1      44.766   4.328  10.330  0.00  0.00    +0.000 A 
ATOM     34  H   UNL     1      46.317   3.727   7.493  0.00  0.00    +0.000 HD
ENDBRANCH  21  24
ENDBRANCH  19  20
ENDBRANCH   4  19
TORSDOF 6
ENDMDL
