MODEL 1
REMARK VINA RESULT:    -7.763      0.000      0.000
REMARK INTER + INTRA:         -11.560
REMARK INTER:                 -10.486
REMARK INTRA:                  -1.075
REMARK UNBOUND:                -1.075
REMARK  Name = 
REMARK  9 active torsions:
REMARK  status: ('A' for Active; 'I' for Inactive)
REMARK    1  A    between atoms: C_1  and  C_2
REMARK    2  A    between atoms: C_3  and  C_4
REMARK    3  A    between atoms: N_6  and  C_7
REMARK    4  A    between atoms: C_7  and  C_8
REMARK    5  A    between atoms: C_11  and  N_12
REMARK    6  A    between atoms: N_12  and  C_13
REMARK    7  A    between atoms: N_12  and  C_14
REMARK    8  A    between atoms: C_14  and  C_15
REMARK    9  A    between atoms: N_29  and  C_30
REMARK                            x       y       z     vdW  Elec       q    Type
REMARK                         _______ _______ _______ _____ _____    ______ ____
ROOT
ATOM      1  C   UNL     1      47.284   7.732  13.112  0.00  0.00    +0.000 C 
ENDROOT
BRANCH   1   2
ATOM      2  C   UNL     1      46.389   6.708  12.470  0.00  0.00    +0.000 A 
ATOM      3  C   UNL     1      45.814   5.691  13.227  0.00  0.00    +0.000 A 
ATOM      4  C   UNL     1      45.111   4.644  12.606  0.00  0.00    +0.000 A 
ATOM      5  C   UNL     1      44.940   4.561  11.211  0.00  0.00    +0.000 A 
ATOM      6  C   UNL     1      45.477   5.640  10.486  0.00  0.00    +0.000 A 
ATOM      7  C   UNL     1      46.193   6.688  11.091  0.00  0.00    +0.000 A 
BRANCH   5   8
ATOM      8  N   UNL     1      44.292   3.494  10.597  0.00  0.00    +0.000 N 
ATOM      9  C   UNL     1      43.549   2.496  11.368  0.00  0.00    +0.000 C 
BRANCH   8  10
ATOM     10  C   UNL     1      44.349   3.247   9.145  0.00  0.00    +0.000 C 
BRANCH  10  11
ATOM     11  C   UNL     1      45.724   2.754   8.636  0.00  0.00    +0.000 C 
ATOM     12  C   UNL     1      46.227   3.482   7.381  0.00  0.00    +0.000 C 
ATOM     13  C   UNL     1      47.463   2.803   6.798  0.00  0.00    +0.000 C 
ATOM     14  O   UNL     1      47.204   1.428   6.520  0.00  0.00    +0.000 OA
ATOM     15  C   UNL     1      46.898   0.699   7.705  0.00  0.00    +0.000 C 
ATOM     16  C   UNL     1      45.631   1.241   8.351  0.00  0.00    +0.000 C 
ENDBRANCH  10  11
ENDBRANCH   8  10
ENDBRANCH   5   8
ENDBRANCH   1   2
BRANCH   1  19
ATOM     17  C   UNL     1      48.858   6.918  14.809  0.00  0.00    +0.000 C 
ATOM     18  O   UNL     1      49.775   6.897  13.999  0.00  0.00    +0.000 OA
ATOM     19  N   UNL     1      47.591   7.333  14.467  0.00  0.00    +0.000 N 
ATOM     20  H   UNL     1      46.830   7.101  15.087  0.00  0.00    +0.000 HD
BRANCH  17  23
ATOM     21  C   UNL     1      50.592   8.253  17.310  0.00  0.00    +0.000 C 
ATOM     22  C   UNL     1      49.760   7.014  17.232  0.00  0.00    +0.000 A 
ATOM     23  C   UNL     1      49.029   6.445  16.187  0.00  0.00    +0.000 A 
ATOM     24  C   UNL     1      48.484   5.210  16.685  0.00  0.00    +0.000 A 
ATOM     25  C   UNL     1      47.674   4.213  16.116  0.00  0.00    +0.000 A 
ATOM     26  N   UNL     1      47.287   3.132  16.840  0.00  0.00    +0.000 NA
ATOM     27  C   UNL     1      47.704   3.025  18.117  0.00  0.00    +0.000 A 
ATOM     28  C   UNL     1      48.506   3.948  18.765  0.00  0.00    +0.000 A 
ATOM     29  C   UNL     1      48.887   5.065  18.012  0.00  0.00    +0.000 A 
ATOM     30  N   UNL     1      49.666   6.156  18.319  0.00  0.00    +0.000 N 
ATOM     31  C   UNL     1      50.338   6.366  19.587  0.00  0.00    +0.000 C 
ENDBRANCH  17  23
ENDBRANCH   1  19
TORSDOF 6
ENDMDL
MODEL 2
REMARK VINA RESULT:    -7.597      1.568      2.485
REMARK INTER + INTRA:         -11.337
REMARK INTER:                 -10.345
REMARK INTRA:                  -0.992
REMARK UNBOUND:                -1.075
REMARK  Name = 
REMARK  9 active torsions:
REMARK  status: ('A' for Active; 'I' for Inactive)
REMARK    1  A    between atoms: C_1  and  C_2
REMARK    2  A    between atoms: C_3  and  C_4
REMARK    3  A    between atoms: N_6  and  C_7
REMARK    4  A    between atoms: C_7  and  C_8
REMARK    5  A    between atoms: C_11  and  N_12
REMARK    6  A    between atoms: N_12  and  C_13
REMARK    7  A    between atoms: N_12  and  C_14
REMARK    8  A    between atoms: C_14  and  C_15
REMARK    9  A    between atoms: N_29  and  C_30
REMARK                            x       y       z     vdW  Elec       q    Type
REMARK                         _______ _______ _______ _____ _____    ______ ____
ROOT
ATOM      1  C   UNL     1      48.245   6.903  13.802  0.00  0.00    +0.000 C 
ENDROOT
BRANCH   1   2
ATOM      2  C   UNL     1      47.123   6.208  13.082  0.00  0.00    +0.000 A 
ATOM      3  C   UNL     1      46.615   5.000  13.554  0.00  0.00    +0.000 A 
ATOM      4  C   UNL     1      45.681   4.271  12.798  0.00  0.00    +0.000 A 
ATOM      5  C   UNL     1      45.203   4.707  11.547  0.00  0.00    +0.000 A 
ATOM      6  C   UNL     1      45.688   5.961  11.136  0.00  0.00    +0.000 A 
ATOM      7  C   UNL     1      46.632   6.696  11.874  0.00  0.00    +0.000 A 
BRANCH   5   8
ATOM      8  N   UNL     1      44.322   3.954  10.778  0.00  0.00    +0.000 N 
ATOM      9  C   UNL     1      43.291   3.112  11.386  0.00  0.00    +0.000 C 
BRANCH   8  10
ATOM     10  C   UNL     1      44.390   3.893   9.306  0.00  0.00    +0.000 C 
BRANCH  10  11
ATOM     11  C   UNL     1      45.681   3.242   8.755  0.00  0.00    +0.000 C 
ATOM     12  C   UNL     1      46.171   3.845   7.430  0.00  0.00    +0.000 C 
ATOM     13  C   UNL     1      47.303   3.019   6.824  0.00  0.00    +0.000 C 
ATOM     14  O   UNL     1      46.903   1.661   6.649  0.00  0.00    +0.000 OA
ATOM     15  C   UNL     1      46.604   1.034   7.893  0.00  0.00    +0.000 C 
ATOM     16  C   UNL     1      45.433   1.731   8.572  0.00  0.00    +0.000 C 
ENDBRANCH  10  11
ENDBRANCH   8  10
ENDBRANCH   5   8
ENDBRANCH   1   2
BRANCH   1  19
ATOM     17  C   UNL     1      49.218   6.533  16.024  0.00  0.00    +0.000 C 
ATOM     18  O   UNL     1      50.354   6.569  15.570  0.00  0.00    +0.000 OA
ATOM     19  N   UNL     1      48.109   6.706  15.228  0.00  0.00    +0.000 N 
ATOM     20  H   UNL     1      47.211   6.425  15.594  0.00  0.00    +0.000 HD
BRANCH  17  23
ATOM     21  C   UNL     1      49.583   3.694  17.711  0.00  0.00    +0.000 C 
ATOM     22  C   UNL     1      49.114   5.046  18.139  0.00  0.00    +0.000 A 
ATOM     23  C   UNL     1      48.956   6.244  17.438  0.00  0.00    +0.000 A 
ATOM     24  C   UNL     1      48.403   7.197  18.362  0.00  0.00    +0.000 A 
ATOM     25  C   UNL     1      48.032   8.548  18.252  0.00  0.00    +0.000 A 
ATOM     26  N   UNL     1      47.537   9.225  19.319  0.00  0.00    +0.000 NA
ATOM     27  C   UNL     1      47.395   8.573  20.490  0.00  0.00    +0.000 A 
ATOM     28  C   UNL     1      47.724   7.245  20.698  0.00  0.00    +0.000 A 
ATOM     29  C   UNL     1      48.247   6.561  19.594  0.00  0.00    +0.000 A 
ATOM     30  N   UNL     1      48.668   5.262  19.435  0.00  0.00    +0.000 N 
ATOM     31  C   UNL     1      48.617   4.240  20.463  0.00  0.00    +0.000 C 
ENDBRANCH  17  23
ENDBRANCH   1  19
TORSDOF 6
ENDMDL
MODEL 3
REMARK VINA RESULT:    -7.186      1.904      2.404
REMARK INTER + INTRA:         -10.781
REMARK INTER:                  -9.826
REMARK INTRA:                  -0.955
REMARK UNBOUND:                -1.075
REMARK  Name = 
REMARK  9 active torsions:
REMARK  status: ('A' for Active; 'I' for Inactive)
REMARK    1  A    between atoms: C_1  and  C_2
REMARK    2  A    between atoms: C_3  and  C_4
REMARK    3  A    between atoms: N_6  and  C_7
REMARK    4  A    between atoms: C_7  and  C_8
REMARK    5  A    between atoms: C_11  and  N_12
REMARK    6  A    between atoms: N_12  and  C_13
REMARK    7  A    between atoms: N_12  and  C_14
REMARK    8  A    between atoms: C_14  and  C_15
REMARK    9  A    between atoms: N_29  and  C_30
REMARK                            x       y       z     vdW  Elec       q    Type
REMARK                         _______ _______ _______ _____ _____    ______ ____
ROOT
ATOM      1  C   UNL     1      48.682   6.942  14.092  0.00  0.00    +0.000 C 
ENDROOT
BRANCH   1   2
ATOM      2  C   UNL     1      47.583   6.329  13.269  0.00  0.00    +0.000 A 
ATOM      3  C   UNL     1      47.178   6.915  12.073  0.00  0.00    +0.000 A 
ATOM      4  C   UNL     1      46.049   6.437  11.387  0.00  0.00    +0.000 A 
ATOM      5  C   UNL     1      45.275   5.356  11.848  0.00  0.00    +0.000 A 
ATOM      6  C   UNL     1      45.753   4.748  13.022  0.00  0.00    +0.000 A 
ATOM      7  C   UNL     1      46.874   5.221  13.727  0.00  0.00    +0.000 A 
BRANCH   5   8
ATOM      8  N   UNL     1      44.125   4.923  11.194  0.00  0.00    +0.000 N 
ATOM      9  C   UNL     1      42.870   5.673  11.262  0.00  0.00    +0.000 C 
BRANCH   8  10
ATOM     10  C   UNL     1      44.058   3.659  10.439  0.00  0.00    +0.000 C 
BRANCH  10  11
ATOM     11  C   UNL     1      45.299   3.375   9.560  0.00  0.00    +0.000 C 
ATOM     12  C   UNL     1      45.461   4.336   8.374  0.00  0.00    +0.000 C 
ATOM     13  C   UNL     1      46.559   3.871   7.422  0.00  0.00    +0.000 C 
ATOM     14  O   UNL     1      46.310   2.541   6.970  0.00  0.00    +0.000 OA
ATOM     15  C   UNL     1      46.323   1.607   8.046  0.00  0.00    +0.000 C 
ATOM     16  C   UNL     1      45.216   1.926   9.040  0.00  0.00    +0.000 C 
ENDBRANCH  10  11
ENDBRANCH   8  10
ENDBRANCH   5   8
ENDBRANCH   1   2
BRANCH   1  19
ATOM     17  C   UNL     1      48.944   7.820  16.368  0.00  0.00    +0.000 C 
ATOM     18  O   UNL     1      49.878   8.531  16.023  0.00  0.00    +0.000 OA
ATOM     19  N   UNL     1      48.276   7.010  15.478  0.00  0.00    +0.000 N 
ATOM     20  H   UNL     1      47.693   6.274  15.848  0.00  0.00    +0.000 HD
BRANCH  17  23
ATOM     21  C   UNL     1      47.662  10.170  18.337  0.00  0.00    +0.000 C 
ATOM     22  C   UNL     1      47.969   8.729  18.586  0.00  0.00    +0.000 A 
ATOM     23  C   UNL     1      48.508   7.735  17.766  0.00  0.00    +0.000 A 
ATOM     24  C   UNL     1      48.635   6.552  18.575  0.00  0.00    +0.000 A 
ATOM     25  C   UNL     1      49.101   5.252  18.319  0.00  0.00    +0.000 A 
ATOM     26  N   UNL     1      49.093   4.304  19.291  0.00  0.00    +0.000 NA
ATOM     27  C   UNL     1      48.639   4.637  20.515  0.00  0.00    +0.000 A 
ATOM     28  C   UNL     1      48.167   5.889  20.868  0.00  0.00    +0.000 A 
ATOM     29  C   UNL     1      48.166   6.853  19.854  0.00  0.00    +0.000 A 
ATOM     30  N   UNL     1      47.782   8.173  19.844  0.00  0.00    +0.000 N 
ATOM     31  C   UNL     1      47.289   8.904  20.995  0.00  0.00    +0.000 C 
ENDBRANCH  17  23
ENDBRANCH   1  19
TORSDOF 6
ENDMDL
MODEL 4
REMARK VINA RESULT:    -6.873      3.402      8.524
REMARK INTER + INTRA:         -10.358
REMARK INTER:                  -9.095
REMARK INTRA:                  -1.263
REMARK UNBOUND:                -1.075
REMARK  Name = 
REMARK  9 active torsions:
REMARK  status: ('A' for Active; 'I' for Inactive)
REMARK    1  A    between atoms: C_1  and  C_2
REMARK    2  A    between atoms: C_3  and  C_4
REMARK    3  A    between atoms: N_6  and  C_7
REMARK    4  A    between atoms: C_7  and  C_8
REMARK    5  A    between atoms: C_11  and  N_12
REMARK    6  A    between atoms: N_12  and  C_13
REMARK    7  A    between atoms: N_12  and  C_14
REMARK    8  A    between atoms: C_14  and  C_15
REMARK    9  A    between atoms: N_29  and  C_30
REMARK                            x       y       z     vdW  Elec       q    Type
REMARK                         _______ _______ _______ _____ _____    ______ ____
ROOT
ATOM      1  C   UNL     1      47.352   3.422  16.820  0.00  0.00    +0.000 C 
ENDROOT
BRANCH   1   2
ATOM      2  C   UNL     1      48.762   3.806  17.174  0.00  0.00    +0.000 A 
ATOM      3  C   UNL     1      49.150   5.143  17.201  0.00  0.00    +0.000 A 
ATOM      4  C   UNL     1      50.500   5.494  17.373  0.00  0.00    +0.000 A 
ATOM      5  C   UNL     1      51.523   4.541  17.531  0.00  0.00    +0.000 A 
ATOM      6  C   UNL     1      51.084   3.205  17.565  0.00  0.00    +0.000 A 
ATOM      7  C   UNL     1      49.740   2.837  17.382  0.00  0.00    +0.000 A 
BRANCH   5   8
ATOM      8  N   UNL     1      52.865   4.892  17.644  0.00  0.00    +0.000 N 
ATOM      9  C   UNL     1      53.870   3.951  18.141  0.00  0.00    +0.000 C 
BRANCH   8  10
ATOM     10  C   UNL     1      53.371   6.242  17.335  0.00  0.00    +0.000 C 
BRANCH  10  11
ATOM     11  C   UNL     1      53.449   6.562  15.824  0.00  0.00    +0.000 C 
ATOM     12  C   UNL     1      54.869   6.498  15.242  0.00  0.00    +0.000 C 
ATOM     13  C   UNL     1      54.916   7.043  13.817  0.00  0.00    +0.000 C 
ATOM     14  O   UNL     1      54.403   8.373  13.764  0.00  0.00    +0.000 OA
ATOM     15  C   UNL     1      53.030   8.424  14.143  0.00  0.00    +0.000 C 
ATOM     16  C   UNL     1      52.858   7.966  15.584  0.00  0.00    +0.000 C 
ENDBRANCH  10  11
ENDBRANCH   8  10
ENDBRANCH   5   8
ENDBRANCH   1   2
BRANCH   1  19
ATOM     17  C   UNL     1      46.859   4.143  14.527  0.00  0.00    +0.000 C 
ATOM     18  O   UNL     1      47.340   3.117  14.064  0.00  0.00    +0.000 OA
ATOM     19  N   UNL     1      46.805   4.376  15.882  0.00  0.00    +0.000 N 
ATOM     20  H   UNL     1      46.634   5.320  16.196  0.00  0.00    +0.000 HD
BRANCH  17  23
ATOM     21  C   UNL     1      48.172   7.132  13.905  0.00  0.00    +0.000 C 
ATOM     22  C   UNL     1      46.923   6.477  13.412  0.00  0.00    +0.000 A 
ATOM     23  C   UNL     1      46.362   5.224  13.668  0.00  0.00    +0.000 A 
ATOM     24  C   UNL     1      45.111   5.175  12.961  0.00  0.00    +0.000 A 
ATOM     25  C   UNL     1      44.112   4.196  12.830  0.00  0.00    +0.000 A 
ATOM     26  N   UNL     1      43.012   4.418  12.068  0.00  0.00    +0.000 NA
ATOM     27  C   UNL     1      42.887   5.606  11.443  0.00  0.00    +0.000 A 
ATOM     28  C   UNL     1      43.809   6.636  11.514  0.00  0.00    +0.000 A 
ATOM     29  C   UNL     1      44.947   6.389  12.292  0.00  0.00    +0.000 A 
ATOM     30  N   UNL     1      46.043   7.164  12.587  0.00  0.00    +0.000 N 
ATOM     31  C   UNL     1      46.239   8.529  12.139  0.00  0.00    +0.000 C 
ENDBRANCH  17  23
ENDBRANCH   1  19
TORSDOF 6
ENDMDL
MODEL 5
REMARK VINA RESULT:    -6.819      4.529      8.094
REMARK INTER + INTRA:         -10.285
REMARK INTER:                  -9.274
REMARK INTRA:                  -1.012
REMARK UNBOUND:                -1.075
REMARK  Name = 
REMARK  9 active torsions:
REMARK  status: ('A' for Active; 'I' for Inactive)
REMARK    1  A    between atoms: C_1  and  C_2
REMARK    2  A    between atoms: C_3  and  C_4
REMARK    3  A    between atoms: N_6  and  C_7
REMARK    4  A    between atoms: C_7  and  C_8
REMARK    5  A    between atoms: C_11  and  N_12
REMARK    6  A    between atoms: N_12  and  C_13
REMARK    7  A    between atoms: N_12  and  C_14
REMARK    8  A    between atoms: C_14  and  C_15
REMARK    9  A    between atoms: N_29  and  C_30
REMARK                            x       y       z     vdW  Elec       q    Type
REMARK                         _______ _______ _______ _____ _____    ______ ____
ROOT
ATOM      1  C   UNL     1      46.828   8.489  12.273  0.00  0.00    +0.000 C 
ENDROOT
BRANCH   1   2
ATOM      2  C   UNL     1      48.297   8.626  11.980  0.00  0.00    +0.000 A 
ATOM      3  C   UNL     1      48.861   9.875  11.738  0.00  0.00    +0.000 A 
ATOM      4  C   UNL     1      50.194   9.989  11.307  0.00  0.00    +0.000 A 
ATOM      5  C   UNL     1      51.028   8.874  11.103  0.00  0.00    +0.000 A 
ATOM      6  C   UNL     1      50.444   7.635  11.420  0.00  0.00    +0.000 A 
ATOM      7  C   UNL     1      49.109   7.503  11.840  0.00  0.00    +0.000 A 
BRANCH   5   8
ATOM      8  N   UNL     1      52.329   8.989  10.622  0.00  0.00    +0.000 N 
ATOM      9  C   UNL     1      53.492   8.778  11.484  0.00  0.00    +0.000 C 
BRANCH   8  10
ATOM     10  C   UNL     1      52.642   9.387   9.237  0.00  0.00    +0.000 C 
BRANCH  10  11
ATOM     11  C   UNL     1      53.368   8.300   8.410  0.00  0.00    +0.000 C 
ATOM     12  C   UNL     1      53.719   8.730   6.979  0.00  0.00    +0.000 C 
ATOM     13  C   UNL     1      54.220   7.553   6.147  0.00  0.00    +0.000 C 
ATOM     14  O   UNL     1      53.266   6.493   6.141  0.00  0.00    +0.000 OA
ATOM     15  C   UNL     1      53.052   5.967   7.447  0.00  0.00    +0.000 C 
ATOM     16  C   UNL     1      52.481   7.039   8.365  0.00  0.00    +0.000 C 
ENDBRANCH  10  11
ENDBRANCH   8  10
ENDBRANCH   5   8
ENDBRANCH   1   2
BRANCH   1  19
ATOM     17  C   UNL     1      45.103   7.000  11.364  0.00  0.00    +0.000 C 
ATOM     18  O   UNL     1      44.332   7.937  11.200  0.00  0.00    +0.000 OA
ATOM     19  N   UNL     1      46.368   7.178  11.874  0.00  0.00    +0.000 N 
ATOM     20  H   UNL     1      46.862   6.367  12.217  0.00  0.00    +0.000 HD
BRANCH  17  23
ATOM     21  C   UNL     1      43.252   4.916  13.173  0.00  0.00    +0.000 C 
ATOM     22  C   UNL     1      43.931   4.746  11.853  0.00  0.00    +0.000 A 
ATOM     23  C   UNL     1      44.710   5.614  11.086  0.00  0.00    +0.000 A 
ATOM     24  C   UNL     1      45.149   4.873   9.934  0.00  0.00    +0.000 A 
ATOM     25  C   UNL     1      45.941   5.197   8.820  0.00  0.00    +0.000 A 
ATOM     26  N   UNL     1      46.188   4.281   7.850  0.00  0.00    +0.000 NA
ATOM     27  C   UNL     1      45.667   3.045   7.979  0.00  0.00    +0.000 A 
ATOM     28  C   UNL     1      44.882   2.627   9.038  0.00  0.00    +0.000 A 
ATOM     29  C   UNL     1      44.622   3.584  10.026  0.00  0.00    +0.000 A 
ATOM     30  N   UNL     1      43.902   3.524  11.195  0.00  0.00    +0.000 N 
ATOM     31  C   UNL     1      43.238   2.338  11.702  0.00  0.00    +0.000 C 
ENDBRANCH  17  23
ENDBRANCH   1  19
TORSDOF 6
ENDMDL
MODEL 6
REMARK VINA RESULT:    -6.775      2.513      8.762
REMARK INTER + INTRA:         -10.226
REMARK INTER:                  -9.203
REMARK INTRA:                  -1.023
REMARK UNBOUND:                -1.075
REMARK  Name = 
REMARK  9 active torsions:
REMARK  status: ('A' for Active; 'I' for Inactive)
REMARK    1  A    between atoms: C_1  and  C_2
REMARK    2  A    between atoms: C_3  and  C_4
REMARK    3  A    between atoms: N_6  and  C_7
REMARK    4  A    between atoms: C_7  and  C_8
REMARK    5  A    between atoms: C_11  and  N_12
REMARK    6  A    between atoms: N_12  and  C_13
REMARK    7  A    between atoms: N_12  and  C_14
REMARK    8  A    between atoms: C_14  and  C_15
REMARK    9  A    between atoms: N_29  and  C_30
REMARK                            x       y       z     vdW  Elec       q    Type
REMARK                         _______ _______ _______ _____ _____    ______ ____
ROOT
ATOM      1  C   UNL     1      47.865   7.688  12.633  0.00  0.00    +0.000 C 
ENDROOT
BRANCH   1   2
ATOM      2  C   UNL     1      48.701   7.272  13.811  0.00  0.00    +0.000 A 
ATOM      3  C   UNL     1      48.165   6.474  14.818  0.00  0.00    +0.000 A 
ATOM      4  C   UNL     1      48.891   6.219  15.994  0.00  0.00    +0.000 A 
ATOM      5  C   UNL     1      50.180   6.736  16.224  0.00  0.00    +0.000 A 
ATOM      6  C   UNL     1      50.714   7.482  15.158  0.00  0.00    +0.000 A 
ATOM      7  C   UNL     1      49.996   7.756  13.981  0.00  0.00    +0.000 A 
BRANCH   5   8
ATOM      8  N   UNL     1      50.871   6.527  17.413  0.00  0.00    +0.000 N 
ATOM      9  C   UNL     1      51.873   7.477  17.900  0.00  0.00    +0.000 C 
BRANCH   8  10
ATOM     10  C   UNL     1      50.700   5.319  18.241  0.00  0.00    +0.000 C 
BRANCH  10  11
ATOM     11  C   UNL     1      51.226   4.020  17.587  0.00  0.00    +0.000 C 
ATOM     12  C   UNL     1      50.166   2.919  17.437  0.00  0.00    +0.000 C 
ATOM     13  C   UNL     1      50.791   1.595  17.004  0.00  0.00    +0.000 C 
ATOM     14  O   UNL     1      51.814   1.196  17.913  0.00  0.00    +0.000 OA
ATOM     15  C   UNL     1      52.890   2.129  17.940  0.00  0.00    +0.000 C 
ATOM     16  C   UNL     1      52.405   3.487  18.428  0.00  0.00    +0.000 C 
ENDBRANCH  10  11
ENDBRANCH   8  10
ENDBRANCH   5   8
ENDBRANCH   1   2
BRANCH   1  19
ATOM     17  C   UNL     1      45.883   6.682  11.593  0.00  0.00    +0.000 C 
ATOM     18  O   UNL     1      45.325   7.769  11.522  0.00  0.00    +0.000 OA
ATOM     19  N   UNL     1      47.150   6.544  12.112  0.00  0.00    +0.000 N 
ATOM     20  H   UNL     1      47.460   5.620  12.374  0.00  0.00    +0.000 HD
BRANCH  17  23
ATOM     21  C   UNL     1      43.873   4.683  13.328  0.00  0.00    +0.000 C 
ATOM     22  C   UNL     1      44.372   4.607  11.921  0.00  0.00    +0.000 A 
ATOM     23  C   UNL     1      45.217   5.440  11.184  0.00  0.00    +0.000 A 
ATOM     24  C   UNL     1      45.393   4.821   9.898  0.00  0.00    +0.000 A 
ATOM     25  C   UNL     1      46.115   5.175   8.746  0.00  0.00    +0.000 A 
ATOM     26  N   UNL     1      46.091   4.391   7.639  0.00  0.00    +0.000 NA
ATOM     27  C   UNL     1      45.368   3.254   7.667  0.00  0.00    +0.000 A 
ATOM     28  C   UNL     1      44.629   2.816   8.753  0.00  0.00    +0.000 A 
ATOM     29  C   UNL     1      44.651   3.640   9.883  0.00  0.00    +0.000 A 
ATOM     30  N   UNL     1      44.054   3.523  11.116  0.00  0.00    +0.000 N 
ATOM     31  C   UNL     1      43.238   2.401  11.540  0.00  0.00    +0.000 C 
ENDBRANCH  17  23
ENDBRANCH   1  19
TORSDOF 6
ENDMDL
MODEL 7
REMARK VINA RESULT:    -6.630      1.980      3.381
REMARK INTER + INTRA:         -10.030
REMARK INTER:                  -9.256
REMARK INTRA:                  -0.774
REMARK UNBOUND:                -1.075
REMARK  Name = 
REMARK  9 active torsions:
REMARK  status: ('A' for Active; 'I' for Inactive)
REMARK    1  A    between atoms: C_1  and  C_2
REMARK    2  A    between atoms: C_3  and  C_4
REMARK    3  A    between atoms: N_6  and  C_7
REMARK    4  A    between atoms: C_7  and  C_8
REMARK    5  A    between atoms: C_11  and  N_12
REMARK    6  A    between atoms: N_12  and  C_13
REMARK    7  A    between atoms: N_12  and  C_14
REMARK    8  A    between atoms: C_14  and  C_15
REMARK    9  A    between atoms: N_29  and  C_30
REMARK                            x       y       z     vdW  Elec       q    Type
REMARK                         _______ _______ _______ _____ _____    ______ ____
ROOT
ATOM      1  C   UNL     1      47.729   3.930  15.186  0.00  0.00    +0.000 C 
ENDROOT
BRANCH   1   2
ATOM      2  C   UNL     1      46.860   4.200  13.990  0.00  0.00    +0.000 A 
ATOM      3  C   UNL     1      46.623   5.504  13.562  0.00  0.00    +0.000 A 
ATOM      4  C   UNL     1      45.686   5.767  12.548  0.00  0.00    +0.000 A 
ATOM      5  C   UNL     1      44.950   4.753  11.907  0.00  0.00    +0.000 A 
ATOM      6  C   UNL     1      45.265   3.446  12.318  0.00  0.00    +0.000 A 
ATOM      7  C   UNL     1      46.189   3.167  13.340  0.00  0.00    +0.000 A 
BRANCH   5   8
ATOM      8  N   UNL     1      43.983   5.023  10.943  0.00  0.00    +0.000 N 
ATOM      9  C   UNL     1      42.982   6.075  11.128  0.00  0.00    +0.000 C 
BRANCH   8  10
ATOM     10  C   UNL     1      43.849   4.244   9.699  0.00  0.00    +0.000 C 
BRANCH  10  11
ATOM     11  C   UNL     1      45.173   3.628   9.187  0.00  0.00    +0.000 C 
ATOM     12  C   UNL     1      45.730   4.299   7.923  0.00  0.00    +0.000 C 
ATOM     13  C   UNL     1      46.899   3.511   7.339  0.00  0.00    +0.000 C 
ATOM     14  O   UNL     1      46.520   2.161   7.075  0.00  0.00    +0.000 OA
ATOM     15  C   UNL     1      46.158   1.472   8.268  0.00  0.00    +0.000 C 
ATOM     16  C   UNL     1      44.947   2.127   8.916  0.00  0.00    +0.000 C 
ENDBRANCH  10  11
ENDBRANCH   8  10
ENDBRANCH   5   8
ENDBRANCH   1   2
BRANCH   1  19
ATOM     17  C   UNL     1      48.757   5.409  16.853  0.00  0.00    +0.000 C 
ATOM     18  O   UNL     1      49.831   4.830  16.755  0.00  0.00    +0.000 OA
ATOM     19  N   UNL     1      47.662   5.046  16.103  0.00  0.00    +0.000 N 
ATOM     20  H   UNL     1      46.754   5.379  16.393  0.00  0.00    +0.000 HD
BRANCH  17  23
ATOM     21  C   UNL     1      48.174   5.251  20.121  0.00  0.00    +0.000 C 
ATOM     22  C   UNL     1      48.301   6.415  19.193  0.00  0.00    +0.000 A 
ATOM     23  C   UNL     1      48.544   6.492  17.820  0.00  0.00    +0.000 A 
ATOM     24  C   UNL     1      48.491   7.884  17.465  0.00  0.00    +0.000 A 
ATOM     25  C   UNL     1      48.655   8.581  16.256  0.00  0.00    +0.000 A 
ATOM     26  N   UNL     1      48.564   9.934  16.212  0.00  0.00    +0.000 NA
ATOM     27  C   UNL     1      48.299  10.602  17.352  0.00  0.00    +0.000 A 
ATOM     28  C   UNL     1      48.114  10.009  18.589  0.00  0.00    +0.000 A 
ATOM     29  C   UNL     1      48.226   8.614  18.624  0.00  0.00    +0.000 A 
ATOM     30  N   UNL     1      48.101   7.709  19.652  0.00  0.00    +0.000 N 
ATOM     31  C   UNL     1      47.765   8.049  21.021  0.00  0.00    +0.000 C 
ENDBRANCH  17  23
ENDBRANCH   1  19
TORSDOF 6
ENDMDL
MODEL 8
REMARK VINA RESULT:    -6.468      3.212      9.151
REMARK INTER + INTRA:          -9.811
REMARK INTER:                  -8.673
REMARK INTRA:                  -1.138
REMARK UNBOUND:                -1.075
REMARK  Name = 
REMARK  9 active torsions:
REMARK  status: ('A' for Active; 'I' for Inactive)
REMARK    1  A    between atoms: C_1  and  C_2
REMARK    2  A    between atoms: C_3  and  C_4
REMARK    3  A    between atoms: N_6  and  C_7
REMARK    4  A    between atoms: C_7  and  C_8
REMARK    5  A    between atoms: C_11  and  N_12
REMARK    6  A    between atoms: N_12  and  C_13
REMARK    7  A    between atoms: N_12  and  C_14
REMARK    8  A    between atoms: C_14  and  C_15
REMARK    9  A    between atoms: N_29  and  C_30
REMARK                            x       y       z     vdW  Elec       q    Type
REMARK                         _______ _______ _______ _____ _____    ______ ____
ROOT
ATOM      1  C   UNL     1      47.391   3.487  16.625  0.00  0.00    +0.000 C 
ENDROOT
BRANCH   1   2
ATOM      2  C   UNL     1      47.973   4.307  17.742  0.00  0.00    +0.000 A 
ATOM      3  C   UNL     1      47.176   5.187  18.469  0.00  0.00    +0.000 A 
ATOM      4  C   UNL     1      47.747   6.069  19.402  0.00  0.00    +0.000 A 
ATOM      5  C   UNL     1      49.130   6.116  19.662  0.00  0.00    +0.000 A 
ATOM      6  C   UNL     1      49.894   5.169  18.957  0.00  0.00    +0.000 A 
ATOM      7  C   UNL     1      49.340   4.288  18.012  0.00  0.00    +0.000 A 
BRANCH   5   8
ATOM      8  N   UNL     1      49.696   7.030  20.544  0.00  0.00    +0.000 N 
ATOM      9  C   UNL     1      49.400   7.005  21.977  0.00  0.00    +0.000 C 
BRANCH   8  10
ATOM     10  C   UNL     1      50.583   8.125  20.109  0.00  0.00    +0.000 C 
BRANCH  10  11
ATOM     11  C   UNL     1      49.893   9.190  19.224  0.00  0.00    +0.000 C 
ATOM     12  C   UNL     1      48.454   9.519  19.647  0.00  0.00    +0.000 C 
ATOM     13  C   UNL     1      47.753  10.394  18.611  0.00  0.00    +0.000 C 
ATOM     14  O   UNL     1      47.778   9.778  17.325  0.00  0.00    +0.000 OA
ATOM     15  C   UNL     1      49.109   9.617  16.843  0.00  0.00    +0.000 C 
ATOM     16  C   UNL     1      49.900   8.698  17.763  0.00  0.00    +0.000 C 
ENDBRANCH  10  11
ENDBRANCH   8  10
ENDBRANCH   5   8
ENDBRANCH   1   2
BRANCH   1  19
ATOM     17  C   UNL     1      46.939   4.256  14.339  0.00  0.00    +0.000 C 
ATOM     18  O   UNL     1      47.712   3.430  13.871  0.00  0.00    +0.000 OA
ATOM     19  N   UNL     1      46.701   4.348  15.691  0.00  0.00    +0.000 N 
ATOM     20  H   UNL     1      46.261   5.186  16.041  0.00  0.00    +0.000 HD
BRANCH  17  23
ATOM     21  C   UNL     1      47.713   7.433  13.749  0.00  0.00    +0.000 C 
ATOM     22  C   UNL     1      46.591   6.579  13.255  0.00  0.00    +0.000 A 
ATOM     23  C   UNL     1      46.257   5.245  13.497  0.00  0.00    +0.000 A 
ATOM     24  C   UNL     1      45.027   4.990  12.797  0.00  0.00    +0.000 A 
ATOM     25  C   UNL     1      44.211   3.855  12.659  0.00  0.00    +0.000 A 
ATOM     26  N   UNL     1      43.083   3.894  11.905  0.00  0.00    +0.000 NA
ATOM     27  C   UNL     1      42.751   5.050  11.297  0.00  0.00    +0.000 A 
ATOM     28  C   UNL     1      43.483   6.222  11.376  0.00  0.00    +0.000 A 
ATOM     29  C   UNL     1      44.652   6.165  12.145  0.00  0.00    +0.000 A 
ATOM     30  N   UNL     1      45.600   7.114  12.444  0.00  0.00    +0.000 N 
ATOM     31  C   UNL     1      45.555   8.498  12.012  0.00  0.00    +0.000 C 
ENDBRANCH  17  23
ENDBRANCH   1  19
TORSDOF 6
ENDMDL
MODEL 9
REMARK VINA RESULT:    -6.463      3.490      9.777
REMARK INTER + INTRA:          -9.805
REMARK INTER:                  -8.598
REMARK INTRA:                  -1.207
REMARK UNBOUND:                -1.075
REMARK  Name = 
REMARK  9 active torsions:
REMARK  status: ('A' for Active; 'I' for Inactive)
REMARK    1  A    between atoms: C_1  and  C_2
REMARK    2  A    between atoms: C_3  and  C_4
REMARK    3  A    between atoms: N_6  and  C_7
REMARK    4  A    between atoms: C_7  and  C_8
REMARK    5  A    between atoms: C_11  and  N_12
REMARK    6  A    between atoms: N_12  and  C_13
REMARK    7  A    between atoms: N_12  and  C_14
REMARK    8  A    between atoms: C_14  and  C_15
REMARK    9  A    between atoms: N_29  and  C_30
REMARK                            x       y       z     vdW  Elec       q    Type
REMARK                         _______ _______ _______ _____ _____    ______ ____
ROOT
ATOM      1  C   UNL     1      47.337   3.388  16.860  0.00  0.00    +0.000 C 
ENDROOT
BRANCH   1   2
ATOM      2  C   UNL     1      48.779   3.607  17.224  0.00  0.00    +0.000 A 
ATOM      3  C   UNL     1      49.294   4.894  17.352  0.00  0.00    +0.000 A 
ATOM      4  C   UNL     1      50.672   5.101  17.532  0.00  0.00    +0.000 A 
ATOM      5  C   UNL     1      51.601   4.045  17.601  0.00  0.00    +0.000 A 
ATOM      6  C   UNL     1      51.036   2.759  17.535  0.00  0.00    +0.000 A 
ATOM      7  C   UNL     1      49.662   2.536  17.342  0.00  0.00    +0.000 A 
BRANCH   5   8
ATOM      8  N   UNL     1      52.970   4.257  17.723  0.00  0.00    +0.000 N 
ATOM      9  C   UNL     1      53.922   3.147  17.765  0.00  0.00    +0.000 C 
BRANCH   8  10
ATOM     10  C   UNL     1      53.565   5.597  17.878  0.00  0.00    +0.000 C 
BRANCH  10  11
ATOM     11  C   UNL     1      54.110   5.892  19.295  0.00  0.00    +0.000 C 
ATOM     12  C   UNL     1      53.061   5.762  20.410  0.00  0.00    +0.000 C 
ATOM     13  C   UNL     1      53.592   6.283  21.742  0.00  0.00    +0.000 C 
ATOM     14  O   UNL     1      54.038   7.632  21.618  0.00  0.00    +0.000 OA
ATOM     15  C   UNL     1      55.128   7.745  20.708  0.00  0.00    +0.000 C 
ATOM     16  C   UNL     1      54.702   7.316  19.311  0.00  0.00    +0.000 C 
ENDBRANCH  10  11
ENDBRANCH   8  10
ENDBRANCH   5   8
ENDBRANCH   1   2
BRANCH   1  19
ATOM     17  C   UNL     1      46.950   4.164  14.565  0.00  0.00    +0.000 C 
ATOM     18  O   UNL     1      47.315   3.091  14.103  0.00  0.00    +0.000 OA
ATOM     19  N   UNL     1      46.910   4.400  15.920  0.00  0.00    +0.000 N 
ATOM     20  H   UNL     1      46.844   5.357  16.236  0.00  0.00    +0.000 HD
BRANCH  17  23
ATOM     21  C   UNL     1      48.616   6.969  13.931  0.00  0.00    +0.000 C 
ATOM     22  C   UNL     1      47.295   6.471  13.444  0.00  0.00    +0.000 A 
ATOM     23  C   UNL     1      46.586   5.296  13.705  0.00  0.00    +0.000 A 
ATOM     24  C   UNL     1      45.336   5.399  13.002  0.00  0.00    +0.000 A 
ATOM     25  C   UNL     1      44.224   4.549  12.876  0.00  0.00    +0.000 A 
ATOM     26  N   UNL     1      43.157   4.902  12.116  0.00  0.00    +0.000 NA
ATOM     27  C   UNL     1      43.177   6.095  11.489  0.00  0.00    +0.000 A 
ATOM     28  C   UNL     1      44.218   7.004  11.555  0.00  0.00    +0.000 A 
ATOM     29  C   UNL     1      45.319   6.622  12.330  0.00  0.00    +0.000 A 
ATOM     30  N   UNL     1      46.503   7.258  12.620  0.00  0.00    +0.000 N 
ATOM     31  C   UNL     1      46.863   8.588  12.167  0.00  0.00    +0.000 C 
ENDBRANCH  17  23
ENDBRANCH   1  19
TORSDOF 6
ENDMDL
