MODEL 1
REMARK VINA RESULT:    -8.003      0.000      0.000
REMARK INTER + INTRA:          -9.831
REMARK INTER:                  -9.407
REMARK INTRA:                  -0.424
REMARK UNBOUND:                -0.424
REMARK  Name = 
REMARK  3 active torsions:
REMARK  status: ('A' for Active; 'I' for Inactive)
REMARK    1  A    between atoms: C_5  and  C_6
REMARK    2  A    between atoms: C_14  and  C_15
REMARK    3  A    between atoms: C_15  and  N_16
REMARK                            x       y       z     vdW  Elec       q    Type
REMARK                         _______ _______ _______ _____ _____    ______ ____
ROOT
ATOM      1  F   UNL     1      44.437   2.639  12.491  0.00  0.00    +0.000 F 
ATOM      2  C   UNL     1      45.178   3.756  12.455  0.00  0.00    +0.000 A 
ATOM      3  C   UNL     1      46.194   3.916  13.390  0.00  0.00    +0.000 A 
ATOM      4  C   UNL     1      46.940   5.097  13.428  0.00  0.00    +0.000 A 
ATOM      5  C   UNL     1      46.659   6.139  12.540  0.00  0.00    +0.000 A 
ATOM      6  C   UNL     1      45.652   5.925  11.579  0.00  0.00    +0.000 A 
ATOM      7  F   UNL     1      45.364   6.917  10.718  0.00  0.00    +0.000 F 
ATOM      8  C   UNL     1      44.894   4.748  11.517  0.00  0.00    +0.000 A 
ENDROOT
BRANCH   5   9
ATOM      9  C   UNL     1      47.328   7.510  12.612  0.00  0.00    +0.000 C 
ATOM     10  C   UNL     1      48.406   7.820  11.556  0.00  0.00    +0.000 C 
ATOM     11  C   UNL     1      49.820   7.363  11.924  0.00  0.00    +0.000 C 
ATOM     12  N   UNL     1      50.209   7.770  13.271  0.00  0.00    +0.000 NA
ATOM     13  C   UNL     1      49.272   7.250  14.264  0.00  0.00    +0.000 C 
ATOM     14  C   UNL     1      47.859   7.782  14.035  0.00  0.00    +0.000 C 
ATOM     15  H   UNL     1      50.225   8.789  13.325  0.00  0.00    +0.000 HD
ENDBRANCH   5   9
BRANCH   8  16
ATOM     16  C   UNL     1      43.785   4.595  10.519  0.00  0.00    +0.000 C 
BRANCH  16  17
ATOM     17  N   UNL     1      44.268   4.678   9.154  0.00  0.00    +0.000 N 
ATOM     18  C   UNL     1      45.104   3.683   8.665  0.00  0.00    +0.000 A 
ATOM     19  C   UNL     1      45.092   2.350   9.089  0.00  0.00    +0.000 A 
ATOM     20  N   UNL     1      45.891   1.378   8.578  0.00  0.00    +0.000 NA
ATOM     21  C   UNL     1      46.700   1.777   7.577  0.00  0.00    +0.000 A 
ATOM     22  C   UNL     1      46.714   3.085   7.128  0.00  0.00    +0.000 A 
ATOM     23  N   UNL     1      45.934   4.056   7.667  0.00  0.00    +0.000 NA
ATOM     24  H   UNL     1      44.654   5.573   8.859  0.00  0.00    +0.000 HD
ENDBRANCH  16  17
ENDBRANCH   8  16
TORSDOF 3
ENDMDL
MODEL 2
REMARK VINA RESULT:    -7.207      1.594      2.690
REMARK INTER + INTRA:          -8.895
REMARK INTER:                  -8.243
REMARK INTRA:                  -0.651
REMARK UNBOUND:                -0.424
REMARK  Name = 
REMARK  3 active torsions:
REMARK  status: ('A' for Active; 'I' for Inactive)
REMARK    1  A    between atoms: C_5  and  C_6
REMARK    2  A    between atoms: C_14  and  C_15
REMARK    3  A    between atoms: C_15  and  N_16
REMARK                            x       y       z     vdW  Elec       q    Type
REMARK                         _______ _______ _______ _____ _____    ______ ____
ROOT
ATOM      1  F   UNL     1      43.006   7.106  10.722  0.00  0.00    +0.000 F 
ATOM      2  C   UNL     1      44.001   6.581  11.451  0.00  0.00    +0.000 A 
ATOM      3  C   UNL     1      44.737   7.419  12.280  0.00  0.00    +0.000 A 
ATOM      4  C   UNL     1      45.825   6.920  13.001  0.00  0.00    +0.000 A 
ATOM      5  C   UNL     1      46.199   5.579  12.880  0.00  0.00    +0.000 A 
ATOM      6  C   UNL     1      45.404   4.750  12.064  0.00  0.00    +0.000 A 
ATOM      7  F   UNL     1      45.749   3.457  11.931  0.00  0.00    +0.000 F 
ATOM      8  C   UNL     1      44.305   5.225  11.336  0.00  0.00    +0.000 A 
ENDROOT
BRANCH   5   9
ATOM      9  C   UNL     1      47.458   4.994  13.518  0.00  0.00    +0.000 C 
ATOM     10  C   UNL     1      47.261   4.056  14.725  0.00  0.00    +0.000 C 
ATOM     11  C   UNL     1      47.176   4.761  16.081  0.00  0.00    +0.000 C 
ATOM     12  N   UNL     1      48.251   5.727  16.281  0.00  0.00    +0.000 NA
ATOM     13  C   UNL     1      48.247   6.737  15.224  0.00  0.00    +0.000 C 
ATOM     14  C   UNL     1      48.469   6.111  13.849  0.00  0.00    +0.000 C 
ATOM     15  H   UNL     1      49.148   5.241  16.278  0.00  0.00    +0.000 HD
ENDBRANCH   5   9
BRANCH   8  16
ATOM     16  C   UNL     1      43.531   4.318  10.426  0.00  0.00    +0.000 C 
BRANCH  16  17
ATOM     17  N   UNL     1      43.965   4.434   9.047  0.00  0.00    +0.000 N 
ATOM     18  C   UNL     1      44.922   3.554   8.557  0.00  0.00    +0.000 A 
ATOM     19  C   UNL     1      45.107   2.243   9.010  0.00  0.00    +0.000 A 
ATOM     20  N   UNL     1      46.024   1.380   8.499  0.00  0.00    +0.000 NA
ATOM     21  C   UNL     1      46.744   1.863   7.469  0.00  0.00    +0.000 A 
ATOM     22  C   UNL     1      46.563   3.148   6.991  0.00  0.00    +0.000 A 
ATOM     23  N   UNL     1      45.667   4.014   7.529  0.00  0.00    +0.000 NA
ATOM     24  H   UNL     1      44.214   5.366   8.722  0.00  0.00    +0.000 HD
ENDBRANCH  16  17
ENDBRANCH   8  16
TORSDOF 3
ENDMDL
MODEL 3
REMARK VINA RESULT:    -7.034      1.301      2.314
REMARK INTER + INTRA:          -8.692
REMARK INTER:                  -7.974
REMARK INTRA:                  -0.718
REMARK UNBOUND:                -0.424
REMARK  Name = 
REMARK  3 active torsions:
REMARK  status: ('A' for Active; 'I' for Inactive)
REMARK    1  A    between atoms: C_5  and  C_6
REMARK    2  A    between atoms: C_14  and  C_15
REMARK    3  A    between atoms: C_15  and  N_16
REMARK                            x       y       z     vdW  Elec       q    Type
REMARK                         _______ _______ _______ _____ _____    ______ ____
ROOT
ATOM      1  F   UNL     1      42.830   7.368  10.907  0.00  0.00    +0.000 F 
ATOM      2  C   UNL     1      43.967   7.012  11.520  0.00  0.00    +0.000 A 
ATOM      3  C   UNL     1      44.691   7.982  12.203  0.00  0.00    +0.000 A 
ATOM      4  C   UNL     1      45.916   7.663  12.796  0.00  0.00    +0.000 A 
ATOM      5  C   UNL     1      46.437   6.371  12.689  0.00  0.00    +0.000 A 
ATOM      6  C   UNL     1      45.657   5.404  12.027  0.00  0.00    +0.000 A 
ATOM      7  F   UNL     1      46.142   4.155  11.910  0.00  0.00    +0.000 F 
ATOM      8  C   UNL     1      44.423   5.697  11.430  0.00  0.00    +0.000 A 
ENDROOT
BRANCH   5   9
ATOM      9  C   UNL     1      47.830   5.982  13.180  0.00  0.00    +0.000 C 
ATOM     10  C   UNL     1      48.090   6.075  14.696  0.00  0.00    +0.000 C 
ATOM     11  C   UNL     1      48.549   7.450  15.188  0.00  0.00    +0.000 C 
ATOM     12  N   UNL     1      49.641   7.998  14.389  0.00  0.00    +0.000 NA
ATOM     13  C   UNL     1      49.255   8.105  12.984  0.00  0.00    +0.000 C 
ATOM     14  C   UNL     1      48.917   6.739  12.389  0.00  0.00    +0.000 C 
ATOM     15  H   UNL     1      50.456   7.389  14.469  0.00  0.00    +0.000 HD
ENDBRANCH   5   9
BRANCH   8  16
ATOM     16  C   UNL     1      43.661   4.648  10.675  0.00  0.00    +0.000 C 
BRANCH  16  17
ATOM     17  N   UNL     1      43.981   4.658   9.261  0.00  0.00    +0.000 N 
ATOM     18  C   UNL     1      44.860   3.709   8.754  0.00  0.00    +0.000 A 
ATOM     19  C   UNL     1      45.036   2.424   9.277  0.00  0.00    +0.000 A 
ATOM     20  N   UNL     1      45.874   1.493   8.752  0.00  0.00    +0.000 NA
ATOM     21  C   UNL     1      46.522   1.879   7.636  0.00  0.00    +0.000 A 
ATOM     22  C   UNL     1      46.347   3.137   7.089  0.00  0.00    +0.000 A 
ATOM     23  N   UNL     1      45.531   4.072   7.640  0.00  0.00    +0.000 NA
ATOM     24  H   UNL     1      44.234   5.556   8.855  0.00  0.00    +0.000 HD
ENDBRANCH  16  17
ENDBRANCH   8  16
TORSDOF 3
ENDMDL
MODEL 4
REMARK VINA RESULT:    -6.319      3.078      7.543
REMARK INTER + INTRA:          -7.851
REMARK INTER:                  -7.304
REMARK INTRA:                  -0.546
REMARK UNBOUND:                -0.424
REMARK  Name = 
REMARK  3 active torsions:
REMARK  status: ('A' for Active; 'I' for Inactive)
REMARK    1  A    between atoms: C_5  and  C_6
REMARK    2  A    between atoms: C_14  and  C_15
REMARK    3  A    between atoms: C_15  and  N_16
REMARK                            x       y       z     vdW  Elec       q    Type
REMARK                         _______ _______ _______ _____ _____    ______ ____
ROOT
ATOM      1  F   UNL     1      48.111   9.017  12.909  0.00  0.00    +0.000 F 
ATOM      2  C   UNL     1      47.411   7.873  12.901  0.00  0.00    +0.000 A 
ATOM      3  C   UNL     1      46.316   7.764  12.052  0.00  0.00    +0.000 A 
ATOM      4  C   UNL     1      45.522   6.615  12.068  0.00  0.00    +0.000 A 
ATOM      5  C   UNL     1      45.805   5.572  12.953  0.00  0.00    +0.000 A 
ATOM      6  C   UNL     1      46.947   5.698  13.769  0.00  0.00    +0.000 A 
ATOM      7  F   UNL     1      47.236   4.708  14.631  0.00  0.00    +0.000 F 
ATOM      8  C   UNL     1      47.762   6.839  13.767  0.00  0.00    +0.000 A 
ENDROOT
BRANCH   5   9
ATOM      9  C   UNL     1      44.905   4.352  13.134  0.00  0.00    +0.000 C 
ATOM     10  C   UNL     1      45.124   3.169  12.170  0.00  0.00    +0.000 C 
ATOM     11  C   UNL     1      44.352   3.261  10.851  0.00  0.00    +0.000 C 
ATOM     12  N   UNL     1      42.942   3.581  11.047  0.00  0.00    +0.000 NA
ATOM     13  C   UNL     1      42.789   4.841  11.771  0.00  0.00    +0.000 C 
ATOM     14  C   UNL     1      43.420   4.770  13.160  0.00  0.00    +0.000 C 
ATOM     15  H   UNL     1      42.496   2.832  11.577  0.00  0.00    +0.000 HD
ENDBRANCH   5   9
BRANCH   8  16
ATOM     16  C   UNL     1      48.928   6.956  14.704  0.00  0.00    +0.000 C 
BRANCH  16  17
ATOM     17  N   UNL     1      48.502   7.138  16.079  0.00  0.00    +0.000 N 
ATOM     18  C   UNL     1      48.910   6.228  17.045  0.00  0.00    +0.000 A 
ATOM     19  C   UNL     1      50.105   5.503  17.005  0.00  0.00    +0.000 A 
ATOM     20  N   UNL     1      50.510   4.640  17.974  0.00  0.00    +0.000 NA
ATOM     21  C   UNL     1      49.681   4.547  19.032  0.00  0.00    +0.000 A 
ATOM     22  C   UNL     1      48.504   5.270  19.102  0.00  0.00    +0.000 A 
ATOM     23  N   UNL     1      48.094   6.106  18.114  0.00  0.00    +0.000 NA
ATOM     24  H   UNL     1      47.513   7.322  16.231  0.00  0.00    +0.000 HD
ENDBRANCH  16  17
ENDBRANCH   8  16
TORSDOF 3
ENDMDL
MODEL 5
REMARK VINA RESULT:    -6.292      4.033      6.819
REMARK INTER + INTRA:          -7.820
REMARK INTER:                  -7.219
REMARK INTRA:                  -0.601
REMARK UNBOUND:                -0.424
REMARK  Name = 
REMARK  3 active torsions:
REMARK  status: ('A' for Active; 'I' for Inactive)
REMARK    1  A    between atoms: C_5  and  C_6
REMARK    2  A    between atoms: C_14  and  C_15
REMARK    3  A    between atoms: C_15  and  N_16
REMARK                            x       y       z     vdW  Elec       q    Type
REMARK                         _______ _______ _______ _____ _____    ______ ____
ROOT
ATOM      1  F   UNL     1      47.616   8.513  12.870  0.00  0.00    +0.000 F 
ATOM      2  C   UNL     1      46.649   7.690  12.440  0.00  0.00    +0.000 A 
ATOM      3  C   UNL     1      46.945   6.343  12.270  0.00  0.00    +0.000 A 
ATOM      4  C   UNL     1      45.983   5.469  11.757  0.00  0.00    +0.000 A 
ATOM      5  C   UNL     1      44.721   5.943  11.388  0.00  0.00    +0.000 A 
ATOM      6  C   UNL     1      44.443   7.305  11.615  0.00  0.00    +0.000 A 
ATOM      7  F   UNL     1      43.236   7.782  11.264  0.00  0.00    +0.000 F 
ATOM      8  C   UNL     1      45.389   8.200  12.133  0.00  0.00    +0.000 A 
ENDROOT
BRANCH   5   9
ATOM      9  C   UNL     1      43.670   5.084  10.687  0.00  0.00    +0.000 C 
ATOM     10  C   UNL     1      42.823   4.150  11.574  0.00  0.00    +0.000 C 
ATOM     11  C   UNL     1      43.442   2.776  11.837  0.00  0.00    +0.000 C 
ATOM     12  N   UNL     1      43.913   2.128  10.617  0.00  0.00    +0.000 NA
ATOM     13  C   UNL     1      44.896   2.964   9.930  0.00  0.00    +0.000 C 
ATOM     14  C   UNL     1      44.298   4.306   9.513  0.00  0.00    +0.000 C 
ATOM     15  H   UNL     1      43.121   1.961   9.996  0.00  0.00    +0.000 HD
ENDBRANCH   5   9
BRANCH   8  16
ATOM     16  C   UNL     1      45.067   9.657  12.292  0.00  0.00    +0.000 C 
BRANCH  16  17
ATOM     17  N   UNL     1      45.082  10.357  11.021  0.00  0.00    +0.000 N 
ATOM     18  C   UNL     1      43.888  10.825  10.487  0.00  0.00    +0.000 A 
ATOM     19  C   UNL     1      42.777  11.219  11.240  0.00  0.00    +0.000 A 
ATOM     20  N   UNL     1      41.627  11.708  10.707  0.00  0.00    +0.000 NA
ATOM     21  C   UNL     1      41.631  11.831   9.365  0.00  0.00    +0.000 A 
ATOM     22  C   UNL     1      42.726  11.466   8.603  0.00  0.00    +0.000 A 
ATOM     23  N   UNL     1      43.859  10.949   9.143  0.00  0.00    +0.000 NA
ATOM     24  H   UNL     1      45.604   9.921  10.264  0.00  0.00    +0.000 HD
ENDBRANCH  16  17
ENDBRANCH   8  16
TORSDOF 3
ENDMDL
MODEL 6
REMARK VINA RESULT:    -6.048      2.629      6.899
REMARK INTER + INTRA:          -7.533
REMARK INTER:                  -6.967
REMARK INTRA:                  -0.566
REMARK UNBOUND:                -0.424
REMARK  Name = 
REMARK  3 active torsions:
REMARK  status: ('A' for Active; 'I' for Inactive)
REMARK    1  A    between atoms: C_5  and  C_6
REMARK    2  A    between atoms: C_14  and  C_15
REMARK    3  A    between atoms: C_15  and  N_16
REMARK                            x       y       z     vdW  Elec       q    Type
REMARK                         _______ _______ _______ _____ _____    ______ ____
ROOT
ATOM      1  F   UNL     1      47.721   9.525  12.277  0.00  0.00    +0.000 F 
ATOM      2  C   UNL     1      47.056   8.369  12.408  0.00  0.00    +0.000 A 
ATOM      3  C   UNL     1      45.762   8.281  11.908  0.00  0.00    +0.000 A 
ATOM      4  C   UNL     1      45.013   7.115  12.088  0.00  0.00    +0.000 A 
ATOM      5  C   UNL     1      45.547   6.033  12.791  0.00  0.00    +0.000 A 
ATOM      6  C   UNL     1      46.876   6.141  13.246  0.00  0.00    +0.000 A 
ATOM      7  F   UNL     1      47.409   5.112  13.928  0.00  0.00    +0.000 F 
ATOM      8  C   UNL     1      47.650   7.297  13.073  0.00  0.00    +0.000 A 
ENDROOT
BRANCH   5   9
ATOM      9  C   UNL     1      44.745   4.785  13.155  0.00  0.00    +0.000 C 
ATOM     10  C   UNL     1      45.092   3.485  12.405  0.00  0.00    +0.000 C 
ATOM     11  C   UNL     1      44.358   3.292  11.075  0.00  0.00    +0.000 C 
ATOM     12  N   UNL     1      42.921   3.516  11.189  0.00  0.00    +0.000 NA
ATOM     13  C   UNL     1      42.641   4.860  11.691  0.00  0.00    +0.000 C 
ATOM     14  C   UNL     1      43.231   5.073  13.084  0.00  0.00    +0.000 C 
ATOM     15  H   UNL     1      42.521   2.829  11.828  0.00  0.00    +0.000 HD
ENDBRANCH   5   9
BRANCH   8  16
ATOM     16  C   UNL     1      49.037   7.390  13.636  0.00  0.00    +0.000 C 
BRANCH  16  17
ATOM     17  N   UNL     1      50.050   7.152  12.626  0.00  0.00    +0.000 N 
ATOM     18  C   UNL     1      50.793   8.220  12.141  0.00  0.00    +0.000 A 
ATOM     19  C   UNL     1      51.104   9.373  12.871  0.00  0.00    +0.000 A 
ATOM     20  N   UNL     1      51.862  10.397  12.397  0.00  0.00    +0.000 NA
ATOM     21  C   UNL     1      52.345  10.215  11.153  0.00  0.00    +0.000 A 
ATOM     22  C   UNL     1      52.067   9.075  10.421  0.00  0.00    +0.000 A 
ATOM     23  N   UNL     1      51.283   8.072  10.892  0.00  0.00    +0.000 NA
ATOM     24  H   UNL     1      49.775   6.585  11.827  0.00  0.00    +0.000 HD
ENDBRANCH  16  17
ENDBRANCH   8  16
TORSDOF 3
ENDMDL
MODEL 7
REMARK VINA RESULT:    -6.038      1.921      2.405
REMARK INTER + INTRA:          -7.521
REMARK INTER:                  -6.926
REMARK INTRA:                  -0.595
REMARK UNBOUND:                -0.424
REMARK  Name = 
REMARK  3 active torsions:
REMARK  status: ('A' for Active; 'I' for Inactive)
REMARK    1  A    between atoms: C_5  and  C_6
REMARK    2  A    between atoms: C_14  and  C_15
REMARK    3  A    between atoms: C_15  and  N_16
REMARK                            x       y       z     vdW  Elec       q    Type
REMARK                         _______ _______ _______ _____ _____    ______ ____
ROOT
ATOM      1  F   UNL     1      46.313   4.470  13.225  0.00  0.00    +0.000 F 
ATOM      2  C   UNL     1      46.727   5.730  13.029  0.00  0.00    +0.000 A 
ATOM      3  C   UNL     1      47.939   6.129  13.580  0.00  0.00    +0.000 A 
ATOM      4  C   UNL     1      48.369   7.453  13.456  0.00  0.00    +0.000 A 
ATOM      5  C   UNL     1      47.576   8.395  12.796  0.00  0.00    +0.000 A 
ATOM      6  C   UNL     1      46.375   7.945  12.213  0.00  0.00    +0.000 A 
ATOM      7  F   UNL     1      45.595   8.837  11.576  0.00  0.00    +0.000 F 
ATOM      8  C   UNL     1      45.925   6.622  12.319  0.00  0.00    +0.000 A 
ENDROOT
BRANCH   5   9
ATOM      9  C   UNL     1      47.905   9.885  12.745  0.00  0.00    +0.000 C 
ATOM     10  C   UNL     1      48.465  10.435  11.418  0.00  0.00    +0.000 C 
ATOM     11  C   UNL     1      49.984  10.326  11.265  0.00  0.00    +0.000 C 
ATOM     12  N   UNL     1      50.704  10.821  12.434  0.00  0.00    +0.000 NA
ATOM     13  C   UNL     1      50.298  10.100  13.639  0.00  0.00    +0.000 C 
ATOM     14  C   UNL     1      48.810  10.284  13.929  0.00  0.00    +0.000 C 
ATOM     15  H   UNL     1      50.508  11.815  12.555  0.00  0.00    +0.000 HD
ENDBRANCH   5   9
BRANCH   8  16
ATOM     16  C   UNL     1      44.604   6.207  11.741  0.00  0.00    +0.000 C 
BRANCH  16  17
ATOM     17  N   UNL     1      44.687   5.974  10.311  0.00  0.00    +0.000 N 
ATOM     18  C   UNL     1      44.812   4.675   9.838  0.00  0.00    +0.000 A 
ATOM     19  C   UNL     1      44.307   3.539  10.481  0.00  0.00    +0.000 A 
ATOM     20  N   UNL     1      44.405   2.276   9.990  0.00  0.00    +0.000 NA
ATOM     21  C   UNL     1      45.006   2.179   8.788  0.00  0.00    +0.000 A 
ATOM     22  C   UNL     1      45.494   3.291   8.126  0.00  0.00    +0.000 A 
ATOM     23  N   UNL     1      45.420   4.545   8.639  0.00  0.00    +0.000 NA
ATOM     24  H   UNL     1      45.344   6.552   9.791  0.00  0.00    +0.000 HD
ENDBRANCH  16  17
ENDBRANCH   8  16
TORSDOF 3
ENDMDL
MODEL 8
REMARK VINA RESULT:    -6.016      3.890      5.873
REMARK INTER + INTRA:          -7.495
REMARK INTER:                  -6.789
REMARK INTRA:                  -0.706
REMARK UNBOUND:                -0.424
REMARK  Name = 
REMARK  3 active torsions:
REMARK  status: ('A' for Active; 'I' for Inactive)
REMARK    1  A    between atoms: C_5  and  C_6
REMARK    2  A    between atoms: C_14  and  C_15
REMARK    3  A    between atoms: C_15  and  N_16
REMARK                            x       y       z     vdW  Elec       q    Type
REMARK                         _______ _______ _______ _____ _____    ______ ____
ROOT
ATOM      1  F   UNL     1      48.951   8.405  13.810  0.00  0.00    +0.000 F 
ATOM      2  C   UNL     1      48.862   7.507  14.801  0.00  0.00    +0.000 A 
ATOM      3  C   UNL     1      49.554   7.744  15.983  0.00  0.00    +0.000 A 
ATOM      4  C   UNL     1      49.540   6.798  17.011  0.00  0.00    +0.000 A 
ATOM      5  C   UNL     1      48.850   5.593  16.854  0.00  0.00    +0.000 A 
ATOM      6  C   UNL     1      48.126   5.405  15.660  0.00  0.00    +0.000 A 
ATOM      7  F   UNL     1      47.457   4.252  15.488  0.00  0.00    +0.000 F 
ATOM      8  C   UNL     1      48.119   6.342  14.617  0.00  0.00    +0.000 A 
ENDROOT
BRANCH   5   9
ATOM      9  C   UNL     1      48.908   4.451  17.866  0.00  0.00    +0.000 C 
ATOM     10  C   UNL     1      49.105   4.835  19.346  0.00  0.00    +0.000 C 
ATOM     11  C   UNL     1      50.564   4.992  19.781  0.00  0.00    +0.000 C 
ATOM     12  N   UNL     1      51.398   3.867  19.369  0.00  0.00    +0.000 NA
ATOM     13  C   UNL     1      51.355   3.690  17.919  0.00  0.00    +0.000 C 
ATOM     14  C   UNL     1      49.940   3.390  17.432  0.00  0.00    +0.000 C 
ATOM     15  H   UNL     1      51.064   3.015  19.822  0.00  0.00    +0.000 HD
ENDBRANCH   5   9
BRANCH   8  16
ATOM     16  C   UNL     1      47.388   6.066  13.337  0.00  0.00    +0.000 C 
BRANCH  16  17
ATOM     17  N   UNL     1      45.960   6.287  13.469  0.00  0.00    +0.000 N 
ATOM     18  C   UNL     1      45.075   5.342  12.966  0.00  0.00    +0.000 A 
ATOM     19  C   UNL     1      45.342   3.972  12.864  0.00  0.00    +0.000 A 
ATOM     20  N   UNL     1      44.455   3.052  12.403  0.00  0.00    +0.000 NA
ATOM     21  C   UNL     1      43.247   3.547  12.071  0.00  0.00    +0.000 A 
ATOM     22  C   UNL     1      42.954   4.894  12.183  0.00  0.00    +0.000 A 
ATOM     23  N   UNL     1      43.858   5.810  12.615  0.00  0.00    +0.000 NA
ATOM     24  H   UNL     1      45.612   7.204  13.199  0.00  0.00    +0.000 HD
ENDBRANCH  16  17
ENDBRANCH   8  16
TORSDOF 3
ENDMDL
MODEL 9
REMARK VINA RESULT:    -6.006      2.691      6.524
REMARK INTER + INTRA:          -7.483
REMARK INTER:                  -6.991
REMARK INTRA:                  -0.492
REMARK UNBOUND:                -0.424
REMARK  Name = 
REMARK  3 active torsions:
REMARK  status: ('A' for Active; 'I' for Inactive)
REMARK    1  A    between atoms: C_5  and  C_6
REMARK    2  A    between atoms: C_14  and  C_15
REMARK    3  A    between atoms: C_15  and  N_16
REMARK                            x       y       z     vdW  Elec       q    Type
REMARK                         _______ _______ _______ _____ _____    ______ ____
ROOT
ATOM      1  F   UNL     1      48.734   5.889  15.662  0.00  0.00    +0.000 F 
ATOM      2  C   UNL     1      47.850   5.713  14.669  0.00  0.00    +0.000 A 
ATOM      3  C   UNL     1      46.971   4.639  14.739  0.00  0.00    +0.000 A 
ATOM      4  C   UNL     1      46.083   4.383  13.690  0.00  0.00    +0.000 A 
ATOM      5  C   UNL     1      46.085   5.191  12.550  0.00  0.00    +0.000 A 
ATOM      6  C   UNL     1      46.960   6.295  12.532  0.00  0.00    +0.000 A 
ATOM      7  F   UNL     1      46.980   7.083  11.443  0.00  0.00    +0.000 F 
ATOM      8  C   UNL     1      47.855   6.576  13.574  0.00  0.00    +0.000 A 
ENDROOT
BRANCH   5   9
ATOM      9  C   UNL     1      45.252   4.893  11.305  0.00  0.00    +0.000 C 
ATOM     10  C   UNL     1      43.971   5.725  11.102  0.00  0.00    +0.000 C 
ATOM     11  C   UNL     1      42.724   5.166  11.792  0.00  0.00    +0.000 C 
ATOM     12  N   UNL     1      42.526   3.744  11.530  0.00  0.00    +0.000 NA
ATOM     13  C   UNL     1      43.689   2.969  11.958  0.00  0.00    +0.000 C 
ATOM     14  C   UNL     1      44.949   3.384  11.202  0.00  0.00    +0.000 C 
ATOM     15  H   UNL     1      42.376   3.602  10.531  0.00  0.00    +0.000 HD
ENDBRANCH   5   9
BRANCH   8  16
ATOM     16  C   UNL     1      48.816   7.724  13.479  0.00  0.00    +0.000 C 
BRANCH  16  17
ATOM     17  N   UNL     1      50.063   7.336  12.848  0.00  0.00    +0.000 N 
ATOM     18  C   UNL     1      50.680   8.210  11.962  0.00  0.00    +0.000 A 
ATOM     19  C   UNL     1      50.585   9.605  12.021  0.00  0.00    +0.000 A 
ATOM     20  N   UNL     1      51.221  10.451  11.170  0.00  0.00    +0.000 NA
ATOM     21  C   UNL     1      52.007   9.850  10.256  0.00  0.00    +0.000 A 
ATOM     22  C   UNL     1      52.132   8.475  10.192  0.00  0.00    +0.000 A 
ATOM     23  N   UNL     1      51.467   7.636  11.027  0.00  0.00    +0.000 NA
ATOM     24  H   UNL     1      50.096   6.407  12.432  0.00  0.00    +0.000 HD
ENDBRANCH  16  17
ENDBRANCH   8  16
TORSDOF 3
ENDMDL
