MODEL 1
REMARK VINA RESULT:    -8.070      0.000      0.000
REMARK INTER + INTRA:         -11.134
REMARK INTER:                 -10.429
REMARK INTRA:                  -0.705
REMARK UNBOUND:                -0.705
REMARK  Name = 
REMARK  5 active torsions:
REMARK  status: ('A' for Active; 'I' for Inactive)
REMARK    1  A    between atoms: C_2  and  C_4
REMARK    2  A    between atoms: C_7  and  N_8
REMARK    3  A    between atoms: N_8  and  C_9
REMARK    4  A    between atoms: C_9  and  C_10
REMARK    5  A    between atoms: C_14  and  N_15
REMARK                            x       y       z     vdW  Elec       q    Type
REMARK                         _______ _______ _______ _____ _____    ______ ____
ROOT
ATOM      1  N   UNL     1      43.719   4.081  10.115  0.00  0.00    +0.000 N 
ATOM      2  H   UNL     1      42.769   4.224   9.773  0.00  0.00    +0.000 HD
ENDROOT
BRANCH   1   6
ATOM      3  C   UNL     1      46.529   2.326   7.509  0.00  0.00    +0.000 A 
ATOM      4  C   UNL     1      45.824   1.518   8.402  0.00  0.00    +0.000 A 
ATOM      5  C   UNL     1      44.871   2.085   9.260  0.00  0.00    +0.000 A 
ATOM      6  C   UNL     1      44.581   3.454   9.223  0.00  0.00    +0.000 A 
ATOM      7  C   UNL     1      45.316   4.252   8.337  0.00  0.00    +0.000 A 
ATOM      8  C   UNL     1      46.284   3.700   7.489  0.00  0.00    +0.000 A 
BRANCH   3  10
ATOM      9  N   UNL     1      48.689   2.528   6.408  0.00  0.00    +0.000 N 
ATOM     10  C   UNL     1      47.565   1.772   6.601  0.00  0.00    +0.000 C 
ATOM     11  O   UNL     1      47.445   0.673   6.077  0.00  0.00    +0.000 OA
ATOM     12  H   UNL     1      49.436   2.090   5.881  0.00  0.00    +0.000 HD
ATOM     13  H   UNL     1      48.931   3.297   7.013  0.00  0.00    +0.000 HD
ENDBRANCH   3  10
ENDBRANCH   1   6
BRANCH   1  14
ATOM     14  C   UNL     1      43.759   3.793  11.549  0.00  0.00    +0.000 C 
BRANCH  14  15
ATOM     15  C   UNL     1      45.011   4.338  12.220  0.00  0.00    +0.000 A 
ATOM     16  N   UNL     1      45.708   3.491  12.997  0.00  0.00    +0.000 NA
ATOM     17  C   UNL     1      46.764   4.018  13.626  0.00  0.00    +0.000 A 
ATOM     18  C   UNL     1      47.134   5.339  13.515  0.00  0.00    +0.000 A 
ATOM     19  C   UNL     1      46.366   6.163  12.713  0.00  0.00    +0.000 A 
ATOM     20  N   UNL     1      45.296   5.655  12.068  0.00  0.00    +0.000 NA
BRANCH  19  21
ATOM     21  N   UNL     1      46.598   7.523  12.633  0.00  0.00    +0.000 N 
ATOM     22  C   UNL     1      45.565   8.537  12.889  0.00  0.00    +0.000 C 
ATOM     23  C   UNL     1      45.876   9.785  12.041  0.00  0.00    +0.000 C 
ATOM     24  O   UNL     1      47.194  10.293  12.309  0.00  0.00    +0.000 OA
ATOM     25  C   UNL     1      48.185   9.285  12.039  0.00  0.00    +0.000 C 
ATOM     26  C   UNL     1      47.959   8.025  12.894  0.00  0.00    +0.000 C 
ENDBRANCH  19  21
ENDBRANCH  14  15
ENDBRANCH   1  14
TORSDOF 5
ENDMDL
MODEL 2
REMARK VINA RESULT:    -7.932      2.108      3.337
REMARK INTER + INTRA:         -10.955
REMARK INTER:                 -10.286
REMARK INTRA:                  -0.669
REMARK UNBOUND:                -0.705
REMARK  Name = 
REMARK  5 active torsions:
REMARK  status: ('A' for Active; 'I' for Inactive)
REMARK    1  A    between atoms: C_2  and  C_4
REMARK    2  A    between atoms: C_7  and  N_8
REMARK    3  A    between atoms: N_8  and  C_9
REMARK    4  A    between atoms: C_9  and  C_10
REMARK    5  A    between atoms: C_14  and  N_15
REMARK                            x       y       z     vdW  Elec       q    Type
REMARK                         _______ _______ _______ _____ _____    ______ ____
ROOT
ATOM      1  N   UNL     1      43.600   4.865   9.758  0.00  0.00    +0.000 N 
ATOM      2  H   UNL     1      42.720   4.930   9.247  0.00  0.00    +0.000 HD
ENDROOT
BRANCH   1   6
ATOM      3  C   UNL     1      46.229   2.061   8.028  0.00  0.00    +0.000 A 
ATOM      4  C   UNL     1      46.341   3.409   7.684  0.00  0.00    +0.000 A 
ATOM      5  C   UNL     1      45.486   4.355   8.267  0.00  0.00    +0.000 A 
ATOM      6  C   UNL     1      44.532   3.984   9.223  0.00  0.00    +0.000 A 
ATOM      7  C   UNL     1      44.420   2.624   9.537  0.00  0.00    +0.000 A 
ATOM      8  C   UNL     1      45.254   1.667   8.946  0.00  0.00    +0.000 A 
BRANCH   3  10
ATOM      9  N   UNL     1      48.095   1.455   6.590  0.00  0.00    +0.000 N 
ATOM     10  C   UNL     1      47.095   1.022   7.416  0.00  0.00    +0.000 C 
ATOM     11  O   UNL     1      46.954  -0.168   7.667  0.00  0.00    +0.000 OA
ATOM     12  H   UNL     1      48.748   0.749   6.271  0.00  0.00    +0.000 HD
ATOM     13  H   UNL     1      48.397   2.417   6.569  0.00  0.00    +0.000 HD
ENDBRANCH   3  10
ENDBRANCH   1   6
BRANCH   1  14
ATOM     14  C   UNL     1      43.417   5.001  11.204  0.00  0.00    +0.000 C 
BRANCH  14  15
ATOM     15  C   UNL     1      44.493   5.859  11.851  0.00  0.00    +0.000 A 
ATOM     16  N   UNL     1      44.695   7.082  11.331  0.00  0.00    +0.000 NA
ATOM     17  C   UNL     1      45.693   7.786  11.878  0.00  0.00    +0.000 A 
ATOM     18  C   UNL     1      46.485   7.315  12.900  0.00  0.00    +0.000 A 
ATOM     19  C   UNL     1      46.236   6.042  13.380  0.00  0.00    +0.000 A 
ATOM     20  N   UNL     1      45.236   5.313  12.845  0.00  0.00    +0.000 NA
BRANCH  19  21
ATOM     21  N   UNL     1      47.052   5.447  14.324  0.00  0.00    +0.000 N 
ATOM     22  C   UNL     1      47.184   3.992  14.480  0.00  0.00    +0.000 C 
ATOM     23  C   UNL     1      47.500   3.679  15.955  0.00  0.00    +0.000 C 
ATOM     24  O   UNL     1      48.680   4.368  16.401  0.00  0.00    +0.000 OA
ATOM     25  C   UNL     1      48.519   5.790  16.249  0.00  0.00    +0.000 C 
ATOM     26  C   UNL     1      48.249   6.175  14.784  0.00  0.00    +0.000 C 
ENDBRANCH  19  21
ENDBRANCH  14  15
ENDBRANCH   1  14
TORSDOF 5
ENDMDL
MODEL 3
REMARK VINA RESULT:    -6.881      5.362      8.345
REMARK INTER + INTRA:          -9.597
REMARK INTER:                  -9.090
REMARK INTRA:                  -0.508
REMARK UNBOUND:                -0.705
REMARK  Name = 
REMARK  5 active torsions:
REMARK  status: ('A' for Active; 'I' for Inactive)
REMARK    1  A    between atoms: C_2  and  C_4
REMARK    2  A    between atoms: C_7  and  N_8
REMARK    3  A    between atoms: N_8  and  C_9
REMARK    4  A    between atoms: C_9  and  C_10
REMARK    5  A    between atoms: C_14  and  N_15
REMARK                            x       y       z     vdW  Elec       q    Type
REMARK                         _______ _______ _______ _____ _____    ______ ____
ROOT
ATOM      1  N   UNL     1      48.772   4.611  17.413  0.00  0.00    +0.000 N 
ATOM      2  H   UNL     1      49.004   5.575  17.176  0.00  0.00    +0.000 HD
ENDROOT
BRANCH   1   6
ATOM      3  C   UNL     1      52.067   1.995  17.656  0.00  0.00    +0.000 A 
ATOM      4  C   UNL     1      52.212   3.320  18.070  0.00  0.00    +0.000 A 
ATOM      5  C   UNL     1      51.119   4.196  18.014  0.00  0.00    +0.000 A 
ATOM      6  C   UNL     1      49.861   3.763  17.578  0.00  0.00    +0.000 A 
ATOM      7  C   UNL     1      49.741   2.437  17.145  0.00  0.00    +0.000 A 
ATOM      8  C   UNL     1      50.831   1.558  17.177  0.00  0.00    +0.000 A 
BRANCH   3  10
ATOM      9  N   UNL     1      52.972  -0.192  18.223  0.00  0.00    +0.000 N 
ATOM     10  C   UNL     1      53.204   1.039  17.673  0.00  0.00    +0.000 C 
ATOM     11  O   UNL     1      54.290   1.318  17.183  0.00  0.00    +0.000 OA
ATOM     12  H   UNL     1      53.717  -0.872  18.125  0.00  0.00    +0.000 HD
ATOM     13  H   UNL     1      52.041  -0.538  18.393  0.00  0.00    +0.000 HD
ENDBRANCH   3  10
ENDBRANCH   1   6
BRANCH   1  14
ATOM     14  C   UNL     1      47.539   4.158  16.769  0.00  0.00    +0.000 C 
BRANCH  14  15
ATOM     15  C   UNL     1      47.355   4.748  15.378  0.00  0.00    +0.000 A 
ATOM     16  N   UNL     1      48.143   5.785  15.043  0.00  0.00    +0.000 NA
ATOM     17  C   UNL     1      47.912   6.323  13.841  0.00  0.00    +0.000 A 
ATOM     18  C   UNL     1      46.933   5.876  12.983  0.00  0.00    +0.000 A 
ATOM     19  C   UNL     1      46.145   4.815  13.393  0.00  0.00    +0.000 A 
ATOM     20  N   UNL     1      46.359   4.256  14.601  0.00  0.00    +0.000 NA
BRANCH  19  21
ATOM     21  N   UNL     1      45.069   4.376  12.645  0.00  0.00    +0.000 N 
ATOM     22  C   UNL     1      45.041   3.083  11.947  0.00  0.00    +0.000 C 
ATOM     23  C   UNL     1      44.150   3.214  10.698  0.00  0.00    +0.000 C 
ATOM     24  O   UNL     1      42.826   3.661  11.036  0.00  0.00    +0.000 OA
ATOM     25  C   UNL     1      42.881   4.933  11.706  0.00  0.00    +0.000 C 
ATOM     26  C   UNL     1      43.720   4.858  12.995  0.00  0.00    +0.000 C 
ENDBRANCH  19  21
ENDBRANCH  14  15
ENDBRANCH   1  14
TORSDOF 5
ENDMDL
MODEL 4
REMARK VINA RESULT:    -6.600      2.676      3.558
REMARK INTER + INTRA:          -9.234
REMARK INTER:                  -8.803
REMARK INTRA:                  -0.431
REMARK UNBOUND:                -0.705
REMARK  Name = 
REMARK  5 active torsions:
REMARK  status: ('A' for Active; 'I' for Inactive)
REMARK    1  A    between atoms: C_2  and  C_4
REMARK    2  A    between atoms: C_7  and  N_8
REMARK    3  A    between atoms: N_8  and  C_9
REMARK    4  A    between atoms: C_9  and  C_10
REMARK    5  A    between atoms: C_14  and  N_15
REMARK                            x       y       z     vdW  Elec       q    Type
REMARK                         _______ _______ _______ _____ _____    ______ ____
ROOT
ATOM      1  N   UNL     1      44.797   5.478   9.649  0.00  0.00    +0.000 N 
ATOM      2  H   UNL     1      44.010   5.942   9.197  0.00  0.00    +0.000 HD
ENDROOT
BRANCH   1   6
ATOM      3  C   UNL     1      46.344   1.992   7.855  0.00  0.00    +0.000 A 
ATOM      4  C   UNL     1      45.426   1.876   8.899  0.00  0.00    +0.000 A 
ATOM      5  C   UNL     1      44.887   3.027   9.492  0.00  0.00    +0.000 A 
ATOM      6  C   UNL     1      45.226   4.307   9.036  0.00  0.00    +0.000 A 
ATOM      7  C   UNL     1      46.167   4.403   8.003  0.00  0.00    +0.000 A 
ATOM      8  C   UNL     1      46.727   3.261   7.417  0.00  0.00    +0.000 A 
BRANCH   3  10
ATOM      9  N   UNL     1      47.704   1.017   6.089  0.00  0.00    +0.000 N 
ATOM     10  C   UNL     1      46.959   0.801   7.216  0.00  0.00    +0.000 C 
ATOM     11  O   UNL     1      46.844  -0.320   7.692  0.00  0.00    +0.000 OA
ATOM     12  H   UNL     1      48.211   0.217   5.730  0.00  0.00    +0.000 HD
ATOM     13  H   UNL     1      48.028   1.934   5.826  0.00  0.00    +0.000 HD
ENDBRANCH   3  10
ENDBRANCH   1   6
BRANCH   1  14
ATOM     14  C   UNL     1      44.762   5.612  11.106  0.00  0.00    +0.000 C 
BRANCH  14  15
ATOM     15  C   UNL     1      44.949   7.050  11.566  0.00  0.00    +0.000 A 
ATOM     16  N   UNL     1      45.722   7.251  12.648  0.00  0.00    +0.000 NA
ATOM     17  C   UNL     1      45.812   8.518  13.067  0.00  0.00    +0.000 A 
ATOM     18  C   UNL     1      45.162   9.568  12.460  0.00  0.00    +0.000 A 
ATOM     19  C   UNL     1      44.369   9.292  11.361  0.00  0.00    +0.000 A 
ATOM     20  N   UNL     1      44.262   8.023  10.919  0.00  0.00    +0.000 NA
BRANCH  19  21
ATOM     21  N   UNL     1      43.594  10.267  10.760  0.00  0.00    +0.000 N 
ATOM     22  C   UNL     1      42.758  11.214  11.512  0.00  0.00    +0.000 C 
ATOM     23  C   UNL     1      41.545  11.599  10.644  0.00  0.00    +0.000 C 
ATOM     24  O   UNL     1      41.951  12.142   9.377  0.00  0.00    +0.000 OA
ATOM     25  C   UNL     1      42.756  11.190   8.657  0.00  0.00    +0.000 C 
ATOM     26  C   UNL     1      44.015  10.800   9.452  0.00  0.00    +0.000 C 
ENDBRANCH  19  21
ENDBRANCH  14  15
ENDBRANCH   1  14
TORSDOF 5
ENDMDL
MODEL 5
REMARK VINA RESULT:    -6.541      1.569      7.107
REMARK INTER + INTRA:          -9.158
REMARK INTER:                  -8.618
REMARK INTRA:                  -0.541
REMARK UNBOUND:                -0.705
REMARK  Name = 
REMARK  5 active torsions:
REMARK  status: ('A' for Active; 'I' for Inactive)
REMARK    1  A    between atoms: C_2  and  C_4
REMARK    2  A    between atoms: C_7  and  N_8
REMARK    3  A    between atoms: N_8  and  C_9
REMARK    4  A    between atoms: C_9  and  C_10
REMARK    5  A    between atoms: C_14  and  N_15
REMARK                            x       y       z     vdW  Elec       q    Type
REMARK                         _______ _______ _______ _____ _____    ______ ____
ROOT
ATOM      1  N   UNL     1      47.155   5.701  13.079  0.00  0.00    +0.000 N 
ATOM      2  H   UNL     1      48.106   5.467  13.362  0.00  0.00    +0.000 HD
ENDROOT
BRANCH   1   6
ATOM      3  C   UNL     1      46.549   9.733  12.008  0.00  0.00    +0.000 A 
ATOM      4  C   UNL     1      45.481   8.989  12.510  0.00  0.00    +0.000 A 
ATOM      5  C   UNL     1      45.673   7.653  12.889  0.00  0.00    +0.000 A 
ATOM      6  C   UNL     1      46.932   7.046  12.807  0.00  0.00    +0.000 A 
ATOM      7  C   UNL     1      47.986   7.802  12.279  0.00  0.00    +0.000 A 
ATOM      8  C   UNL     1      47.802   9.131  11.878  0.00  0.00    +0.000 A 
BRANCH   3  10
ATOM      9  N   UNL     1      45.388  11.865  12.164  0.00  0.00    +0.000 N 
ATOM     10  C   UNL     1      46.386  11.142  11.570  0.00  0.00    +0.000 C 
ATOM     11  O   UNL     1      47.132  11.654  10.746  0.00  0.00    +0.000 OA
ATOM     12  H   UNL     1      45.360  12.853  11.943  0.00  0.00    +0.000 HD
ATOM     13  H   UNL     1      44.937  11.562  13.013  0.00  0.00    +0.000 HD
ENDBRANCH   3  10
ENDBRANCH   1   6
BRANCH   1  14
ATOM     14  C   UNL     1      46.151   4.880  13.757  0.00  0.00    +0.000 C 
BRANCH  14  15
ATOM     15  C   UNL     1      45.214   4.181  12.784  0.00  0.00    +0.000 A 
ATOM     16  N   UNL     1      44.050   3.723  13.277  0.00  0.00    +0.000 NA
ATOM     17  C   UNL     1      43.279   3.054  12.413  0.00  0.00    +0.000 A 
ATOM     18  C   UNL     1      43.629   2.823  11.102  0.00  0.00    +0.000 A 
ATOM     19  C   UNL     1      44.847   3.306  10.661  0.00  0.00    +0.000 A 
ATOM     20  N   UNL     1      45.642   3.984  11.513  0.00  0.00    +0.000 NA
BRANCH  19  21
ATOM     21  N   UNL     1      45.327   3.024   9.395  0.00  0.00    +0.000 N 
ATOM     22  C   UNL     1      45.340   1.672   8.817  0.00  0.00    +0.000 C 
ATOM     23  C   UNL     1      46.524   1.565   7.839  0.00  0.00    +0.000 C 
ATOM     24  O   UNL     1      46.463   2.576   6.819  0.00  0.00    +0.000 OA
ATOM     25  C   UNL     1      46.464   3.887   7.411  0.00  0.00    +0.000 C 
ATOM     26  C   UNL     1      45.272   4.078   8.366  0.00  0.00    +0.000 C 
ENDBRANCH  19  21
ENDBRANCH  14  15
ENDBRANCH   1  14
TORSDOF 5
ENDMDL
MODEL 6
REMARK VINA RESULT:    -6.430      2.191      6.900
REMARK INTER + INTRA:          -9.014
REMARK INTER:                  -8.412
REMARK INTRA:                  -0.602
REMARK UNBOUND:                -0.705
REMARK  Name = 
REMARK  5 active torsions:
REMARK  status: ('A' for Active; 'I' for Inactive)
REMARK    1  A    between atoms: C_2  and  C_4
REMARK    2  A    between atoms: C_7  and  N_8
REMARK    3  A    between atoms: N_8  and  C_9
REMARK    4  A    between atoms: C_9  and  C_10
REMARK    5  A    between atoms: C_14  and  N_15
REMARK                            x       y       z     vdW  Elec       q    Type
REMARK                         _______ _______ _______ _____ _____    ______ ____
ROOT
ATOM      1  N   UNL     1      46.172   6.377  13.483  0.00  0.00    +0.000 N 
ATOM      2  H   UNL     1      45.912   6.423  14.467  0.00  0.00    +0.000 HD
ENDROOT
BRANCH   1   6
ATOM      3  C   UNL     1      50.028   7.849  12.628  0.00  0.00    +0.000 A 
ATOM      4  C   UNL     1      49.115   7.676  11.588  0.00  0.00    +0.000 A 
ATOM      5  C   UNL     1      47.822   7.207  11.860  0.00  0.00    +0.000 A 
ATOM      6  C   UNL     1      47.407   6.934  13.169  0.00  0.00    +0.000 A 
ATOM      7  C   UNL     1      48.345   7.091  14.197  0.00  0.00    +0.000 A 
ATOM      8  C   UNL     1      49.646   7.540  13.935  0.00  0.00    +0.000 A 
BRANCH   3  10
ATOM      9  N   UNL     1      52.069   7.787  11.306  0.00  0.00    +0.000 N 
ATOM     10  C   UNL     1      51.416   8.319  12.383  0.00  0.00    +0.000 C 
ATOM     11  O   UNL     1      51.943   9.173  13.083  0.00  0.00    +0.000 OA
ATOM     12  H   UNL     1      52.968   8.198  11.082  0.00  0.00    +0.000 HD
ATOM     13  H   UNL     1      51.585   7.290  10.574  0.00  0.00    +0.000 HD
ENDBRANCH   3  10
ENDBRANCH   1   6
BRANCH   1  14
ATOM     14  C   UNL     1      45.020   6.521  12.593  0.00  0.00    +0.000 C 
BRANCH  14  15
ATOM     15  C   UNL     1      44.536   5.187  12.042  0.00  0.00    +0.000 A 
ATOM     16  N   UNL     1      43.721   4.460  12.826  0.00  0.00    +0.000 NA
ATOM     17  C   UNL     1      43.368   3.264  12.342  0.00  0.00    +0.000 A 
ATOM     18  C   UNL     1      43.802   2.775  11.131  0.00  0.00    +0.000 A 
ATOM     19  C   UNL     1      44.653   3.565  10.380  0.00  0.00    +0.000 A 
ATOM     20  N   UNL     1      45.023   4.775  10.846  0.00  0.00    +0.000 NA
BRANCH  19  21
ATOM     21  N   UNL     1      45.225   3.108   9.207  0.00  0.00    +0.000 N 
ATOM     22  C   UNL     1      45.217   1.696   8.799  0.00  0.00    +0.000 C 
ATOM     23  C   UNL     1      46.474   1.417   7.955  0.00  0.00    +0.000 C 
ATOM     24  O   UNL     1      46.556   2.295   6.820  0.00  0.00    +0.000 OA
ATOM     25  C   UNL     1      46.576   3.669   7.248  0.00  0.00    +0.000 C 
ATOM     26  C   UNL     1      45.317   4.027   8.059  0.00  0.00    +0.000 C 
ENDBRANCH  19  21
ENDBRANCH  14  15
ENDBRANCH   1  14
TORSDOF 5
ENDMDL
MODEL 7
REMARK VINA RESULT:    -6.050      3.820      5.973
REMARK INTER + INTRA:          -8.523
REMARK INTER:                  -7.907
REMARK INTRA:                  -0.616
REMARK UNBOUND:                -0.705
REMARK  Name = 
REMARK  5 active torsions:
REMARK  status: ('A' for Active; 'I' for Inactive)
REMARK    1  A    between atoms: C_2  and  C_4
REMARK    2  A    between atoms: C_7  and  N_8
REMARK    3  A    between atoms: N_8  and  C_9
REMARK    4  A    between atoms: C_9  and  C_10
REMARK    5  A    between atoms: C_14  and  N_15
REMARK                            x       y       z     vdW  Elec       q    Type
REMARK                         _______ _______ _______ _____ _____    ______ ____
ROOT
ATOM      1  N   UNL     1      46.565   7.421  13.013  0.00  0.00    +0.000 N 
ATOM      2  H   UNL     1      46.285   7.611  13.974  0.00  0.00    +0.000 HD
ENDROOT
BRANCH   1   6
ATOM      3  C   UNL     1      44.655   4.009  11.438  0.00  0.00    +0.000 A 
ATOM      4  C   UNL     1      45.063   5.027  10.574  0.00  0.00    +0.000 A 
ATOM      5  C   UNL     1      45.718   6.158  11.082  0.00  0.00    +0.000 A 
ATOM      6  C   UNL     1      46.006   6.281  12.446  0.00  0.00    +0.000 A 
ATOM      7  C   UNL     1      45.568   5.261  13.299  0.00  0.00    +0.000 A 
ATOM      8  C   UNL     1      44.896   4.136  12.807  0.00  0.00    +0.000 A 
BRANCH   3  10
ATOM      9  N   UNL     1      44.496   2.135   9.894  0.00  0.00    +0.000 N 
ATOM     10  C   UNL     1      43.936   2.806  10.947  0.00  0.00    +0.000 C 
ATOM     11  O   UNL     1      42.912   2.403  11.481  0.00  0.00    +0.000 OA
ATOM     12  H   UNL     1      44.060   1.255   9.644  0.00  0.00    +0.000 HD
ATOM     13  H   UNL     1      45.450   2.284   9.608  0.00  0.00    +0.000 HD
ENDBRANCH   3  10
ENDBRANCH   1   6
BRANCH   1  14
ATOM     14  C   UNL     1      47.952   7.806  12.748  0.00  0.00    +0.000 C 
BRANCH  14  15
ATOM     15  C   UNL     1      48.868   7.543  13.934  0.00  0.00    +0.000 A 
ATOM     16  N   UNL     1      50.078   8.127  13.915  0.00  0.00    +0.000 NA
ATOM     17  C   UNL     1      50.885   7.823  14.938  0.00  0.00    +0.000 A 
ATOM     18  C   UNL     1      50.533   6.963  15.953  0.00  0.00    +0.000 A 
ATOM     19  C   UNL     1      49.279   6.381  15.907  0.00  0.00    +0.000 A 
ATOM     20  N   UNL     1      48.449   6.673  14.886  0.00  0.00    +0.000 NA
BRANCH  19  21
ATOM     21  N   UNL     1      48.887   5.422  16.822  0.00  0.00    +0.000 N 
ATOM     22  C   UNL     1      49.086   5.557  18.272  0.00  0.00    +0.000 C 
ATOM     23  C   UNL     1      49.258   4.153  18.880  0.00  0.00    +0.000 C 
ATOM     24  O   UNL     1      48.139   3.303  18.577  0.00  0.00    +0.000 OA
ATOM     25  C   UNL     1      47.975   3.178  17.152  0.00  0.00    +0.000 C 
ATOM     26  C   UNL     1      47.749   4.547  16.487  0.00  0.00    +0.000 C 
ENDBRANCH  19  21
ENDBRANCH  14  15
ENDBRANCH   1  14
TORSDOF 5
ENDMDL
MODEL 8
REMARK VINA RESULT:    -5.759      4.836      8.044
REMARK INTER + INTRA:          -8.146
REMARK INTER:                  -7.486
REMARK INTRA:                  -0.660
REMARK UNBOUND:                -0.705
REMARK  Name = 
REMARK  5 active torsions:
REMARK  status: ('A' for Active; 'I' for Inactive)
REMARK    1  A    between atoms: C_2  and  C_4
REMARK    2  A    between atoms: C_7  and  N_8
REMARK    3  A    between atoms: N_8  and  C_9
REMARK    4  A    between atoms: C_9  and  C_10
REMARK    5  A    between atoms: C_14  and  N_15
REMARK                            x       y       z     vdW  Elec       q    Type
REMARK                         _______ _______ _______ _____ _____    ______ ____
ROOT
ATOM      1  N   UNL     1      48.548   6.632  17.230  0.00  0.00    +0.000 N 
ATOM      2  H   UNL     1      48.026   6.931  18.053  0.00  0.00    +0.000 HD
ENDROOT
BRANCH   1   6
ATOM      3  C   UNL     1      50.921   3.163  17.551  0.00  0.00    +0.000 A 
ATOM      4  C   UNL     1      51.528   4.418  17.617  0.00  0.00    +0.000 A 
ATOM      5  C   UNL     1      50.749   5.580  17.533  0.00  0.00    +0.000 A 
ATOM      6  C   UNL     1      49.355   5.515  17.414  0.00  0.00    +0.000 A 
ATOM      7  C   UNL     1      48.767   4.248  17.325  0.00  0.00    +0.000 A 
ATOM      8  C   UNL     1      49.537   3.080  17.388  0.00  0.00    +0.000 A 
BRANCH   3  10
ATOM      9  N   UNL     1      52.750   1.868  18.497  0.00  0.00    +0.000 N 
ATOM     10  C   UNL     1      51.710   1.906  17.610  0.00  0.00    +0.000 C 
ATOM     11  O   UNL     1      51.423   0.930  16.930  0.00  0.00    +0.000 OA
ATOM     12  H   UNL     1      53.207   0.971  18.611  0.00  0.00    +0.000 HD
ATOM     13  H   UNL     1      52.849   2.542  19.240  0.00  0.00    +0.000 HD
ENDBRANCH   3  10
ENDBRANCH   1   6
BRANCH   1  14
ATOM     14  C   UNL     1      48.977   7.759  16.401  0.00  0.00    +0.000 C 
BRANCH  14  15
ATOM     15  C   UNL     1      48.954   7.434  14.915  0.00  0.00    +0.000 A 
ATOM     16  N   UNL     1      49.919   7.977  14.154  0.00  0.00    +0.000 NA
ATOM     17  C   UNL     1      49.832   7.728  12.843  0.00  0.00    +0.000 A 
ATOM     18  C   UNL     1      48.827   6.978  12.277  0.00  0.00    +0.000 A 
ATOM     19  C   UNL     1      47.853   6.460  13.112  0.00  0.00    +0.000 A 
ATOM     20  N   UNL     1      47.920   6.698  14.438  0.00  0.00    +0.000 NA
BRANCH  19  21
ATOM     21  N   UNL     1      46.749   5.792  12.617  0.00  0.00    +0.000 N 
ATOM     22  C   UNL     1      45.965   4.829  13.404  0.00  0.00    +0.000 C 
ATOM     23  C   UNL     1      45.364   3.782  12.447  0.00  0.00    +0.000 C 
ATOM     24  O   UNL     1      44.570   4.398  11.420  0.00  0.00    +0.000 OA
ATOM     25  C   UNL     1      45.364   5.325  10.658  0.00  0.00    +0.000 C 
ATOM     26  C   UNL     1      45.955   6.430  11.552  0.00  0.00    +0.000 C 
ENDBRANCH  19  21
ENDBRANCH  14  15
ENDBRANCH   1  14
TORSDOF 5
ENDMDL
MODEL 9
REMARK VINA RESULT:    -5.682      4.366      6.944
REMARK INTER + INTRA:          -8.048
REMARK INTER:                  -7.470
REMARK INTRA:                  -0.578
REMARK UNBOUND:                -0.705
REMARK  Name = 
REMARK  5 active torsions:
REMARK  status: ('A' for Active; 'I' for Inactive)
REMARK    1  A    between atoms: C_2  and  C_4
REMARK    2  A    between atoms: C_7  and  N_8
REMARK    3  A    between atoms: N_8  and  C_9
REMARK    4  A    between atoms: C_9  and  C_10
REMARK    5  A    between atoms: C_14  and  N_15
REMARK                            x       y       z     vdW  Elec       q    Type
REMARK                         _______ _______ _______ _____ _____    ______ ____
ROOT
ATOM      1  N   UNL     1      48.309   6.796  13.124  0.00  0.00    +0.000 N 
ATOM      2  H   UNL     1      48.878   6.875  12.282  0.00  0.00    +0.000 HD
ENDROOT
BRANCH   1   6
ATOM      3  C   UNL     1      44.422   5.409  12.264  0.00  0.00    +0.000 A 
ATOM      4  C   UNL     1      45.348   4.540  12.843  0.00  0.00    +0.000 A 
ATOM      5  C   UNL     1      46.638   4.994  13.154  0.00  0.00    +0.000 A 
ATOM      6  C   UNL     1      47.017   6.322  12.924  0.00  0.00    +0.000 A 
ATOM      7  C   UNL     1      46.083   7.172  12.321  0.00  0.00    +0.000 A 
ATOM      8  C   UNL     1      44.798   6.725  11.988  0.00  0.00    +0.000 A 
BRANCH   3  10
ATOM      9  N   UNL     1      42.877   3.628  11.668  0.00  0.00    +0.000 N 
ATOM     10  C   UNL     1      43.054   4.965  11.895  0.00  0.00    +0.000 C 
ATOM     11  O   UNL     1      42.115   5.747  11.835  0.00  0.00    +0.000 OA
ATOM     12  H   UNL     1      41.920   3.322  11.531  0.00  0.00    +0.000 HD
ATOM     13  H   UNL     1      43.552   2.939  11.957  0.00  0.00    +0.000 HD
ENDBRANCH   3  10
ENDBRANCH   1   6
BRANCH   1  14
ATOM     14  C   UNL     1      48.594   7.856  14.092  0.00  0.00    +0.000 C 
BRANCH  14  15
ATOM     15  C   UNL     1      48.681   7.336  15.519  0.00  0.00    +0.000 A 
ATOM     16  N   UNL     1      48.551   8.237  16.509  0.00  0.00    +0.000 NA
ATOM     17  C   UNL     1      48.699   7.760  17.749  0.00  0.00    +0.000 A 
ATOM     18  C   UNL     1      48.978   6.441  18.029  0.00  0.00    +0.000 A 
ATOM     19  C   UNL     1      49.116   5.567  16.966  0.00  0.00    +0.000 A 
ATOM     20  N   UNL     1      48.971   6.025  15.706  0.00  0.00    +0.000 NA
BRANCH  19  21
ATOM     21  N   UNL     1      49.506   4.254  17.150  0.00  0.00    +0.000 N 
ATOM     22  C   UNL     1      50.642   3.856  17.993  0.00  0.00    +0.000 C 
ATOM     23  C   UNL     1      51.248   2.559  17.426  0.00  0.00    +0.000 C 
ATOM     24  O   UNL     1      50.267   1.512  17.333  0.00  0.00    +0.000 OA
ATOM     25  C   UNL     1      49.173   1.922  16.493  0.00  0.00    +0.000 C 
ATOM     26  C   UNL     1      48.490   3.192  17.033  0.00  0.00    +0.000 C 
ENDBRANCH  19  21
ENDBRANCH  14  15
ENDBRANCH   1  14
TORSDOF 5
ENDMDL
