MODEL 1
REMARK VINA RESULT:    -7.582      0.000      0.000
REMARK INTER + INTRA:         -11.203
REMARK INTER:                 -10.464
REMARK INTRA:                  -0.739
REMARK UNBOUND:                -0.739
REMARK  Name = 
REMARK  7 active torsions:
REMARK  status: ('A' for Active; 'I' for Inactive)
REMARK    1  A    between atoms: N_1  and  C_2
REMARK    2  A    between atoms: C_2  and  C_3
REMARK    3  A    between atoms: C_7  and  C_8
REMARK    4  A    between atoms: C_8  and  C_9
REMARK    5  A    between atoms: C_9  and  N_10
REMARK    6  A    between atoms: N_10  and  C_11
REMARK    7  A    between atoms: C_14  and  C_15
REMARK                            x       y       z     vdW  Elec       q    Type
REMARK                         _______ _______ _______ _____ _____    ______ ____
ROOT
ATOM      1  N   UNL     1      43.604   4.476   9.668  0.00  0.00    +0.000 N 
ATOM      2  H   UNL     1      42.774   4.673   9.119  0.00  0.00    +0.000 HD
ENDROOT
BRANCH   1   3
ATOM      3  C   UNL     1      44.654   3.833   9.023  0.00  0.00    +0.000 A 
ATOM      4  C   UNL     1      45.555   4.497   8.180  0.00  0.00    +0.000 A 
ATOM      5  C   UNL     1      46.530   3.798   7.454  0.00  0.00    +0.000 A 
ATOM      6  C   UNL     1      46.622   2.409   7.553  0.00  0.00    +0.000 A 
ATOM      7  C   UNL     1      45.726   1.725   8.378  0.00  0.00    +0.000 A 
ATOM      8  C   UNL     1      44.751   2.438   9.097  0.00  0.00    +0.000 A 
BRANCH   6   9
ATOM      9  C   UNL     1      47.644   1.716   6.729  0.00  0.00    +0.000 C 
ATOM     10  N   UNL     1      48.767   2.409   6.384  0.00  0.00    +0.000 N 
ATOM     11  O   UNL     1      47.481   0.559   6.342  0.00  0.00    +0.000 OA
ATOM     12  H   UNL     1      48.921   3.384   6.600  0.00  0.00    +0.000 HD
ATOM     13  H   UNL     1      49.431   1.937   5.784  0.00  0.00    +0.000 HD
ENDBRANCH   6   9
ENDBRANCH   1   3
BRANCH   1  14
ATOM     14  C   UNL     1      43.485   4.468  11.123  0.00  0.00    +0.000 C 
BRANCH  14  15
ATOM     15  C   UNL     1      43.705   5.865  11.725  0.00  0.00    +0.000 C 
BRANCH  15  20
ATOM     16  C   UNL     1      46.893   5.417  13.778  0.00  0.00    +0.000 A 
ATOM     17  C   UNL     1      47.816   6.153  13.025  0.00  0.00    +0.000 A 
ATOM     18  C   UNL     1      47.401   6.837  11.883  0.00  0.00    +0.000 A 
ATOM     19  C   UNL     1      46.067   6.776  11.472  0.00  0.00    +0.000 A 
ATOM     20  C   UNL     1      45.128   6.041  12.210  0.00  0.00    +0.000 A 
ATOM     21  C   UNL     1      45.550   5.383  13.374  0.00  0.00    +0.000 A 
BRANCH  16  22
ATOM     22  C   UNL     1      47.365   4.558  14.919  0.00  0.00    +0.000 C 
BRANCH  22  23
ATOM     23  N   UNL     1      47.408   3.164  14.496  0.00  0.00    +0.000 NA
ATOM     24  H   UNL     1      46.805   3.039  13.683  0.00  0.00    +0.000 HD
ATOM     25  H   UNL     1      47.020   2.583  15.238  0.00  0.00    +0.000 HD
ENDBRANCH  22  23
ENDBRANCH  16  22
ENDBRANCH  15  20
ENDBRANCH  14  15
ENDBRANCH   1  14
TORSDOF 7
ENDMDL
MODEL 2
REMARK VINA RESULT:    -7.382      1.588      2.307
REMARK INTER + INTRA:         -10.926
REMARK INTER:                 -10.261
REMARK INTRA:                  -0.664
REMARK UNBOUND:                -0.739
REMARK  Name = 
REMARK  7 active torsions:
REMARK  status: ('A' for Active; 'I' for Inactive)
REMARK    1  A    between atoms: N_1  and  C_2
REMARK    2  A    between atoms: C_2  and  C_3
REMARK    3  A    between atoms: C_7  and  C_8
REMARK    4  A    between atoms: C_8  and  C_9
REMARK    5  A    between atoms: C_9  and  N_10
REMARK    6  A    between atoms: N_10  and  C_11
REMARK    7  A    between atoms: C_14  and  C_15
REMARK                            x       y       z     vdW  Elec       q    Type
REMARK                         _______ _______ _______ _____ _____    ______ ____
ROOT
ATOM      1  N   UNL     1      43.599   3.983  10.067  0.00  0.00    +0.000 N 
ATOM      2  H   UNL     1      42.844   4.462   9.587  0.00  0.00    +0.000 HD
ENDROOT
BRANCH   1   3
ATOM      3  C   UNL     1      44.633   3.483   9.284  0.00  0.00    +0.000 A 
ATOM      4  C   UNL     1      45.367   4.273   8.390  0.00  0.00    +0.000 A 
ATOM      5  C   UNL     1      46.323   3.712   7.531  0.00  0.00    +0.000 A 
ATOM      6  C   UNL     1      46.565   2.337   7.546  0.00  0.00    +0.000 A 
ATOM      7  C   UNL     1      45.836   1.529   8.422  0.00  0.00    +0.000 A 
ATOM      8  C   UNL     1      44.877   2.104   9.274  0.00  0.00    +0.000 A 
BRANCH   6   9
ATOM      9  C   UNL     1      47.556   1.792   6.587  0.00  0.00    +0.000 C 
ATOM     10  N   UNL     1      48.676   2.529   6.332  0.00  0.00    +0.000 N 
ATOM     11  O   UNL     1      47.372   0.719   6.012  0.00  0.00    +0.000 OA
ATOM     12  H   UNL     1      48.845   3.452   6.707  0.00  0.00    +0.000 HD
ATOM     13  H   UNL     1      49.317   2.164   5.641  0.00  0.00    +0.000 HD
ENDBRANCH   6   9
ENDBRANCH   1   3
BRANCH   1  14
ATOM     14  C   UNL     1      43.353   3.482  11.416  0.00  0.00    +0.000 C 
BRANCH  14  15
ATOM     15  C   UNL     1      43.269   4.618  12.446  0.00  0.00    +0.000 C 
BRANCH  15  20
ATOM     16  C   UNL     1      45.907   7.378  12.481  0.00  0.00    +0.000 A 
ATOM     17  C   UNL     1      46.983   6.728  13.098  0.00  0.00    +0.000 A 
ATOM     18  C   UNL     1      46.878   5.385  13.456  0.00  0.00    +0.000 A 
ATOM     19  C   UNL     1      45.692   4.685  13.221  0.00  0.00    +0.000 A 
ATOM     20  C   UNL     1      44.601   5.319  12.609  0.00  0.00    +0.000 A 
ATOM     21  C   UNL     1      44.729   6.661  12.223  0.00  0.00    +0.000 A 
BRANCH  16  22
ATOM     22  C   UNL     1      45.964   8.860  12.232  0.00  0.00    +0.000 C 
BRANCH  22  23
ATOM     23  N   UNL     1      44.807   9.503  12.844  0.00  0.00    +0.000 NA
ATOM     24  H   UNL     1      44.649  10.408  12.400  0.00  0.00    +0.000 HD
ATOM     25  H   UNL     1      45.017   9.693  13.823  0.00  0.00    +0.000 HD
ENDBRANCH  22  23
ENDBRANCH  16  22
ENDBRANCH  15  20
ENDBRANCH  14  15
ENDBRANCH   1  14
TORSDOF 7
ENDMDL
MODEL 3
REMARK VINA RESULT:    -6.872      2.819      6.295
REMARK INTER + INTRA:         -10.222
REMARK INTER:                  -9.420
REMARK INTRA:                  -0.802
REMARK UNBOUND:                -0.739
REMARK  Name = 
REMARK  7 active torsions:
REMARK  status: ('A' for Active; 'I' for Inactive)
REMARK    1  A    between atoms: N_1  and  C_2
REMARK    2  A    between atoms: C_2  and  C_3
REMARK    3  A    between atoms: C_7  and  C_8
REMARK    4  A    between atoms: C_8  and  C_9
REMARK    5  A    between atoms: C_9  and  N_10
REMARK    6  A    between atoms: N_10  and  C_11
REMARK    7  A    between atoms: C_14  and  C_15
REMARK                            x       y       z     vdW  Elec       q    Type
REMARK                         _______ _______ _______ _____ _____    ______ ____
ROOT
ATOM      1  N   UNL     1      44.135   4.021  12.167  0.00  0.00    +0.000 N 
ATOM      2  H   UNL     1      43.550   3.780  12.960  0.00  0.00    +0.000 HD
ENDROOT
BRANCH   1   3
ATOM      3  C   UNL     1      45.175   4.916  12.395  0.00  0.00    +0.000 A 
ATOM      4  C   UNL     1      45.384   6.061  11.615  0.00  0.00    +0.000 A 
ATOM      5  C   UNL     1      46.509   6.877  11.798  0.00  0.00    +0.000 A 
ATOM      6  C   UNL     1      47.459   6.561  12.770  0.00  0.00    +0.000 A 
ATOM      7  C   UNL     1      47.277   5.417  13.551  0.00  0.00    +0.000 A 
ATOM      8  C   UNL     1      46.147   4.605  13.353  0.00  0.00    +0.000 A 
BRANCH   6   9
ATOM      9  C   UNL     1      48.651   7.435  12.892  0.00  0.00    +0.000 C 
ATOM     10  N   UNL     1      49.847   6.957  12.440  0.00  0.00    +0.000 N 
ATOM     11  O   UNL     1      48.581   8.551  13.407  0.00  0.00    +0.000 OA
ATOM     12  H   UNL     1      49.985   6.021  12.085  0.00  0.00    +0.000 HD
ATOM     13  H   UNL     1      50.657   7.548  12.574  0.00  0.00    +0.000 HD
ENDBRANCH   6   9
ENDBRANCH   1   3
BRANCH   1  14
ATOM     14  C   UNL     1      43.613   3.786  10.825  0.00  0.00    +0.000 C 
BRANCH  14  15
ATOM     15  C   UNL     1      44.196   2.511  10.196  0.00  0.00    +0.000 C 
BRANCH  15  20
ATOM     16  C   UNL     1      46.779   2.055   7.422  0.00  0.00    +0.000 A 
ATOM     17  C   UNL     1      46.965   3.374   6.993  0.00  0.00    +0.000 A 
ATOM     18  C   UNL     1      46.298   4.418   7.631  0.00  0.00    +0.000 A 
ATOM     19  C   UNL     1      45.424   4.153   8.689  0.00  0.00    +0.000 A 
ATOM     20  C   UNL     1      45.221   2.838   9.131  0.00  0.00    +0.000 A 
ATOM     21  C   UNL     1      45.922   1.798   8.502  0.00  0.00    +0.000 A 
BRANCH  16  22
ATOM     22  C   UNL     1      47.378   0.916   6.642  0.00  0.00    +0.000 C 
BRANCH  22  23
ATOM     23  N   UNL     1      48.243   1.443   5.594  0.00  0.00    +0.000 NA
ATOM     24  H   UNL     1      48.668   2.314   5.914  0.00  0.00    +0.000 HD
ATOM     25  H   UNL     1      47.672   1.678   4.784  0.00  0.00    +0.000 HD
ENDBRANCH  22  23
ENDBRANCH  16  22
ENDBRANCH  15  20
ENDBRANCH  14  15
ENDBRANCH   1  14
TORSDOF 7
ENDMDL
MODEL 4
REMARK VINA RESULT:    -6.600      1.957      2.262
REMARK INTER + INTRA:          -9.848
REMARK INTER:                  -9.357
REMARK INTRA:                  -0.491
REMARK UNBOUND:                -0.739
REMARK  Name = 
REMARK  7 active torsions:
REMARK  status: ('A' for Active; 'I' for Inactive)
REMARK    1  A    between atoms: N_1  and  C_2
REMARK    2  A    between atoms: C_2  and  C_3
REMARK    3  A    between atoms: C_7  and  C_8
REMARK    4  A    between atoms: C_8  and  C_9
REMARK    5  A    between atoms: C_9  and  N_10
REMARK    6  A    between atoms: N_10  and  C_11
REMARK    7  A    between atoms: C_14  and  C_15
REMARK                            x       y       z     vdW  Elec       q    Type
REMARK                         _______ _______ _______ _____ _____    ______ ____
ROOT
ATOM      1  N   UNL     1      43.908   3.550  10.306  0.00  0.00    +0.000 N 
ATOM      2  H   UNL     1      43.462   2.758  10.757  0.00  0.00    +0.000 HD
ENDROOT
BRANCH   1   3
ATOM      3  C   UNL     1      44.850   3.272   9.323  0.00  0.00    +0.000 A 
ATOM      4  C   UNL     1      45.298   4.228   8.401  0.00  0.00    +0.000 A 
ATOM      5  C   UNL     1      46.160   3.884   7.350  0.00  0.00    +0.000 A 
ATOM      6  C   UNL     1      46.593   2.566   7.194  0.00  0.00    +0.000 A 
ATOM      7  C   UNL     1      46.149   1.595   8.095  0.00  0.00    +0.000 A 
ATOM      8  C   UNL     1      45.281   1.953   9.141  0.00  0.00    +0.000 A 
BRANCH   6   9
ATOM      9  C   UNL     1      47.470   2.250   6.040  0.00  0.00    +0.000 C 
ATOM     10  N   UNL     1      48.820   2.329   6.219  0.00  0.00    +0.000 N 
ATOM     11  O   UNL     1      47.003   1.950   4.941  0.00  0.00    +0.000 OA
ATOM     12  H   UNL     1      49.262   2.649   7.070  0.00  0.00    +0.000 HD
ATOM     13  H   UNL     1      49.401   2.156   5.410  0.00  0.00    +0.000 HD
ENDBRANCH   6   9
ENDBRANCH   1   3
BRANCH   1  14
ATOM     14  C   UNL     1      43.873   4.842  10.984  0.00  0.00    +0.000 C 
BRANCH  14  15
ATOM     15  C   UNL     1      45.080   5.036  11.915  0.00  0.00    +0.000 C 
BRANCH  15  20
ATOM     16  C   UNL     1      46.690   8.217  13.280  0.00  0.00    +0.000 A 
ATOM     17  C   UNL     1      45.999   9.207  12.572  0.00  0.00    +0.000 A 
ATOM     18  C   UNL     1      44.976   8.854  11.692  0.00  0.00    +0.000 A 
ATOM     19  C   UNL     1      44.650   7.509  11.496  0.00  0.00    +0.000 A 
ATOM     20  C   UNL     1      45.334   6.502  12.193  0.00  0.00    +0.000 A 
ATOM     21  C   UNL     1      46.339   6.871  13.099  0.00  0.00    +0.000 A 
BRANCH  16  22
ATOM     22  C   UNL     1      47.889   8.583  14.112  0.00  0.00    +0.000 C 
BRANCH  22  23
ATOM     23  N   UNL     1      47.452   9.240  15.338  0.00  0.00    +0.000 NA
ATOM     24  H   UNL     1      48.268   9.485  15.899  0.00  0.00    +0.000 HD
ATOM     25  H   UNL     1      46.908   8.577  15.889  0.00  0.00    +0.000 HD
ENDBRANCH  22  23
ENDBRANCH  16  22
ENDBRANCH  15  20
ENDBRANCH  14  15
ENDBRANCH   1  14
TORSDOF 7
ENDMDL
MODEL 5
REMARK VINA RESULT:    -6.162      2.629      6.769
REMARK INTER + INTRA:          -9.242
REMARK INTER:                  -8.743
REMARK INTRA:                  -0.500
REMARK UNBOUND:                -0.739
REMARK  Name = 
REMARK  7 active torsions:
REMARK  status: ('A' for Active; 'I' for Inactive)
REMARK    1  A    between atoms: N_1  and  C_2
REMARK    2  A    between atoms: C_2  and  C_3
REMARK    3  A    between atoms: C_7  and  C_8
REMARK    4  A    between atoms: C_8  and  C_9
REMARK    5  A    between atoms: C_9  and  N_10
REMARK    6  A    between atoms: N_10  and  C_11
REMARK    7  A    between atoms: C_14  and  C_15
REMARK                            x       y       z     vdW  Elec       q    Type
REMARK                         _______ _______ _______ _____ _____    ______ ____
ROOT
ATOM      1  N   UNL     1      43.706   5.300  11.651  0.00  0.00    +0.000 N 
ATOM      2  H   UNL     1      42.872   5.715  12.053  0.00  0.00    +0.000 HD
ENDROOT
BRANCH   1   3
ATOM      3  C   UNL     1      44.917   5.579  12.274  0.00  0.00    +0.000 A 
ATOM      4  C   UNL     1      45.643   4.624  12.998  0.00  0.00    +0.000 A 
ATOM      5  C   UNL     1      46.800   4.969  13.711  0.00  0.00    +0.000 A 
ATOM      6  C   UNL     1      47.257   6.288  13.718  0.00  0.00    +0.000 A 
ATOM      7  C   UNL     1      46.542   7.259  13.013  0.00  0.00    +0.000 A 
ATOM      8  C   UNL     1      45.381   6.899  12.306  0.00  0.00    +0.000 A 
BRANCH   6   9
ATOM      9  C   UNL     1      48.462   6.606  14.524  0.00  0.00    +0.000 C 
ATOM     10  N   UNL     1      48.340   6.617  15.883  0.00  0.00    +0.000 N 
ATOM     11  O   UNL     1      49.538   6.878  13.991  0.00  0.00    +0.000 OA
ATOM     12  H   UNL     1      47.468   6.484  16.375  0.00  0.00    +0.000 HD
ATOM     13  H   UNL     1      49.160   6.881  16.414  0.00  0.00    +0.000 HD
ENDBRANCH   6   9
ENDBRANCH   1   3
BRANCH   1  14
ATOM     14  C   UNL     1      43.650   4.833  10.269  0.00  0.00    +0.000 C 
BRANCH  14  15
ATOM     15  C   UNL     1      44.995   5.008   9.548  0.00  0.00    +0.000 C 
BRANCH  15  20
ATOM     16  C   UNL     1      46.656   2.705   6.996  0.00  0.00    +0.000 A 
ATOM     17  C   UNL     1      46.349   1.442   7.517  0.00  0.00    +0.000 A 
ATOM     18  C   UNL     1      45.562   1.330   8.662  0.00  0.00    +0.000 A 
ATOM     19  C   UNL     1      45.093   2.476   9.309  0.00  0.00    +0.000 A 
ATOM     20  C   UNL     1      45.394   3.750   8.806  0.00  0.00    +0.000 A 
ATOM     21  C   UNL     1      46.158   3.850   7.634  0.00  0.00    +0.000 A 
BRANCH  16  22
ATOM     22  C   UNL     1      47.625   2.834   5.853  0.00  0.00    +0.000 C 
BRANCH  22  23
ATOM     23  N   UNL     1      48.469   1.647   5.791  0.00  0.00    +0.000 NA
ATOM     24  H   UNL     1      48.704   1.350   6.738  0.00  0.00    +0.000 HD
ATOM     25  H   UNL     1      49.348   1.891   5.337  0.00  0.00    +0.000 HD
ENDBRANCH  22  23
ENDBRANCH  16  22
ENDBRANCH  15  20
ENDBRANCH  14  15
ENDBRANCH   1  14
TORSDOF 7
ENDMDL
MODEL 6
REMARK VINA RESULT:    -6.121      2.979      5.365
REMARK INTER + INTRA:          -9.186
REMARK INTER:                  -8.653
REMARK INTRA:                  -0.532
REMARK UNBOUND:                -0.739
REMARK  Name = 
REMARK  7 active torsions:
REMARK  status: ('A' for Active; 'I' for Inactive)
REMARK    1  A    between atoms: N_1  and  C_2
REMARK    2  A    between atoms: C_2  and  C_3
REMARK    3  A    between atoms: C_7  and  C_8
REMARK    4  A    between atoms: C_8  and  C_9
REMARK    5  A    between atoms: C_9  and  N_10
REMARK    6  A    between atoms: N_10  and  C_11
REMARK    7  A    between atoms: C_14  and  C_15
REMARK                            x       y       z     vdW  Elec       q    Type
REMARK                         _______ _______ _______ _____ _____    ______ ____
ROOT
ATOM      1  N   UNL     1      47.136   7.048  13.875  0.00  0.00    +0.000 N 
ATOM      2  H   UNL     1      46.557   7.495  14.577  0.00  0.00    +0.000 HD
ENDROOT
BRANCH   1   3
ATOM      3  C   UNL     1      46.496   6.231  12.950  0.00  0.00    +0.000 A 
ATOM      4  C   UNL     1      46.312   6.591  11.609  0.00  0.00    +0.000 A 
ATOM      5  C   UNL     1      45.559   5.796  10.733  0.00  0.00    +0.000 A 
ATOM      6  C   UNL     1      44.966   4.615  11.185  0.00  0.00    +0.000 A 
ATOM      7  C   UNL     1      45.127   4.243  12.522  0.00  0.00    +0.000 A 
ATOM      8  C   UNL     1      45.880   5.053  13.390  0.00  0.00    +0.000 A 
BRANCH   6   9
ATOM      9  C   UNL     1      44.145   3.835  10.227  0.00  0.00    +0.000 C 
ATOM     10  N   UNL     1      43.984   4.331   8.966  0.00  0.00    +0.000 N 
ATOM     11  O   UNL     1      43.600   2.782  10.557  0.00  0.00    +0.000 OA
ATOM     12  H   UNL     1      44.336   5.228   8.660  0.00  0.00    +0.000 HD
ATOM     13  H   UNL     1      43.384   3.810   8.342  0.00  0.00    +0.000 HD
ENDBRANCH   6   9
ENDBRANCH   1   3
BRANCH   1  14
ATOM     14  C   UNL     1      48.569   6.931  14.130  0.00  0.00    +0.000 C 
BRANCH  14  15
ATOM     15  C   UNL     1      48.932   7.340  15.566  0.00  0.00    +0.000 C 
BRANCH  15  20
ATOM     16  C   UNL     1      48.898   3.937  17.297  0.00  0.00    +0.000 A 
ATOM     17  C   UNL     1      50.233   3.815  17.700  0.00  0.00    +0.000 A 
ATOM     18  C   UNL     1      51.134   4.852  17.462  0.00  0.00    +0.000 A 
ATOM     19  C   UNL     1      50.715   6.009  16.801  0.00  0.00    +0.000 A 
ATOM     20  C   UNL     1      49.384   6.149  16.384  0.00  0.00    +0.000 A 
ATOM     21  C   UNL     1      48.479   5.113  16.658  0.00  0.00    +0.000 A 
BRANCH  16  22
ATOM     22  C   UNL     1      47.963   2.764  17.417  0.00  0.00    +0.000 C 
BRANCH  22  23
ATOM     23  N   UNL     1      46.586   3.239  17.451  0.00  0.00    +0.000 NA
ATOM     24  H   UNL     1      46.404   3.682  18.351  0.00  0.00    +0.000 HD
ATOM     25  H   UNL     1      45.960   2.436  17.390  0.00  0.00    +0.000 HD
ENDBRANCH  22  23
ENDBRANCH  16  22
ENDBRANCH  15  20
ENDBRANCH  14  15
ENDBRANCH   1  14
TORSDOF 7
ENDMDL
MODEL 7
REMARK VINA RESULT:    -6.067      3.456      5.701
REMARK INTER + INTRA:          -9.111
REMARK INTER:                  -8.778
REMARK INTRA:                  -0.333
REMARK UNBOUND:                -0.739
REMARK  Name = 
REMARK  7 active torsions:
REMARK  status: ('A' for Active; 'I' for Inactive)
REMARK    1  A    between atoms: N_1  and  C_2
REMARK    2  A    between atoms: C_2  and  C_3
REMARK    3  A    between atoms: C_7  and  C_8
REMARK    4  A    between atoms: C_8  and  C_9
REMARK    5  A    between atoms: C_9  and  N_10
REMARK    6  A    between atoms: N_10  and  C_11
REMARK    7  A    between atoms: C_14  and  C_15
REMARK                            x       y       z     vdW  Elec       q    Type
REMARK                         _______ _______ _______ _____ _____    ______ ____
ROOT
ATOM      1  N   UNL     1      46.114   4.667  14.747  0.00  0.00    +0.000 N 
ATOM      2  H   UNL     1      45.312   4.367  15.291  0.00  0.00    +0.000 HD
ENDROOT
BRANCH   1   3
ATOM      3  C   UNL     1      45.980   4.665  13.364  0.00  0.00    +0.000 A 
ATOM      4  C   UNL     1      46.256   5.783  12.566  0.00  0.00    +0.000 A 
ATOM      5  C   UNL     1      45.998   5.783  11.188  0.00  0.00    +0.000 A 
ATOM      6  C   UNL     1      45.450   4.655  10.574  0.00  0.00    +0.000 A 
ATOM      7  C   UNL     1      45.156   3.533  11.351  0.00  0.00    +0.000 A 
ATOM      8  C   UNL     1      45.415   3.550  12.733  0.00  0.00    +0.000 A 
BRANCH   6   9
ATOM      9  C   UNL     1      45.158   4.724   9.121  0.00  0.00    +0.000 C 
ATOM     10  N   UNL     1      43.939   4.289   8.690  0.00  0.00    +0.000 N 
ATOM     11  O   UNL     1      45.993   5.136   8.316  0.00  0.00    +0.000 OA
ATOM     12  H   UNL     1      43.244   3.865   9.289  0.00  0.00    +0.000 HD
ATOM     13  H   UNL     1      43.774   4.300   7.692  0.00  0.00    +0.000 HD
ENDBRANCH   6   9
ENDBRANCH   1   3
BRANCH   1  14
ATOM     14  C   UNL     1      47.427   4.652  15.385  0.00  0.00    +0.000 C 
BRANCH  14  15
ATOM     15  C   UNL     1      47.543   3.536  16.435  0.00  0.00    +0.000 C 
BRANCH  15  20
ATOM     16  C   UNL     1      51.017   2.388  17.527  0.00  0.00    +0.000 A 
ATOM     17  C   UNL     1      51.530   3.556  18.103  0.00  0.00    +0.000 A 
ATOM     18  C   UNL     1      50.738   4.701  18.187  0.00  0.00    +0.000 A 
ATOM     19  C   UNL     1      49.437   4.696  17.679  0.00  0.00    +0.000 A 
ATOM     20  C   UNL     1      48.906   3.537  17.095  0.00  0.00    +0.000 A 
ATOM     21  C   UNL     1      49.700   2.382  17.045  0.00  0.00    +0.000 A 
BRANCH  16  22
ATOM     22  C   UNL     1      51.915   1.202  17.299  0.00  0.00    +0.000 C 
BRANCH  22  23
ATOM     23  N   UNL     1      51.532   0.120  18.197  0.00  0.00    +0.000 NA
ATOM     24  H   UNL     1      52.369  -0.377  18.503  0.00  0.00    +0.000 HD
ATOM     25  H   UNL     1      50.968  -0.553  17.680  0.00  0.00    +0.000 HD
ENDBRANCH  22  23
ENDBRANCH  16  22
ENDBRANCH  15  20
ENDBRANCH  14  15
ENDBRANCH   1  14
TORSDOF 7
ENDMDL
MODEL 8
REMARK VINA RESULT:    -6.024      4.214      7.757
REMARK INTER + INTRA:          -9.053
REMARK INTER:                  -8.600
REMARK INTRA:                  -0.453
REMARK UNBOUND:                -0.739
REMARK  Name = 
REMARK  7 active torsions:
REMARK  status: ('A' for Active; 'I' for Inactive)
REMARK    1  A    between atoms: N_1  and  C_2
REMARK    2  A    between atoms: C_2  and  C_3
REMARK    3  A    between atoms: C_7  and  C_8
REMARK    4  A    between atoms: C_8  and  C_9
REMARK    5  A    between atoms: C_9  and  N_10
REMARK    6  A    between atoms: N_10  and  C_11
REMARK    7  A    between atoms: C_14  and  C_15
REMARK                            x       y       z     vdW  Elec       q    Type
REMARK                         _______ _______ _______ _____ _____    ______ ____
ROOT
ATOM      1  N   UNL     1      47.444   4.831  16.320  0.00  0.00    +0.000 N 
ATOM      2  H   UNL     1      47.343   5.749  16.739  0.00  0.00    +0.000 HD
ENDROOT
BRANCH   1   3
ATOM      3  C   UNL     1      48.509   4.049  16.752  0.00  0.00    +0.000 A 
ATOM      4  C   UNL     1      49.687   4.589  17.286  0.00  0.00    +0.000 A 
ATOM      5  C   UNL     1      50.787   3.779  17.603  0.00  0.00    +0.000 A 
ATOM      6  C   UNL     1      50.733   2.401  17.387  0.00  0.00    +0.000 A 
ATOM      7  C   UNL     1      49.573   1.843  16.845  0.00  0.00    +0.000 A 
ATOM      8  C   UNL     1      48.480   2.668  16.527  0.00  0.00    +0.000 A 
BRANCH   6   9
ATOM      9  C   UNL     1      51.941   1.598  17.700  0.00  0.00    +0.000 C 
ATOM     10  N   UNL     1      51.767   0.293  18.061  0.00  0.00    +0.000 N 
ATOM     11  O   UNL     1      53.068   2.090  17.664  0.00  0.00    +0.000 OA
ATOM     12  H   UNL     1      50.866  -0.145  18.189  0.00  0.00    +0.000 HD
ATOM     13  H   UNL     1      52.597  -0.226  18.315  0.00  0.00    +0.000 HD
ENDBRANCH   6   9
ENDBRANCH   1   3
BRANCH   1  14
ATOM     14  C   UNL     1      46.780   4.575  15.045  0.00  0.00    +0.000 C 
BRANCH  14  15
ATOM     15  C   UNL     1      47.224   5.564  13.957  0.00  0.00    +0.000 C 
BRANCH  15  20
ATOM     16  C   UNL     1      44.734   4.132  11.441  0.00  0.00    +0.000 A 
ATOM     17  C   UNL     1      44.868   5.028  10.374  0.00  0.00    +0.000 A 
ATOM     18  C   UNL     1      45.798   6.065  10.442  0.00  0.00    +0.000 A 
ATOM     19  C   UNL     1      46.587   6.228  11.584  0.00  0.00    +0.000 A 
ATOM     20  C   UNL     1      46.465   5.344  12.665  0.00  0.00    +0.000 A 
ATOM     21  C   UNL     1      45.549   4.286  12.572  0.00  0.00    +0.000 A 
BRANCH  16  22
ATOM     22  C   UNL     1      43.631   3.109  11.433  0.00  0.00    +0.000 C 
BRANCH  22  23
ATOM     23  N   UNL     1      43.637   2.375  12.692  0.00  0.00    +0.000 NA
ATOM     24  H   UNL     1      43.416   1.395  12.512  0.00  0.00    +0.000 HD
ATOM     25  H   UNL     1      42.893   2.736  13.287  0.00  0.00    +0.000 HD
ENDBRANCH  22  23
ENDBRANCH  16  22
ENDBRANCH  15  20
ENDBRANCH  14  15
ENDBRANCH   1  14
TORSDOF 7
ENDMDL
MODEL 9
REMARK VINA RESULT:    -5.858      3.836      6.128
REMARK INTER + INTRA:          -8.823
REMARK INTER:                  -7.466
REMARK INTRA:                  -1.357
REMARK UNBOUND:                -0.739
REMARK  Name = 
REMARK  7 active torsions:
REMARK  status: ('A' for Active; 'I' for Inactive)
REMARK    1  A    between atoms: N_1  and  C_2
REMARK    2  A    between atoms: C_2  and  C_3
REMARK    3  A    between atoms: C_7  and  C_8
REMARK    4  A    between atoms: C_8  and  C_9
REMARK    5  A    between atoms: C_9  and  N_10
REMARK    6  A    between atoms: N_10  and  C_11
REMARK    7  A    between atoms: C_14  and  C_15
REMARK                            x       y       z     vdW  Elec       q    Type
REMARK                         _______ _______ _______ _____ _____    ______ ____
ROOT
ATOM      1  N   UNL     1      48.371   6.681  12.826  0.00  0.00    +0.000 N 
ATOM      2  H   UNL     1      49.111   6.000  12.959  0.00  0.00    +0.000 HD
ENDROOT
BRANCH   1   3
ATOM      3  C   UNL     1      47.115   6.193  12.486  0.00  0.00    +0.000 A 
ATOM      4  C   UNL     1      46.571   6.309  11.199  0.00  0.00    +0.000 A 
ATOM      5  C   UNL     1      45.256   5.911  10.920  0.00  0.00    +0.000 A 
ATOM      6  C   UNL     1      44.448   5.387  11.931  0.00  0.00    +0.000 A 
ATOM      7  C   UNL     1      44.966   5.273  13.224  0.00  0.00    +0.000 A 
ATOM      8  C   UNL     1      46.284   5.681  13.490  0.00  0.00    +0.000 A 
BRANCH   6   9
ATOM      9  C   UNL     1      43.051   5.022  11.590  0.00  0.00    +0.000 C 
ATOM     10  N   UNL     1      42.092   5.987  11.694  0.00  0.00    +0.000 N 
ATOM     11  O   UNL     1      42.751   3.878  11.248  0.00  0.00    +0.000 OA
ATOM     12  H   UNL     1      42.261   6.919  12.047  0.00  0.00    +0.000 HD
ATOM     13  H   UNL     1      41.139   5.709  11.502  0.00  0.00    +0.000 HD
ENDBRANCH   6   9
ENDBRANCH   1   3
BRANCH   1  14
ATOM     14  C   UNL     1      48.744   8.068  12.570  0.00  0.00    +0.000 C 
BRANCH  14  15
ATOM     15  C   UNL     1      47.805   9.057  13.278  0.00  0.00    +0.000 C 
BRANCH  15  20
ATOM     16  C   UNL     1      44.865  10.431  11.266  0.00  0.00    +0.000 A 
ATOM     17  C   UNL     1      45.455  11.523  10.619  0.00  0.00    +0.000 A 
ATOM     18  C   UNL     1      46.814  11.787  10.789  0.00  0.00    +0.000 A 
ATOM     19  C   UNL     1      47.589  10.977  11.622  0.00  0.00    +0.000 A 
ATOM     20  C   UNL     1      47.016   9.881  12.283  0.00  0.00    +0.000 A 
ATOM     21  C   UNL     1      45.656   9.606  12.079  0.00  0.00    +0.000 A 
BRANCH  16  22
ATOM     22  C   UNL     1      43.375  10.233  11.205  0.00  0.00    +0.000 C 
BRANCH  22  23
ATOM     23  N   UNL     1      43.080   8.849  10.854  0.00  0.00    +0.000 NA
ATOM     24  H   UNL     1      42.380   8.480  11.498  0.00  0.00    +0.000 HD
ATOM     25  H   UNL     1      43.921   8.290  10.989  0.00  0.00    +0.000 HD
ENDBRANCH  22  23
ENDBRANCH  16  22
ENDBRANCH  15  20
ENDBRANCH  14  15
ENDBRANCH   1  14
TORSDOF 7
ENDMDL
