MODEL 1
REMARK VINA RESULT:    -7.679      0.000      0.000
REMARK INTER + INTRA:         -10.721
REMARK INTER:                  -9.923
REMARK INTRA:                  -0.798
REMARK UNBOUND:                -0.798
REMARK  Name = 
REMARK  5 active torsions:
REMARK  status: ('A' for Active; 'I' for Inactive)
REMARK    1  A    between atoms: C_2  and  C_4
REMARK    2  A    between atoms: C_8  and  C_9
REMARK    3  A    between atoms: C_9  and  C_10
REMARK    4  A    between atoms: C_10  and  C_11
REMARK    5  A    between atoms: C_15  and  C_16
REMARK                            x       y       z     vdW  Elec       q    Type
REMARK                         _______ _______ _______ _____ _____    ______ ____
ROOT
ATOM      1  C   UNL     1      43.876   4.618  11.066  0.00  0.00    +0.000 C 
ENDROOT
BRANCH   1   2
ATOM      2  C   UNL     1      44.997   4.833  12.062  0.00  0.00    +0.000 A 
ATOM      3  C   UNL     1      45.617   3.777  12.740  0.00  0.00    +0.000 A 
ATOM      4  C   UNL     1      46.647   4.019  13.644  0.00  0.00    +0.000 A 
ATOM      5  C   UNL     1      47.125   5.315  13.820  0.00  0.00    +0.000 A 
ATOM      6  C   UNL     1      46.594   6.392  13.091  0.00  0.00    +0.000 A 
ATOM      7  C   UNL     1      45.501   6.133  12.247  0.00  0.00    +0.000 A 
BRANCH   6   8
ATOM      8  C   UNL     1      47.332   7.729  13.112  0.00  0.00    +0.000 C 
ATOM      9  C   UNL     1      48.164   8.022  11.851  0.00  0.00    +0.000 C 
ATOM     10  C   UNL     1      49.519   7.320  11.880  0.00  0.00    +0.000 C 
ATOM     11  N   UNL     1      50.294   7.677  13.069  0.00  0.00    +0.000 NA
ATOM     12  C   UNL     1      49.566   7.348  14.294  0.00  0.00    +0.000 C 
ATOM     13  C   UNL     1      48.197   8.026  14.353  0.00  0.00    +0.000 C 
ATOM     14  H   UNL     1      50.487   8.680  13.055  0.00  0.00    +0.000 HD
ENDBRANCH   6   8
ENDBRANCH   1   2
BRANCH   1  15
ATOM     15  C   UNL     1      43.962   3.288  10.314  0.00  0.00    +0.000 C 
BRANCH  15  20
ATOM     16  C   UNL     1      46.423   2.018   7.708  0.00  0.00    +0.000 A 
ATOM     17  C   UNL     1      46.861   3.219   7.136  0.00  0.00    +0.000 A 
ATOM     18  C   UNL     1      46.401   4.440   7.632  0.00  0.00    +0.000 A 
ATOM     19  C   UNL     1      45.488   4.470   8.686  0.00  0.00    +0.000 A 
ATOM     20  C   UNL     1      45.018   3.275   9.240  0.00  0.00    +0.000 A 
ATOM     21  C   UNL     1      45.501   2.052   8.759  0.00  0.00    +0.000 A 
BRANCH  16  23
ATOM     22  N   UNL     1      47.363   0.637   5.940  0.00  0.00    +0.000 N 
ATOM     23  C   UNL     1      46.877   0.693   7.214  0.00  0.00    +0.000 C 
ATOM     24  O   UNL     1      46.859  -0.302   7.924  0.00  0.00    +0.000 OA
ATOM     25  H   UNL     1      47.775  -0.246   5.657  0.00  0.00    +0.000 HD
ATOM     26  H   UNL     1      47.632   1.462   5.425  0.00  0.00    +0.000 HD
ENDBRANCH  16  23
ENDBRANCH  15  20
ENDBRANCH   1  15
TORSDOF 5
ENDMDL
MODEL 2
REMARK VINA RESULT:    -7.229      2.841      4.881
REMARK INTER + INTRA:         -10.139
REMARK INTER:                  -9.451
REMARK INTRA:                  -0.689
REMARK UNBOUND:                -0.798
REMARK  Name = 
REMARK  5 active torsions:
REMARK  status: ('A' for Active; 'I' for Inactive)
REMARK    1  A    between atoms: C_2  and  C_4
REMARK    2  A    between atoms: C_8  and  C_9
REMARK    3  A    between atoms: C_9  and  C_10
REMARK    4  A    between atoms: C_10  and  C_11
REMARK    5  A    between atoms: C_15  and  C_16
REMARK                            x       y       z     vdW  Elec       q    Type
REMARK                         _______ _______ _______ _____ _____    ______ ____
ROOT
ATOM      1  C   UNL     1      47.078   3.079   6.861  0.00  0.00    +0.000 C 
ENDROOT
BRANCH   1   2
ATOM      2  C   UNL     1      46.071   3.156   7.991  0.00  0.00    +0.000 A 
ATOM      3  C   UNL     1      45.447   2.022   8.523  0.00  0.00    +0.000 A 
ATOM      4  C   UNL     1      44.531   2.137   9.565  0.00  0.00    +0.000 A 
ATOM      5  C   UNL     1      44.291   3.381  10.142  0.00  0.00    +0.000 A 
ATOM      6  C   UNL     1      44.966   4.531   9.700  0.00  0.00    +0.000 A 
ATOM      7  C   UNL     1      45.822   4.401   8.594  0.00  0.00    +0.000 A 
BRANCH   6   8
ATOM      8  C   UNL     1      44.878   5.803  10.541  0.00  0.00    +0.000 C 
ATOM      9  C   UNL     1      46.196   6.217  11.217  0.00  0.00    +0.000 C 
ATOM     10  C   UNL     1      46.454   5.436  12.502  0.00  0.00    +0.000 C 
ATOM     11  N   UNL     1      45.354   5.573  13.457  0.00  0.00    +0.000 NA
ATOM     12  C   UNL     1      44.090   5.123  12.875  0.00  0.00    +0.000 C 
ATOM     13  C   UNL     1      43.747   5.869  11.586  0.00  0.00    +0.000 C 
ATOM     14  H   UNL     1      45.265   6.554  13.726  0.00  0.00    +0.000 HD
ENDBRANCH   6   8
ENDBRANCH   1   2
BRANCH   1  15
ATOM     15  C   UNL     1      47.615   1.670   6.604  0.00  0.00    +0.000 C 
BRANCH  15  20
ATOM     16  C   UNL     1      46.774  -0.870   3.901  0.00  0.00    +0.000 A 
ATOM     17  C   UNL     1      46.155  -0.057   2.944  0.00  0.00    +0.000 A 
ATOM     18  C   UNL     1      46.061   1.321   3.150  0.00  0.00    +0.000 A 
ATOM     19  C   UNL     1      46.565   1.892   4.318  0.00  0.00    +0.000 A 
ATOM     20  C   UNL     1      47.152   1.083   5.296  0.00  0.00    +0.000 A 
ATOM     21  C   UNL     1      47.270  -0.295   5.076  0.00  0.00    +0.000 A 
BRANCH  16  23
ATOM     22  N   UNL     1      46.179  -3.125   4.590  0.00  0.00    +0.000 N 
ATOM     23  C   UNL     1      46.895  -2.340   3.733  0.00  0.00    +0.000 C 
ATOM     24  O   UNL     1      47.570  -2.836   2.844  0.00  0.00    +0.000 OA
ATOM     25  H   UNL     1      46.179  -4.120   4.392  0.00  0.00    +0.000 HD
ATOM     26  H   UNL     1      45.424  -2.764   5.154  0.00  0.00    +0.000 HD
ENDBRANCH  16  23
ENDBRANCH  15  20
ENDBRANCH   1  15
TORSDOF 5
ENDMDL
MODEL 3
REMARK VINA RESULT:    -7.023      4.067      7.944
REMARK INTER + INTRA:          -9.873
REMARK INTER:                  -9.196
REMARK INTRA:                  -0.678
REMARK UNBOUND:                -0.798
REMARK  Name = 
REMARK  5 active torsions:
REMARK  status: ('A' for Active; 'I' for Inactive)
REMARK    1  A    between atoms: C_2  and  C_4
REMARK    2  A    between atoms: C_8  and  C_9
REMARK    3  A    between atoms: C_9  and  C_10
REMARK    4  A    between atoms: C_10  and  C_11
REMARK    5  A    between atoms: C_15  and  C_16
REMARK                            x       y       z     vdW  Elec       q    Type
REMARK                         _______ _______ _______ _____ _____    ______ ____
ROOT
ATOM      1  C   UNL     1      47.189   3.717  14.970  0.00  0.00    +0.000 C 
ENDROOT
BRANCH   1   2
ATOM      2  C   UNL     1      46.888   4.751  13.905  0.00  0.00    +0.000 A 
ATOM      3  C   UNL     1      47.725   5.845  13.657  0.00  0.00    +0.000 A 
ATOM      4  C   UNL     1      47.413   6.769  12.665  0.00  0.00    +0.000 A 
ATOM      5  C   UNL     1      46.301   6.564  11.852  0.00  0.00    +0.000 A 
ATOM      6  C   UNL     1      45.486   5.431  12.005  0.00  0.00    +0.000 A 
ATOM      7  C   UNL     1      45.776   4.557  13.067  0.00  0.00    +0.000 A 
BRANCH   6   8
ATOM      8  C   UNL     1      44.458   5.112  10.921  0.00  0.00    +0.000 C 
ATOM      9  C   UNL     1      43.173   4.441  11.433  0.00  0.00    +0.000 C 
ATOM     10  C   UNL     1      43.353   2.940  11.645  0.00  0.00    +0.000 C 
ATOM     11  N   UNL     1      43.802   2.266  10.426  0.00  0.00    +0.000 NA
ATOM     12  C   UNL     1      45.062   2.830   9.943  0.00  0.00    +0.000 C 
ATOM     13  C   UNL     1      44.964   4.334   9.691  0.00  0.00    +0.000 C 
ATOM     14  H   UNL     1      43.090   2.374   9.702  0.00  0.00    +0.000 HD
ENDBRANCH   6   8
ENDBRANCH   1   2
BRANCH   1  15
ATOM     15  C   UNL     1      47.305   4.296  16.382  0.00  0.00    +0.000 C 
BRANCH  15  20
ATOM     16  C   UNL     1      50.797   3.278  17.491  0.00  0.00    +0.000 A 
ATOM     17  C   UNL     1      51.413   4.526  17.638  0.00  0.00    +0.000 A 
ATOM     18  C   UNL     1      50.682   5.697  17.433  0.00  0.00    +0.000 A 
ATOM     19  C   UNL     1      49.339   5.630  17.060  0.00  0.00    +0.000 A 
ATOM     20  C   UNL     1      48.725   4.387  16.876  0.00  0.00    +0.000 A 
ATOM     21  C   UNL     1      49.453   3.214  17.108  0.00  0.00    +0.000 A 
BRANCH  16  23
ATOM     22  N   UNL     1      52.619   2.034  18.516  0.00  0.00    +0.000 N 
ATOM     23  C   UNL     1      51.532   2.003  17.692  0.00  0.00    +0.000 C 
ATOM     24  O   UNL     1      51.162   0.957  17.180  0.00  0.00    +0.000 OA
ATOM     25  H   UNL     1      53.041   1.138  18.735  0.00  0.00    +0.000 HD
ATOM     26  H   UNL     1      52.798   2.799  19.149  0.00  0.00    +0.000 HD
ENDBRANCH  16  23
ENDBRANCH  15  20
ENDBRANCH   1  15
TORSDOF 5
ENDMDL
MODEL 4
REMARK VINA RESULT:    -6.869      3.673      7.461
REMARK INTER + INTRA:          -9.675
REMARK INTER:                  -8.550
REMARK INTRA:                  -1.125
REMARK UNBOUND:                -0.798
REMARK  Name = 
REMARK  5 active torsions:
REMARK  status: ('A' for Active; 'I' for Inactive)
REMARK    1  A    between atoms: C_2  and  C_4
REMARK    2  A    between atoms: C_8  and  C_9
REMARK    3  A    between atoms: C_9  and  C_10
REMARK    4  A    between atoms: C_10  and  C_11
REMARK    5  A    between atoms: C_15  and  C_16
REMARK                            x       y       z     vdW  Elec       q    Type
REMARK                         _______ _______ _______ _____ _____    ______ ____
ROOT
ATOM      1  C   UNL     1      48.985   7.025  13.023  0.00  0.00    +0.000 C 
ENDROOT
BRANCH   1   2
ATOM      2  C   UNL     1      47.580   7.403  12.602  0.00  0.00    +0.000 A 
ATOM      3  C   UNL     1      47.166   8.733  12.464  0.00  0.00    +0.000 A 
ATOM      4  C   UNL     1      45.866   9.036  12.069  0.00  0.00    +0.000 A 
ATOM      5  C   UNL     1      44.988   8.010  11.728  0.00  0.00    +0.000 A 
ATOM      6  C   UNL     1      45.392   6.665  11.763  0.00  0.00    +0.000 A 
ATOM      7  C   UNL     1      46.681   6.382  12.243  0.00  0.00    +0.000 A 
BRANCH   6   8
ATOM      8  C   UNL     1      44.493   5.611  11.118  0.00  0.00    +0.000 C 
ATOM      9  C   UNL     1      43.071   5.539  11.699  0.00  0.00    +0.000 C 
ATOM     10  C   UNL     1      43.018   4.732  12.992  0.00  0.00    +0.000 C 
ATOM     11  N   UNL     1      43.540   3.376  12.814  0.00  0.00    +0.000 NA
ATOM     12  C   UNL     1      44.919   3.401  12.328  0.00  0.00    +0.000 C 
ATOM     13  C   UNL     1      45.059   4.181  11.021  0.00  0.00    +0.000 C 
ATOM     14  H   UNL     1      42.958   2.880  12.138  0.00  0.00    +0.000 HD
ENDBRANCH   6   8
ENDBRANCH   1   2
BRANCH   1  15
ATOM     15  C   UNL     1      49.433   7.669  14.337  0.00  0.00    +0.000 C 
BRANCH  15  20
ATOM     16  C   UNL     1      48.043   4.939  16.590  0.00  0.00    +0.000 A 
ATOM     17  C   UNL     1      48.077   5.570  17.839  0.00  0.00    +0.000 A 
ATOM     18  C   UNL     1      48.498   6.897  17.942  0.00  0.00    +0.000 A 
ATOM     19  C   UNL     1      48.905   7.595  16.805  0.00  0.00    +0.000 A 
ATOM     20  C   UNL     1      48.908   6.962  15.559  0.00  0.00    +0.000 A 
ATOM     21  C   UNL     1      48.461   5.639  15.453  0.00  0.00    +0.000 A 
BRANCH  16  23
ATOM     22  N   UNL     1      46.980   2.943  17.487  0.00  0.00    +0.000 N 
ATOM     23  C   UNL     1      47.610   3.528  16.427  0.00  0.00    +0.000 C 
ATOM     24  O   UNL     1      47.769   2.921  15.378  0.00  0.00    +0.000 OA
ATOM     25  H   UNL     1      46.589   2.022  17.323  0.00  0.00    +0.000 HD
ATOM     26  H   UNL     1      46.605   3.477  18.257  0.00  0.00    +0.000 HD
ENDBRANCH  16  23
ENDBRANCH  15  20
ENDBRANCH   1  15
TORSDOF 5
ENDMDL
MODEL 5
REMARK VINA RESULT:    -6.850      4.216      7.506
REMARK INTER + INTRA:          -9.650
REMARK INTER:                  -8.835
REMARK INTRA:                  -0.815
REMARK UNBOUND:                -0.798
REMARK  Name = 
REMARK  5 active torsions:
REMARK  status: ('A' for Active; 'I' for Inactive)
REMARK    1  A    between atoms: C_2  and  C_4
REMARK    2  A    between atoms: C_8  and  C_9
REMARK    3  A    between atoms: C_9  and  C_10
REMARK    4  A    between atoms: C_10  and  C_11
REMARK    5  A    between atoms: C_15  and  C_16
REMARK                            x       y       z     vdW  Elec       q    Type
REMARK                         _______ _______ _______ _____ _____    ______ ____
ROOT
ATOM      1  C   UNL     1      48.409   8.065  11.795  0.00  0.00    +0.000 C 
ENDROOT
BRANCH   1   2
ATOM      2  C   UNL     1      47.571   6.881  12.237  0.00  0.00    +0.000 A 
ATOM      3  C   UNL     1      47.740   6.260  13.480  0.00  0.00    +0.000 A 
ATOM      4  C   UNL     1      46.945   5.178  13.848  0.00  0.00    +0.000 A 
ATOM      5  C   UNL     1      45.917   4.757  13.009  0.00  0.00    +0.000 A 
ATOM      6  C   UNL     1      45.654   5.411  11.794  0.00  0.00    +0.000 A 
ATOM      7  C   UNL     1      46.522   6.446  11.409  0.00  0.00    +0.000 A 
BRANCH   6   8
ATOM      8  C   UNL     1      44.355   5.093  11.055  0.00  0.00    +0.000 C 
ATOM      9  C   UNL     1      43.275   4.418  11.917  0.00  0.00    +0.000 C 
ATOM     10  C   UNL     1      43.510   2.918  12.064  0.00  0.00    +0.000 C 
ATOM     11  N   UNL     1      43.587   2.246  10.765  0.00  0.00    +0.000 NA
ATOM     12  C   UNL     1      44.652   2.813   9.939  0.00  0.00    +0.000 C 
ATOM     13  C   UNL     1      44.483   4.318   9.729  0.00  0.00    +0.000 C 
ATOM     14  H   UNL     1      42.695   2.354  10.280  0.00  0.00    +0.000 HD
ENDBRANCH   6   8
ENDBRANCH   1   2
BRANCH   1  15
ATOM     15  C   UNL     1      48.093   9.361  12.543  0.00  0.00    +0.000 C 
BRANCH  15  20
ATOM     16  C   UNL     1      44.837  10.888  11.306  0.00  0.00    +0.000 A 
ATOM     17  C   UNL     1      45.307  11.993  10.587  0.00  0.00    +0.000 A 
ATOM     18  C   UNL     1      46.680  12.211  10.457  0.00  0.00    +0.000 A 
ATOM     19  C   UNL     1      47.589  11.341  11.059  0.00  0.00    +0.000 A 
ATOM     20  C   UNL     1      47.128  10.255  11.809  0.00  0.00    +0.000 A 
ATOM     21  C   UNL     1      45.751  10.022  11.916  0.00  0.00    +0.000 A 
BRANCH  16  23
ATOM     22  N   UNL     1      42.925   9.407  11.040  0.00  0.00    +0.000 N 
ATOM     23  C   UNL     1      43.388  10.613  11.480  0.00  0.00    +0.000 C 
ATOM     24  O   UNL     1      42.640  11.410  12.028  0.00  0.00    +0.000 OA
ATOM     25  H   UNL     1      41.962   9.186  11.268  0.00  0.00    +0.000 HD
ATOM     26  H   UNL     1      43.540   8.636  10.826  0.00  0.00    +0.000 HD
ENDBRANCH  16  23
ENDBRANCH  15  20
ENDBRANCH   1  15
TORSDOF 5
ENDMDL
MODEL 6
REMARK VINA RESULT:    -6.804      2.920      4.789
REMARK INTER + INTRA:          -9.590
REMARK INTER:                  -8.928
REMARK INTRA:                  -0.662
REMARK UNBOUND:                -0.798
REMARK  Name = 
REMARK  5 active torsions:
REMARK  status: ('A' for Active; 'I' for Inactive)
REMARK    1  A    between atoms: C_2  and  C_4
REMARK    2  A    between atoms: C_8  and  C_9
REMARK    3  A    between atoms: C_9  and  C_10
REMARK    4  A    between atoms: C_10  and  C_11
REMARK    5  A    between atoms: C_15  and  C_16
REMARK                            x       y       z     vdW  Elec       q    Type
REMARK                         _______ _______ _______ _____ _____    ______ ____
ROOT
ATOM      1  C   UNL     1      47.089   6.637  12.152  0.00  0.00    +0.000 C 
ENDROOT
BRANCH   1   2
ATOM      2  C   UNL     1      47.735   6.496  13.515  0.00  0.00    +0.000 A 
ATOM      3  C   UNL     1      48.599   7.462  14.044  0.00  0.00    +0.000 A 
ATOM      4  C   UNL     1      49.167   7.295  15.304  0.00  0.00    +0.000 A 
ATOM      5  C   UNL     1      48.812   6.197  16.084  0.00  0.00    +0.000 A 
ATOM      6  C   UNL     1      47.877   5.252  15.629  0.00  0.00    +0.000 A 
ATOM      7  C   UNL     1      47.382   5.400  14.323  0.00  0.00    +0.000 A 
BRANCH   6   8
ATOM      8  C   UNL     1      47.318   4.235  16.622  0.00  0.00    +0.000 C 
ATOM      9  C   UNL     1      47.233   4.737  18.074  0.00  0.00    +0.000 C 
ATOM     10  C   UNL     1      48.574   4.640  18.795  0.00  0.00    +0.000 C 
ATOM     11  N   UNL     1      49.107   3.277  18.781  0.00  0.00    +0.000 NA
ATOM     12  C   UNL     1      49.270   2.787  17.412  0.00  0.00    +0.000 C 
ATOM     13  C   UNL     1      47.963   2.836  16.621  0.00  0.00    +0.000 C 
ATOM     14  H   UNL     1      48.464   2.661  19.280  0.00  0.00    +0.000 HD
ENDBRANCH   6   8
ENDBRANCH   1   2
BRANCH   1  15
ATOM     15  C   UNL     1      45.566   6.782  12.198  0.00  0.00    +0.000 C 
BRANCH  15  20
ATOM     16  C   UNL     1      44.462   3.593  10.444  0.00  0.00    +0.000 A 
ATOM     17  C   UNL     1      43.615   3.030  11.406  0.00  0.00    +0.000 A 
ATOM     18  C   UNL     1      43.359   3.710  12.598  0.00  0.00    +0.000 A 
ATOM     19  C   UNL     1      43.960   4.944  12.846  0.00  0.00    +0.000 A 
ATOM     20  C   UNL     1      44.835   5.497  11.906  0.00  0.00    +0.000 A 
ATOM     21  C   UNL     1      45.071   4.827  10.700  0.00  0.00    +0.000 A 
BRANCH  16  23
ATOM     22  N   UNL     1      44.308   3.490   8.019  0.00  0.00    +0.000 N 
ATOM     23  C   UNL     1      44.773   2.909   9.163  0.00  0.00    +0.000 C 
ATOM     24  O   UNL     1      45.449   1.892   9.121  0.00  0.00    +0.000 OA
ATOM     25  H   UNL     1      44.623   3.077   7.148  0.00  0.00    +0.000 HD
ATOM     26  H   UNL     1      43.979   4.443   7.989  0.00  0.00    +0.000 HD
ENDBRANCH  16  23
ENDBRANCH  15  20
ENDBRANCH   1  15
TORSDOF 5
ENDMDL
MODEL 7
REMARK VINA RESULT:    -6.294      3.176      4.721
REMARK INTER + INTRA:          -8.931
REMARK INTER:                  -8.284
REMARK INTRA:                  -0.648
REMARK UNBOUND:                -0.798
REMARK  Name = 
REMARK  5 active torsions:
REMARK  status: ('A' for Active; 'I' for Inactive)
REMARK    1  A    between atoms: C_2  and  C_4
REMARK    2  A    between atoms: C_8  and  C_9
REMARK    3  A    between atoms: C_9  and  C_10
REMARK    4  A    between atoms: C_10  and  C_11
REMARK    5  A    between atoms: C_15  and  C_16
REMARK                            x       y       z     vdW  Elec       q    Type
REMARK                         _______ _______ _______ _____ _____    ______ ____
ROOT
ATOM      1  C   UNL     1      47.662   6.503  12.616  0.00  0.00    +0.000 C 
ENDROOT
BRANCH   1   2
ATOM      2  C   UNL     1      47.650   5.822  13.969  0.00  0.00    +0.000 A 
ATOM      3  C   UNL     1      47.005   4.600  14.193  0.00  0.00    +0.000 A 
ATOM      4  C   UNL     1      47.023   4.006  15.451  0.00  0.00    +0.000 A 
ATOM      5  C   UNL     1      47.757   4.587  16.482  0.00  0.00    +0.000 A 
ATOM      6  C   UNL     1      48.495   5.765  16.276  0.00  0.00    +0.000 A 
ATOM      7  C   UNL     1      48.393   6.388  15.020  0.00  0.00    +0.000 A 
BRANCH   6   8
ATOM      8  C   UNL     1      49.495   6.202  17.344  0.00  0.00    +0.000 C 
ATOM      9  C   UNL     1      50.912   5.630  17.167  0.00  0.00    +0.000 C 
ATOM     10  C   UNL     1      51.028   4.205  17.701  0.00  0.00    +0.000 C 
ATOM     11  N   UNL     1      50.638   4.114  19.109  0.00  0.00    +0.000 NA
ATOM     12  C   UNL     1      49.268   4.584  19.309  0.00  0.00    +0.000 C 
ATOM     13  C   UNL     1      49.068   6.016  18.813  0.00  0.00    +0.000 C 
ATOM     14  H   UNL     1      51.272   4.687  19.669  0.00  0.00    +0.000 HD
ENDBRANCH   6   8
ENDBRANCH   1   2
BRANCH   1  15
ATOM     15  C   UNL     1      46.349   7.207  12.264  0.00  0.00    +0.000 C 
BRANCH  15  20
ATOM     16  C   UNL     1      44.499   4.576  10.234  0.00  0.00    +0.000 A 
ATOM     17  C   UNL     1      43.354   4.382  11.015  0.00  0.00    +0.000 A 
ATOM     18  C   UNL     1      43.155   5.143  12.168  0.00  0.00    +0.000 A 
ATOM     19  C   UNL     1      44.105   6.086  12.559  0.00  0.00    +0.000 A 
ATOM     20  C   UNL     1      45.269   6.262  11.805  0.00  0.00    +0.000 A 
ATOM     21  C   UNL     1      45.455   5.517  10.634  0.00  0.00    +0.000 A 
BRANCH  16  23
ATOM     22  N   UNL     1      44.509   2.450   9.054  0.00  0.00    +0.000 N 
ATOM     23  C   UNL     1      44.761   3.790   9.002  0.00  0.00    +0.000 C 
ATOM     24  O   UNL     1      45.147   4.316   7.969  0.00  0.00    +0.000 OA
ATOM     25  H   UNL     1      44.581   1.946   8.177  0.00  0.00    +0.000 HD
ATOM     26  H   UNL     1      43.956   2.029   9.786  0.00  0.00    +0.000 HD
ENDBRANCH  16  23
ENDBRANCH  15  20
ENDBRANCH   1  15
TORSDOF 5
ENDMDL
MODEL 8
REMARK VINA RESULT:    -6.249      3.659      5.761
REMARK INTER + INTRA:          -8.874
REMARK INTER:                  -7.932
REMARK INTRA:                  -0.941
REMARK UNBOUND:                -0.798
REMARK  Name = 
REMARK  5 active torsions:
REMARK  status: ('A' for Active; 'I' for Inactive)
REMARK    1  A    between atoms: C_2  and  C_4
REMARK    2  A    between atoms: C_8  and  C_9
REMARK    3  A    between atoms: C_9  and  C_10
REMARK    4  A    between atoms: C_10  and  C_11
REMARK    5  A    between atoms: C_15  and  C_16
REMARK                            x       y       z     vdW  Elec       q    Type
REMARK                         _______ _______ _______ _____ _____    ______ ____
ROOT
ATOM      1  C   UNL     1      48.391   7.549  13.607  0.00  0.00    +0.000 C 
ENDROOT
BRANCH   1   2
ATOM      2  C   UNL     1      48.628   7.396  15.096  0.00  0.00    +0.000 A 
ATOM      3  C   UNL     1      48.886   8.486  15.935  0.00  0.00    +0.000 A 
ATOM      4  C   UNL     1      49.093   8.300  17.299  0.00  0.00    +0.000 A 
ATOM      5  C   UNL     1      48.963   7.029  17.853  0.00  0.00    +0.000 A 
ATOM      6  C   UNL     1      48.614   5.922  17.062  0.00  0.00    +0.000 A 
ATOM      7  C   UNL     1      48.492   6.122  15.677  0.00  0.00    +0.000 A 
BRANCH   6   8
ATOM      8  C   UNL     1      48.213   4.621  17.754  0.00  0.00    +0.000 C 
ATOM      9  C   UNL     1      49.388   3.813  18.331  0.00  0.00    +0.000 C 
ATOM     10  C   UNL     1      50.092   2.980  17.264  0.00  0.00    +0.000 C 
ATOM     11  N   UNL     1      49.168   2.074  16.580  0.00  0.00    +0.000 NA
ATOM     12  C   UNL     1      48.070   2.812  15.955  0.00  0.00    +0.000 C 
ATOM     13  C   UNL     1      47.300   3.665  16.963  0.00  0.00    +0.000 C 
ATOM     14  H   UNL     1      48.783   1.414  17.257  0.00  0.00    +0.000 HD
ENDBRANCH   6   8
ENDBRANCH   1   2
BRANCH   1  15
ATOM     15  C   UNL     1      48.050   6.239  12.895  0.00  0.00    +0.000 C 
BRANCH  15  20
ATOM     16  C   UNL     1      44.647   4.923  11.821  0.00  0.00    +0.000 A 
ATOM     17  C   UNL     1      43.977   6.113  11.515  0.00  0.00    +0.000 A 
ATOM     18  C   UNL     1      44.645   7.335  11.602  0.00  0.00    +0.000 A 
ATOM     19  C   UNL     1      45.976   7.380  12.015  0.00  0.00    +0.000 A 
ATOM     20  C   UNL     1      46.643   6.200  12.357  0.00  0.00    +0.000 A 
ATOM     21  C   UNL     1      45.980   4.972  12.243  0.00  0.00    +0.000 A 
BRANCH  16  23
ATOM     22  N   UNL     1      44.523   2.588  12.492  0.00  0.00    +0.000 N 
ATOM     23  C   UNL     1      43.982   3.597  11.750  0.00  0.00    +0.000 C 
ATOM     24  O   UNL     1      42.968   3.417  11.091  0.00  0.00    +0.000 OA
ATOM     25  H   UNL     1      43.995   1.723  12.525  0.00  0.00    +0.000 HD
ATOM     26  H   UNL     1      45.186   2.756  13.235  0.00  0.00    +0.000 HD
ENDBRANCH  16  23
ENDBRANCH  15  20
ENDBRANCH   1  15
TORSDOF 5
ENDMDL
MODEL 9
REMARK VINA RESULT:    -6.239      4.137      6.244
REMARK INTER + INTRA:          -8.860
REMARK INTER:                  -7.481
REMARK INTRA:                  -1.379
REMARK UNBOUND:                -0.798
REMARK  Name = 
REMARK  5 active torsions:
REMARK  status: ('A' for Active; 'I' for Inactive)
REMARK    1  A    between atoms: C_2  and  C_4
REMARK    2  A    between atoms: C_8  and  C_9
REMARK    3  A    between atoms: C_9  and  C_10
REMARK    4  A    between atoms: C_10  and  C_11
REMARK    5  A    between atoms: C_15  and  C_16
REMARK                            x       y       z     vdW  Elec       q    Type
REMARK                         _______ _______ _______ _____ _____    ______ ____
ROOT
ATOM      1  C   UNL     1      49.464   8.402  13.549  0.00  0.00    +0.000 C 
ENDROOT
BRANCH   1   2
ATOM      2  C   UNL     1      49.136   8.426  15.028  0.00  0.00    +0.000 A 
ATOM      3  C   UNL     1      48.449   9.485  15.632  0.00  0.00    +0.000 A 
ATOM      4  C   UNL     1      48.164   9.464  16.994  0.00  0.00    +0.000 A 
ATOM      5  C   UNL     1      48.491   8.343  17.753  0.00  0.00    +0.000 A 
ATOM      6  C   UNL     1      49.098   7.219  17.168  0.00  0.00    +0.000 A 
ATOM      7  C   UNL     1      49.449   7.300  15.810  0.00  0.00    +0.000 A 
BRANCH   6   8
ATOM      8  C   UNL     1      49.178   5.924  17.974  0.00  0.00    +0.000 C 
ATOM      9  C   UNL     1      49.040   4.639  17.139  0.00  0.00    +0.000 C 
ATOM     10  C   UNL     1      47.583   4.308  16.830  0.00  0.00    +0.000 C 
ATOM     11  N   UNL     1      46.779   4.187  18.048  0.00  0.00    +0.000 NA
ATOM     12  C   UNL     1      46.827   5.416  18.838  0.00  0.00    +0.000 C 
ATOM     13  C   UNL     1      48.257   5.813  19.205  0.00  0.00    +0.000 C 
ATOM     14  H   UNL     1      47.139   3.415  18.611  0.00  0.00    +0.000 HD
ENDBRANCH   6   8
ENDBRANCH   1   2
BRANCH   1  15
ATOM     15  C   UNL     1      49.102   7.088  12.854  0.00  0.00    +0.000 C 
BRANCH  15  20
ATOM     16  C   UNL     1      45.694   5.402  12.795  0.00  0.00    +0.000 A 
ATOM     17  C   UNL     1      44.850   6.497  12.578  0.00  0.00    +0.000 A 
ATOM     18  C   UNL     1      45.389   7.771  12.394  0.00  0.00    +0.000 A 
ATOM     19  C   UNL     1      46.769   7.964  12.447  0.00  0.00    +0.000 A 
ATOM     20  C   UNL     1      47.618   6.882  12.700  0.00  0.00    +0.000 A 
ATOM     21  C   UNL     1      47.078   5.600  12.857  0.00  0.00    +0.000 A 
BRANCH  16  23
ATOM     22  N   UNL     1      43.830   3.896  13.211  0.00  0.00    +0.000 N 
ATOM     23  C   UNL     1      45.172   4.027  13.002  0.00  0.00    +0.000 C 
ATOM     24  O   UNL     1      45.898   3.045  12.948  0.00  0.00    +0.000 OA
ATOM     25  H   UNL     1      43.471   2.948  13.236  0.00  0.00    +0.000 HD
ATOM     26  H   UNL     1      43.174   4.635  13.008  0.00  0.00    +0.000 HD
ENDBRANCH  16  23
ENDBRANCH  15  20
ENDBRANCH   1  15
TORSDOF 5
ENDMDL
