MODEL 1
REMARK VINA RESULT:    -8.274      0.000      0.000
REMARK INTER + INTRA:         -13.843
REMARK INTER:                 -12.869
REMARK INTRA:                  -0.975
REMARK UNBOUND:                -0.975
REMARK  Name = 
REMARK  10 active torsions:
REMARK  status: ('A' for Active; 'I' for Inactive)
REMARK    1  A    between atoms: C_2  and  C_23
REMARK    2  A    between atoms: N_3  and  C_4
REMARK    3  A    between atoms: C_4  and  C_5
REMARK    4  A    between atoms: C_8  and  C_9
REMARK    5  A    between atoms: C_9  and  N_10
REMARK    6  A    between atoms: N_10  and  C_11
REMARK    7  A    between atoms: N_10  and  C_14
REMARK    8  A    between atoms: C_11  and  C_12
REMARK    9  A    between atoms: C_12  and  O_13
REMARK   10  A    between atoms: C_14  and  C_15
REMARK                            x       y       z     vdW  Elec       q    Type
REMARK                         _______ _______ _______ _____ _____    ______ ____
ROOT
ATOM      1  C   UNL     1      48.064   6.492  13.811  0.00  0.00    +0.000 A 
ATOM      2  C   UNL     1      47.132   5.464  14.009  0.00  0.00    +0.000 A 
ATOM      3  C   UNL     1      46.163   5.194  13.042  0.00  0.00    +0.000 A 
ATOM      4  C   UNL     1      46.106   5.951  11.864  0.00  0.00    +0.000 A 
ATOM      5  C   UNL     1      47.103   6.905  11.621  0.00  0.00    +0.000 A 
ATOM      6  C   UNL     1      48.078   7.170  12.586  0.00  0.00    +0.000 A 
ENDROOT
BRANCH   1   7
ATOM      7  C   UNL     1      49.008   6.886  14.915  0.00  0.00    +0.000 C 
BRANCH   7  10
ATOM      8  O   UNL     1      50.707   5.576  16.650  0.00  0.00    +0.000 OA
ATOM      9  C   UNL     1      49.539   5.721  16.992  0.00  0.00    +0.000 C 
ATOM     10  N   UNL     1      48.610   6.347  16.186  0.00  0.00    +0.000 N 
ATOM     11  H   UNL     1      47.686   6.547  16.530  0.00  0.00    +0.000 HD
BRANCH   9  12
ATOM     12  C   UNL     1      49.028   5.254  18.281  0.00  0.00    +0.000 A 
ATOM     13  C   UNL     1      48.953   3.945  18.735  0.00  0.00    +0.000 A 
ATOM     14  N   UNL     1      48.414   3.947  19.995  0.00  0.00    +0.000 N 
ATOM     15  C   UNL     1      48.135   5.230  20.390  0.00  0.00    +0.000 A 
ATOM     16  C   UNL     1      47.592   5.709  21.575  0.00  0.00    +0.000 A 
ATOM     17  N   UNL     1      47.414   7.039  21.730  0.00  0.00    +0.000 NA
ATOM     18  C   UNL     1      47.772   7.867  20.724  0.00  0.00    +0.000 A 
ATOM     19  C   UNL     1      48.317   7.455  19.517  0.00  0.00    +0.000 A 
ATOM     20  C   UNL     1      48.508   6.074  19.343  0.00  0.00    +0.000 A 
ATOM     21  H   UNL     1      48.252   3.124  20.562  0.00  0.00    +0.000 HD
ENDBRANCH   9  12
ENDBRANCH   7  10
ENDBRANCH   1   7
BRANCH   4  22
ATOM     22  C   UNL     1      44.940   5.789  10.908  0.00  0.00    +0.000 C 
BRANCH  22  23
ATOM     23  N   UNL     1      44.527   4.372  10.719  0.00  0.00    +0.000 NA
BRANCH  23  24
ATOM     24  C   UNL     1      43.298   4.078  11.501  0.00  0.00    +0.000 C 
BRANCH  24  25
ATOM     25  C   UNL     1      42.505   5.311  11.973  0.00  0.00    +0.000 C 
BRANCH  25  26
ATOM     26  O   UNL     1      42.554   5.423  13.395  0.00  0.00    +0.000 OA
ATOM     27  H   UNL     1      43.008   4.630  13.730  0.00  0.00    +0.000 HD
ENDBRANCH  25  26
ENDBRANCH  24  25
ENDBRANCH  23  24
BRANCH  23  28
ATOM     28  C   UNL     1      44.288   4.106   9.286  0.00  0.00    +0.000 C 
BRANCH  28  29
ATOM     29  C   UNL     1      45.348   3.280   8.590  0.00  0.00    +0.000 A 
ATOM     30  C   UNL     1      45.440   1.898   8.806  0.00  0.00    +0.000 A 
ATOM     31  C   UNL     1      46.332   1.124   8.059  0.00  0.00    +0.000 A 
ATOM     32  C   UNL     1      47.143   1.726   7.098  0.00  0.00    +0.000 A 
ATOM     33  C   UNL     1      47.079   3.103   6.895  0.00  0.00    +0.000 A 
ATOM     34  C   UNL     1      46.188   3.878   7.638  0.00  0.00    +0.000 A 
ENDBRANCH  28  29
ENDBRANCH  23  28
ENDBRANCH  22  23
ENDBRANCH   4  22
TORSDOF 10
ENDMDL
MODEL 2
REMARK VINA RESULT:    -7.984      2.051      2.803
REMARK INTER + INTRA:         -13.392
REMARK INTER:                 -12.204
REMARK INTRA:                  -1.188
REMARK UNBOUND:                -0.975
REMARK  Name = 
REMARK  10 active torsions:
REMARK  status: ('A' for Active; 'I' for Inactive)
REMARK    1  A    between atoms: C_2  and  C_23
REMARK    2  A    between atoms: N_3  and  C_4
REMARK    3  A    between atoms: C_4  and  C_5
REMARK    4  A    between atoms: C_8  and  C_9
REMARK    5  A    between atoms: C_9  and  N_10
REMARK    6  A    between atoms: N_10  and  C_11
REMARK    7  A    between atoms: N_10  and  C_14
REMARK    8  A    between atoms: C_11  and  C_12
REMARK    9  A    between atoms: C_12  and  O_13
REMARK   10  A    between atoms: C_14  and  C_15
REMARK                            x       y       z     vdW  Elec       q    Type
REMARK                         _______ _______ _______ _____ _____    ______ ____
ROOT
ATOM      1  C   UNL     1      46.913   8.079  12.947  0.00  0.00    +0.000 A 
ATOM      2  C   UNL     1      47.501   7.172  12.055  0.00  0.00    +0.000 A 
ATOM      3  C   UNL     1      46.706   6.403  11.203  0.00  0.00    +0.000 A 
ATOM      4  C   UNL     1      45.311   6.523  11.235  0.00  0.00    +0.000 A 
ATOM      5  C   UNL     1      44.732   7.507  12.048  0.00  0.00    +0.000 A 
ATOM      6  C   UNL     1      45.528   8.282  12.895  0.00  0.00    +0.000 A 
ENDROOT
BRANCH   1   7
ATOM      7  C   UNL     1      47.754   8.794  13.969  0.00  0.00    +0.000 C 
BRANCH   7  10
ATOM      8  O   UNL     1      50.144   7.474  14.362  0.00  0.00    +0.000 OA
ATOM      9  C   UNL     1      49.278   7.359  15.221  0.00  0.00    +0.000 C 
ATOM     10  N   UNL     1      48.044   7.966  15.107  0.00  0.00    +0.000 N 
ATOM     11  H   UNL     1      47.389   7.944  15.870  0.00  0.00    +0.000 HD
BRANCH   9  12
ATOM     12  C   UNL     1      49.473   6.578  16.443  0.00  0.00    +0.000 A 
ATOM     13  C   UNL     1      50.358   6.840  17.480  0.00  0.00    +0.000 A 
ATOM     14  N   UNL     1      50.221   5.865  18.433  0.00  0.00    +0.000 N 
ATOM     15  C   UNL     1      49.259   4.964  18.054  0.00  0.00    +0.000 A 
ATOM     16  C   UNL     1      48.785   3.829  18.699  0.00  0.00    +0.000 A 
ATOM     17  N   UNL     1      47.814   3.093  18.114  0.00  0.00    +0.000 NA
ATOM     18  C   UNL     1      47.331   3.486  16.915  0.00  0.00    +0.000 A 
ATOM     19  C   UNL     1      47.760   4.606  16.218  0.00  0.00    +0.000 A 
ATOM     20  C   UNL     1      48.769   5.380  16.815  0.00  0.00    +0.000 A 
ATOM     21  H   UNL     1      50.744   5.817  19.298  0.00  0.00    +0.000 HD
ENDBRANCH   9  12
ENDBRANCH   7  10
ENDBRANCH   1   7
BRANCH   4  22
ATOM     22  C   UNL     1      44.442   5.554  10.455  0.00  0.00    +0.000 C 
BRANCH  22  23
ATOM     23  N   UNL     1      45.071   4.218  10.273  0.00  0.00    +0.000 NA
BRANCH  23  24
ATOM     24  C   UNL     1      44.785   3.342  11.438  0.00  0.00    +0.000 C 
BRANCH  24  25
ATOM     25  C   UNL     1      43.295   3.187  11.797  0.00  0.00    +0.000 C 
BRANCH  25  26
ATOM     26  O   UNL     1      42.901   1.817  11.720  0.00  0.00    +0.000 OA
ATOM     27  H   UNL     1      42.907   1.570  10.778  0.00  0.00    +0.000 HD
ENDBRANCH  25  26
ENDBRANCH  24  25
ENDBRANCH  23  24
BRANCH  23  28
ATOM     28  C   UNL     1      44.564   3.591   9.035  0.00  0.00    +0.000 C 
BRANCH  28  29
ATOM     29  C   UNL     1      45.596   2.858   8.206  0.00  0.00    +0.000 A 
ATOM     30  C   UNL     1      46.455   3.556   7.345  0.00  0.00    +0.000 A 
ATOM     31  C   UNL     1      47.490   2.889   6.685  0.00  0.00    +0.000 A 
ATOM     32  C   UNL     1      47.671   1.520   6.876  0.00  0.00    +0.000 A 
ATOM     33  C   UNL     1      46.806   0.811   7.708  0.00  0.00    +0.000 A 
ATOM     34  C   UNL     1      45.773   1.476   8.369  0.00  0.00    +0.000 A 
ENDBRANCH  28  29
ENDBRANCH  23  28
ENDBRANCH  22  23
ENDBRANCH   4  22
TORSDOF 10
ENDMDL
MODEL 3
REMARK VINA RESULT:    -7.538      1.284      2.000
REMARK INTER + INTRA:         -12.699
REMARK INTER:                 -11.368
REMARK INTRA:                  -1.331
REMARK UNBOUND:                -0.975
REMARK  Name = 
REMARK  10 active torsions:
REMARK  status: ('A' for Active; 'I' for Inactive)
REMARK    1  A    between atoms: C_2  and  C_23
REMARK    2  A    between atoms: N_3  and  C_4
REMARK    3  A    between atoms: C_4  and  C_5
REMARK    4  A    between atoms: C_8  and  C_9
REMARK    5  A    between atoms: C_9  and  N_10
REMARK    6  A    between atoms: N_10  and  C_11
REMARK    7  A    between atoms: N_10  and  C_14
REMARK    8  A    between atoms: C_11  and  C_12
REMARK    9  A    between atoms: C_12  and  O_13
REMARK   10  A    between atoms: C_14  and  C_15
REMARK                            x       y       z     vdW  Elec       q    Type
REMARK                         _______ _______ _______ _____ _____    ______ ____
ROOT
ATOM      1  C   UNL     1      47.179   4.525  14.667  0.00  0.00    +0.000 A 
ATOM      2  C   UNL     1      46.633   3.523  13.852  0.00  0.00    +0.000 A 
ATOM      3  C   UNL     1      46.163   3.830  12.575  0.00  0.00    +0.000 A 
ATOM      4  C   UNL     1      46.225   5.144  12.093  0.00  0.00    +0.000 A 
ATOM      5  C   UNL     1      46.869   6.121  12.864  0.00  0.00    +0.000 A 
ATOM      6  C   UNL     1      47.346   5.811  14.141  0.00  0.00    +0.000 A 
ENDROOT
BRANCH   1   7
ATOM      7  C   UNL     1      47.543   4.228  16.096  0.00  0.00    +0.000 C 
BRANCH   7  10
ATOM      8  O   UNL     1      49.779   5.369  17.239  0.00  0.00    +0.000 OA
ATOM      9  C   UNL     1      48.697   5.912  17.431  0.00  0.00    +0.000 C 
ATOM     10  N   UNL     1      47.521   5.407  16.917  0.00  0.00    +0.000 N 
ATOM     11  H   UNL     1      46.661   5.925  16.999  0.00  0.00    +0.000 HD
BRANCH   9  12
ATOM     12  C   UNL     1      48.555   7.141  18.212  0.00  0.00    +0.000 A 
ATOM     13  C   UNL     1      48.814   8.440  17.798  0.00  0.00    +0.000 A 
ATOM     14  N   UNL     1      48.549   9.295  18.836  0.00  0.00    +0.000 N 
ATOM     15  C   UNL     1      48.114   8.591  19.929  0.00  0.00    +0.000 A 
ATOM     16  C   UNL     1      47.730   9.033  21.189  0.00  0.00    +0.000 A 
ATOM     17  N   UNL     1      47.330   8.131  22.112  0.00  0.00    +0.000 NA
ATOM     18  C   UNL     1      47.315   6.822  21.781  0.00  0.00    +0.000 A 
ATOM     19  C   UNL     1      47.686   6.314  20.544  0.00  0.00    +0.000 A 
ATOM     20  C   UNL     1      48.104   7.241  19.575  0.00  0.00    +0.000 A 
ATOM     21  H   UNL     1      48.648  10.301  18.802  0.00  0.00    +0.000 HD
ENDBRANCH   9  12
ENDBRANCH   7  10
ENDBRANCH   1   7
BRANCH   4  22
ATOM     22  C   UNL     1      45.540   5.514  10.791  0.00  0.00    +0.000 C 
BRANCH  22  23
ATOM     23  N   UNL     1      44.346   4.676  10.496  0.00  0.00    +0.000 NA
BRANCH  23  24
ATOM     24  C   UNL     1      43.105   5.358  10.946  0.00  0.00    +0.000 C 
BRANCH  24  25
ATOM     25  C   UNL     1      42.583   4.933  12.332  0.00  0.00    +0.000 C 
BRANCH  25  26
ATOM     26  O   UNL     1      42.993   5.867  13.330  0.00  0.00    +0.000 OA
ATOM     27  H   UNL     1      42.466   6.675  13.201  0.00  0.00    +0.000 HD
ENDBRANCH  25  26
ENDBRANCH  24  25
ENDBRANCH  23  24
BRANCH  23  28
ATOM     28  C   UNL     1      44.272   4.402   9.047  0.00  0.00    +0.000 C 
BRANCH  28  29
ATOM     29  C   UNL     1      45.317   3.448   8.510  0.00  0.00    +0.000 A 
ATOM     30  C   UNL     1      45.307   2.092   8.869  0.00  0.00    +0.000 A 
ATOM     31  C   UNL     1      46.190   1.194   8.266  0.00  0.00    +0.000 A 
ATOM     32  C   UNL     1      47.094   1.644   7.305  0.00  0.00    +0.000 A 
ATOM     33  C   UNL     1      47.132   2.994   6.960  0.00  0.00    +0.000 A 
ATOM     34  C   UNL     1      46.249   3.892   7.560  0.00  0.00    +0.000 A 
ENDBRANCH  28  29
ENDBRANCH  23  28
ENDBRANCH  22  23
ENDBRANCH   4  22
TORSDOF 10
ENDMDL
MODEL 4
REMARK VINA RESULT:    -7.421      3.301      4.774
REMARK INTER + INTRA:         -12.517
REMARK INTER:                 -10.975
REMARK INTRA:                  -1.541
REMARK UNBOUND:                -0.975
REMARK  Name = 
REMARK  10 active torsions:
REMARK  status: ('A' for Active; 'I' for Inactive)
REMARK    1  A    between atoms: C_2  and  C_23
REMARK    2  A    between atoms: N_3  and  C_4
REMARK    3  A    between atoms: C_4  and  C_5
REMARK    4  A    between atoms: C_8  and  C_9
REMARK    5  A    between atoms: C_9  and  N_10
REMARK    6  A    between atoms: N_10  and  C_11
REMARK    7  A    between atoms: N_10  and  C_14
REMARK    8  A    between atoms: C_11  and  C_12
REMARK    9  A    between atoms: C_12  and  O_13
REMARK   10  A    between atoms: C_14  and  C_15
REMARK                            x       y       z     vdW  Elec       q    Type
REMARK                         _______ _______ _______ _____ _____    ______ ____
ROOT
ATOM      1  C   UNL     1      47.589   4.353  15.788  0.00  0.00    +0.000 A 
ATOM      2  C   UNL     1      47.011   3.925  14.585  0.00  0.00    +0.000 A 
ATOM      3  C   UNL     1      46.918   4.795  13.498  0.00  0.00    +0.000 A 
ATOM      4  C   UNL     1      47.395   6.109  13.598  0.00  0.00    +0.000 A 
ATOM      5  C   UNL     1      48.068   6.500  14.763  0.00  0.00    +0.000 A 
ATOM      6  C   UNL     1      48.169   5.626  15.848  0.00  0.00    +0.000 A 
ENDROOT
BRANCH   1   7
ATOM      7  C   UNL     1      47.552   3.470  17.006  0.00  0.00    +0.000 C 
BRANCH   7  10
ATOM      8  O   UNL     1      49.300   1.629  15.925  0.00  0.00    +0.000 OA
ATOM      9  C   UNL     1      49.674   2.272  16.900  0.00  0.00    +0.000 C 
ATOM     10  N   UNL     1      48.866   3.201  17.521  0.00  0.00    +0.000 N 
ATOM     11  H   UNL     1      49.230   3.790  18.252  0.00  0.00    +0.000 HD
BRANCH   9  12
ATOM     12  C   UNL     1      51.006   2.117  17.486  0.00  0.00    +0.000 A 
ATOM     13  C   UNL     1      51.636   0.937  17.852  0.00  0.00    +0.000 A 
ATOM     14  N   UNL     1      52.874   1.236  18.357  0.00  0.00    +0.000 N 
ATOM     15  C   UNL     1      53.082   2.591  18.330  0.00  0.00    +0.000 A 
ATOM     16  C   UNL     1      54.179   3.342  18.731  0.00  0.00    +0.000 A 
ATOM     17  N   UNL     1      54.145   4.686  18.598  0.00  0.00    +0.000 NA
ATOM     18  C   UNL     1      53.041   5.262  18.075  0.00  0.00    +0.000 A 
ATOM     19  C   UNL     1      51.913   4.572  17.656  0.00  0.00    +0.000 A 
ATOM     20  C   UNL     1      51.935   3.174  17.789  0.00  0.00    +0.000 A 
ATOM     21  H   UNL     1      53.546   0.559  18.695  0.00  0.00    +0.000 HD
ENDBRANCH   9  12
ENDBRANCH   7  10
ENDBRANCH   1   7
BRANCH   4  22
ATOM     22  C   UNL     1      47.118   7.108  12.491  0.00  0.00    +0.000 C 
BRANCH  22  23
ATOM     23  N   UNL     1      45.752   7.695  12.558  0.00  0.00    +0.000 NA
BRANCH  23  24
ATOM     24  C   UNL     1      45.821   9.179  12.549  0.00  0.00    +0.000 C 
BRANCH  24  25
ATOM     25  C   UNL     1      44.834   9.880  11.596  0.00  0.00    +0.000 C 
BRANCH  25  26
ATOM     26  O   UNL     1      43.722  10.402  12.321  0.00  0.00    +0.000 OA
ATOM     27  H   UNL     1      43.495  11.260  11.921  0.00  0.00    +0.000 HD
ENDBRANCH  25  26
ENDBRANCH  24  25
ENDBRANCH  23  24
BRANCH  23  28
ATOM     28  C   UNL     1      44.948   7.222  11.413  0.00  0.00    +0.000 C 
BRANCH  28  29
ATOM     29  C   UNL     1      44.344   5.843  11.565  0.00  0.00    +0.000 A 
ATOM     30  C   UNL     1      44.542   4.858  10.586  0.00  0.00    +0.000 A 
ATOM     31  C   UNL     1      44.095   3.552  10.798  0.00  0.00    +0.000 A 
ATOM     32  C   UNL     1      43.442   3.221  11.984  0.00  0.00    +0.000 A 
ATOM     33  C   UNL     1      43.216   4.199  12.952  0.00  0.00    +0.000 A 
ATOM     34  C   UNL     1      43.663   5.503  12.744  0.00  0.00    +0.000 A 
ENDBRANCH  28  29
ENDBRANCH  23  28
ENDBRANCH  22  23
ENDBRANCH   4  22
TORSDOF 10
ENDMDL
MODEL 5
REMARK VINA RESULT:    -7.286      2.233      3.195
REMARK INTER + INTRA:         -12.307
REMARK INTER:                 -11.182
REMARK INTRA:                  -1.125
REMARK UNBOUND:                -0.975
REMARK  Name = 
REMARK  10 active torsions:
REMARK  status: ('A' for Active; 'I' for Inactive)
REMARK    1  A    between atoms: C_2  and  C_23
REMARK    2  A    between atoms: N_3  and  C_4
REMARK    3  A    between atoms: C_4  and  C_5
REMARK    4  A    between atoms: C_8  and  C_9
REMARK    5  A    between atoms: C_9  and  N_10
REMARK    6  A    between atoms: N_10  and  C_11
REMARK    7  A    between atoms: N_10  and  C_14
REMARK    8  A    between atoms: C_11  and  C_12
REMARK    9  A    between atoms: C_12  and  O_13
REMARK   10  A    between atoms: C_14  and  C_15
REMARK                            x       y       z     vdW  Elec       q    Type
REMARK                         _______ _______ _______ _____ _____    ______ ____
ROOT
ATOM      1  C   UNL     1      48.546   7.847  13.871  0.00  0.00    +0.000 A 
ATOM      2  C   UNL     1      48.793   6.997  12.784  0.00  0.00    +0.000 A 
ATOM      3  C   UNL     1      47.764   6.661  11.903  0.00  0.00    +0.000 A 
ATOM      4  C   UNL     1      46.471   7.164  12.098  0.00  0.00    +0.000 A 
ATOM      5  C   UNL     1      46.252   8.098  13.120  0.00  0.00    +0.000 A 
ATOM      6  C   UNL     1      47.284   8.440  13.997  0.00  0.00    +0.000 A 
ENDROOT
BRANCH   1   7
ATOM      7  C   UNL     1      49.612   8.087  14.906  0.00  0.00    +0.000 C 
BRANCH   7  10
ATOM      8  O   UNL     1      48.802   7.170  17.378  0.00  0.00    +0.000 OA
ATOM      9  C   UNL     1      49.593   6.482  16.743  0.00  0.00    +0.000 C 
ATOM     10  N   UNL     1      50.070   6.864  15.506  0.00  0.00    +0.000 N 
ATOM     11  H   UNL     1      50.634   6.236  14.958  0.00  0.00    +0.000 HD
BRANCH   9  12
ATOM     12  C   UNL     1      50.094   5.197  17.231  0.00  0.00    +0.000 A 
ATOM     13  C   UNL     1      49.351   4.083  17.594  0.00  0.00    +0.000 A 
ATOM     14  N   UNL     1      50.209   3.091  17.991  0.00  0.00    +0.000 N 
ATOM     15  C   UNL     1      51.507   3.521  17.894  0.00  0.00    +0.000 A 
ATOM     16  C   UNL     1      52.697   2.863  18.180  0.00  0.00    +0.000 A 
ATOM     17  N   UNL     1      53.869   3.508  17.997  0.00  0.00    +0.000 NA
ATOM     18  C   UNL     1      53.850   4.779  17.538  0.00  0.00    +0.000 A 
ATOM     19  C   UNL     1      52.700   5.492  17.234  0.00  0.00    +0.000 A 
ATOM     20  C   UNL     1      51.474   4.833  17.420  0.00  0.00    +0.000 A 
ATOM     21  H   UNL     1      49.931   2.169  18.302  0.00  0.00    +0.000 HD
ENDBRANCH   9  12
ENDBRANCH   7  10
ENDBRANCH   1   7
BRANCH   4  22
ATOM     22  C   UNL     1      45.315   6.647  11.262  0.00  0.00    +0.000 C 
BRANCH  22  23
ATOM     23  N   UNL     1      45.227   5.162  11.238  0.00  0.00    +0.000 NA
BRANCH  23  24
ATOM     24  C   UNL     1      44.638   4.653  12.504  0.00  0.00    +0.000 C 
BRANCH  24  25
ATOM     25  C   UNL     1      43.101   4.539  12.518  0.00  0.00    +0.000 C 
BRANCH  25  26
ATOM     26  O   UNL     1      42.541   5.442  13.471  0.00  0.00    +0.000 OA
ATOM     27  H   UNL     1      41.603   5.557  13.239  0.00  0.00    +0.000 HD
ENDBRANCH  25  26
ENDBRANCH  24  25
ENDBRANCH  23  24
BRANCH  23  28
ATOM     28  C   UNL     1      44.404   4.728  10.090  0.00  0.00    +0.000 C 
BRANCH  28  29
ATOM     29  C   UNL     1      45.092   3.807   9.106  0.00  0.00    +0.000 A 
ATOM     30  C   UNL     1      45.860   4.324   8.053  0.00  0.00    +0.000 A 
ATOM     31  C   UNL     1      46.599   3.469   7.231  0.00  0.00    +0.000 A 
ATOM     32  C   UNL     1      46.570   2.093   7.451  0.00  0.00    +0.000 A 
ATOM     33  C   UNL     1      45.788   1.566   8.477  0.00  0.00    +0.000 A 
ATOM     34  C   UNL     1      45.051   2.418   9.300  0.00  0.00    +0.000 A 
ENDBRANCH  28  29
ENDBRANCH  23  28
ENDBRANCH  22  23
ENDBRANCH   4  22
TORSDOF 10
ENDMDL
MODEL 6
REMARK VINA RESULT:    -7.285      2.958      4.281
REMARK INTER + INTRA:         -12.305
REMARK INTER:                 -11.253
REMARK INTRA:                  -1.053
REMARK UNBOUND:                -0.975
REMARK  Name = 
REMARK  10 active torsions:
REMARK  status: ('A' for Active; 'I' for Inactive)
REMARK    1  A    between atoms: C_2  and  C_23
REMARK    2  A    between atoms: N_3  and  C_4
REMARK    3  A    between atoms: C_4  and  C_5
REMARK    4  A    between atoms: C_8  and  C_9
REMARK    5  A    between atoms: C_9  and  N_10
REMARK    6  A    between atoms: N_10  and  C_11
REMARK    7  A    between atoms: N_10  and  C_14
REMARK    8  A    between atoms: C_11  and  C_12
REMARK    9  A    between atoms: C_12  and  O_13
REMARK   10  A    between atoms: C_14  and  C_15
REMARK                            x       y       z     vdW  Elec       q    Type
REMARK                         _______ _______ _______ _____ _____    ______ ____
ROOT
ATOM      1  C   UNL     1      47.454   4.248  15.475  0.00  0.00    +0.000 A 
ATOM      2  C   UNL     1      46.911   3.530  14.401  0.00  0.00    +0.000 A 
ATOM      3  C   UNL     1      46.694   4.154  13.172  0.00  0.00    +0.000 A 
ATOM      4  C   UNL     1      47.010   5.508  12.999  0.00  0.00    +0.000 A 
ATOM      5  C   UNL     1      47.652   6.195  14.038  0.00  0.00    +0.000 A 
ATOM      6  C   UNL     1      47.876   5.567  15.266  0.00  0.00    +0.000 A 
ENDROOT
BRANCH   1   7
ATOM      7  C   UNL     1      47.546   3.622  16.840  0.00  0.00    +0.000 C 
BRANCH   7  10
ATOM      8  O   UNL     1      49.633   1.924  16.234  0.00  0.00    +0.000 OA
ATOM      9  C   UNL     1      49.849   2.839  17.019  0.00  0.00    +0.000 C 
ATOM     10  N   UNL     1      48.865   3.729  17.398  0.00  0.00    +0.000 N 
ATOM     11  H   UNL     1      49.090   4.533  17.961  0.00  0.00    +0.000 HD
BRANCH   9  12
ATOM     12  C   UNL     1      51.163   3.076  17.618  0.00  0.00    +0.000 A 
ATOM     13  C   UNL     1      51.697   4.288  18.031  0.00  0.00    +0.000 A 
ATOM     14  N   UNL     1      52.951   4.068  18.538  0.00  0.00    +0.000 N 
ATOM     15  C   UNL     1      53.259   2.733  18.475  0.00  0.00    +0.000 A 
ATOM     16  C   UNL     1      54.404   2.054  18.873  0.00  0.00    +0.000 A 
ATOM     17  N   UNL     1      54.469   0.715  18.708  0.00  0.00    +0.000 NA
ATOM     18  C   UNL     1      53.414   0.073  18.160  0.00  0.00    +0.000 A 
ATOM     19  C   UNL     1      52.244   0.690  17.741  0.00  0.00    +0.000 A 
ATOM     20  C   UNL     1      52.163   2.082  17.907  0.00  0.00    +0.000 A 
ATOM     21  H   UNL     1      53.562   4.781  18.915  0.00  0.00    +0.000 HD
ENDBRANCH   9  12
ENDBRANCH   7  10
ENDBRANCH   1   7
BRANCH   4  22
ATOM     22  C   UNL     1      46.595   6.233  11.733  0.00  0.00    +0.000 C 
BRANCH  22  23
ATOM     23  N   UNL     1      45.370   5.667  11.106  0.00  0.00    +0.000 NA
BRANCH  23  24
ATOM     24  C   UNL     1      44.163   6.410  11.551  0.00  0.00    +0.000 C 
BRANCH  24  25
ATOM     25  C   UNL     1      42.832   5.646  11.421  0.00  0.00    +0.000 C 
BRANCH  25  26
ATOM     26  O   UNL     1      41.733   6.496  11.749  0.00  0.00    +0.000 OA
ATOM     27  H   UNL     1      42.099   7.278  12.199  0.00  0.00    +0.000 HD
ENDBRANCH  25  26
ENDBRANCH  24  25
ENDBRANCH  23  24
BRANCH  23  28
ATOM     28  C   UNL     1      45.486   5.731   9.635  0.00  0.00    +0.000 C 
BRANCH  28  29
ATOM     29  C   UNL     1      45.635   4.398   8.934  0.00  0.00    +0.000 A 
ATOM     30  C   UNL     1      46.386   4.284   7.755  0.00  0.00    +0.000 A 
ATOM     31  C   UNL     1      46.629   3.030   7.190  0.00  0.00    +0.000 A 
ATOM     32  C   UNL     1      46.119   1.882   7.794  0.00  0.00    +0.000 A 
ATOM     33  C   UNL     1      45.348   1.985   8.950  0.00  0.00    +0.000 A 
ATOM     34  C   UNL     1      45.106   3.237   9.517  0.00  0.00    +0.000 A 
ENDBRANCH  28  29
ENDBRANCH  23  28
ENDBRANCH  22  23
ENDBRANCH   4  22
TORSDOF 10
ENDMDL
MODEL 7
REMARK VINA RESULT:    -7.148      1.990      2.461
REMARK INTER + INTRA:         -12.092
REMARK INTER:                 -11.271
REMARK INTRA:                  -0.821
REMARK UNBOUND:                -0.975
REMARK  Name = 
REMARK  10 active torsions:
REMARK  status: ('A' for Active; 'I' for Inactive)
REMARK    1  A    between atoms: C_2  and  C_23
REMARK    2  A    between atoms: N_3  and  C_4
REMARK    3  A    between atoms: C_4  and  C_5
REMARK    4  A    between atoms: C_8  and  C_9
REMARK    5  A    between atoms: C_9  and  N_10
REMARK    6  A    between atoms: N_10  and  C_11
REMARK    7  A    between atoms: N_10  and  C_14
REMARK    8  A    between atoms: C_11  and  C_12
REMARK    9  A    between atoms: C_12  and  O_13
REMARK   10  A    between atoms: C_14  and  C_15
REMARK                            x       y       z     vdW  Elec       q    Type
REMARK                         _______ _______ _______ _____ _____    ______ ____
ROOT
ATOM      1  C   UNL     1      46.707   8.310  12.843  0.00  0.00    +0.000 A 
ATOM      2  C   UNL     1      47.181   7.001  12.687  0.00  0.00    +0.000 A 
ATOM      3  C   UNL     1      46.453   6.070  11.945  0.00  0.00    +0.000 A 
ATOM      4  C   UNL     1      45.235   6.431  11.354  0.00  0.00    +0.000 A 
ATOM      5  C   UNL     1      44.817   7.767  11.420  0.00  0.00    +0.000 A 
ATOM      6  C   UNL     1      45.551   8.700  12.156  0.00  0.00    +0.000 A 
ENDROOT
BRANCH   1   7
ATOM      7  C   UNL     1      47.410   9.268  13.766  0.00  0.00    +0.000 C 
BRANCH   7  10
ATOM      8  O   UNL     1      49.723   8.823  15.202  0.00  0.00    +0.000 OA
ATOM      9  C   UNL     1      48.653   8.613  15.761  0.00  0.00    +0.000 C 
ATOM     10  N   UNL     1      47.443   8.790  15.121  0.00  0.00    +0.000 N 
ATOM     11  H   UNL     1      46.578   8.712  15.629  0.00  0.00    +0.000 HD
BRANCH   9  12
ATOM     12  C   UNL     1      48.560   8.167  17.151  0.00  0.00    +0.000 A 
ATOM     13  C   UNL     1      48.904   6.924  17.663  0.00  0.00    +0.000 A 
ATOM     14  N   UNL     1      48.665   6.923  19.013  0.00  0.00    +0.000 N 
ATOM     15  C   UNL     1      48.174   8.140  19.408  0.00  0.00    +0.000 A 
ATOM     16  C   UNL     1      47.798   8.593  20.666  0.00  0.00    +0.000 A 
ATOM     17  N   UNL     1      47.340   9.857  20.804  0.00  0.00    +0.000 NA
ATOM     18  C   UNL     1      47.261  10.645  19.709  0.00  0.00    +0.000 A 
ATOM     19  C   UNL     1      47.617  10.255  18.427  0.00  0.00    +0.000 A 
ATOM     20  C   UNL     1      48.096   8.944  18.270  0.00  0.00    +0.000 A 
ATOM     21  H   UNL     1      48.834   6.142  19.634  0.00  0.00    +0.000 HD
ENDBRANCH   9  12
ENDBRANCH   7  10
ENDBRANCH   1   7
BRANCH   4  22
ATOM     22  C   UNL     1      44.352   5.374  10.718  0.00  0.00    +0.000 C 
BRANCH  22  23
ATOM     23  N   UNL     1      45.057   4.088  10.473  0.00  0.00    +0.000 NA
BRANCH  23  24
ATOM     24  C   UNL     1      44.857   3.157  11.614  0.00  0.00    +0.000 C 
BRANCH  24  25
ATOM     25  C   UNL     1      43.390   2.906  12.012  0.00  0.00    +0.000 C 
BRANCH  25  26
ATOM     26  O   UNL     1      43.012   1.564  11.710  0.00  0.00    +0.000 OA
ATOM     27  H   UNL     1      43.380   0.997  12.410  0.00  0.00    +0.000 HD
ENDBRANCH  25  26
ENDBRANCH  24  25
ENDBRANCH  23  24
BRANCH  23  28
ATOM     28  C   UNL     1      44.558   3.471   9.228  0.00  0.00    +0.000 C 
BRANCH  28  29
ATOM     29  C   UNL     1      45.617   2.891   8.316  0.00  0.00    +0.000 A 
ATOM     30  C   UNL     1      45.976   1.537   8.399  0.00  0.00    +0.000 A 
ATOM     31  C   UNL     1      46.855   0.981   7.468  0.00  0.00    +0.000 A 
ATOM     32  C   UNL     1      47.389   1.773   6.452  0.00  0.00    +0.000 A 
ATOM     33  C   UNL     1      47.061   3.126   6.377  0.00  0.00    +0.000 A 
ATOM     34  C   UNL     1      46.181   3.683   7.305  0.00  0.00    +0.000 A 
ENDBRANCH  28  29
ENDBRANCH  23  28
ENDBRANCH  22  23
ENDBRANCH   4  22
TORSDOF 10
ENDMDL
MODEL 8
REMARK VINA RESULT:    -6.998      3.001      9.052
REMARK INTER + INTRA:         -11.859
REMARK INTER:                  -9.530
REMARK INTRA:                  -2.329
REMARK UNBOUND:                -0.975
REMARK  Name = 
REMARK  10 active torsions:
REMARK  status: ('A' for Active; 'I' for Inactive)
REMARK    1  A    between atoms: C_2  and  C_23
REMARK    2  A    between atoms: N_3  and  C_4
REMARK    3  A    between atoms: C_4  and  C_5
REMARK    4  A    between atoms: C_8  and  C_9
REMARK    5  A    between atoms: C_9  and  N_10
REMARK    6  A    between atoms: N_10  and  C_11
REMARK    7  A    between atoms: N_10  and  C_14
REMARK    8  A    between atoms: C_11  and  C_12
REMARK    9  A    between atoms: C_12  and  O_13
REMARK   10  A    between atoms: C_14  and  C_15
REMARK                            x       y       z     vdW  Elec       q    Type
REMARK                         _______ _______ _______ _____ _____    ______ ____
ROOT
ATOM      1  C   UNL     1      49.228   7.579  15.903  0.00  0.00    +0.000 A 
ATOM      2  C   UNL     1      48.787   8.223  17.067  0.00  0.00    +0.000 A 
ATOM      3  C   UNL     1      49.424   7.991  18.287  0.00  0.00    +0.000 A 
ATOM      4  C   UNL     1      50.508   7.106  18.364  0.00  0.00    +0.000 A 
ATOM      5  C   UNL     1      51.014   6.547  17.182  0.00  0.00    +0.000 A 
ATOM      6  C   UNL     1      50.380   6.786  15.960  0.00  0.00    +0.000 A 
ENDROOT
BRANCH   1   7
ATOM      7  C   UNL     1      48.449   7.708  14.622  0.00  0.00    +0.000 C 
BRANCH   7  10
ATOM      8  O   UNL     1      47.459   7.045  12.133  0.00  0.00    +0.000 OA
ATOM      9  C   UNL     1      47.218   6.287  13.067  0.00  0.00    +0.000 C 
ATOM     10  N   UNL     1      47.655   6.541  14.350  0.00  0.00    +0.000 N 
ATOM     11  H   UNL     1      47.536   5.856  15.078  0.00  0.00    +0.000 HD
BRANCH   9  12
ATOM     12  C   UNL     1      46.458   5.048  12.904  0.00  0.00    +0.000 A 
ATOM     13  C   UNL     1      46.812   3.777  13.335  0.00  0.00    +0.000 A 
ATOM     14  N   UNL     1      45.819   2.900  12.984  0.00  0.00    +0.000 N 
ATOM     15  C   UNL     1      44.810   3.563  12.335  0.00  0.00    +0.000 A 
ATOM     16  C   UNL     1      43.615   3.089  11.808  0.00  0.00    +0.000 A 
ATOM     17  N   UNL     1      42.769   3.953  11.208  0.00  0.00    +0.000 NA
ATOM     18  C   UNL     1      43.110   5.259  11.138  0.00  0.00    +0.000 A 
ATOM     19  C   UNL     1      44.286   5.796  11.641  0.00  0.00    +0.000 A 
ATOM     20  C   UNL     1      45.175   4.908  12.268  0.00  0.00    +0.000 A 
ATOM     21  H   UNL     1      45.821   1.908  13.182  0.00  0.00    +0.000 HD
ENDBRANCH   9  12
ENDBRANCH   7  10
ENDBRANCH   1   7
BRANCH   4  22
ATOM     22  C   UNL     1      51.072   6.704  19.713  0.00  0.00    +0.000 C 
BRANCH  22  23
ATOM     23  N   UNL     1      51.036   5.236  19.952  0.00  0.00    +0.000 NA
BRANCH  23  24
ATOM     24  C   UNL     1      51.876   4.876  21.123  0.00  0.00    +0.000 C 
BRANCH  24  25
ATOM     25  C   UNL     1      53.147   4.067  20.801  0.00  0.00    +0.000 C 
BRANCH  25  26
ATOM     26  O   UNL     1      52.926   3.215  19.678  0.00  0.00    +0.000 OA
ATOM     27  H   UNL     1      53.793   2.859  19.413  0.00  0.00    +0.000 HD
ENDBRANCH  25  26
ENDBRANCH  24  25
ENDBRANCH  23  24
BRANCH  23  28
ATOM     28  C   UNL     1      49.643   4.800  20.179  0.00  0.00    +0.000 C 
BRANCH  28  29
ATOM     29  C   UNL     1      48.930   4.237  18.969  0.00  0.00    +0.000 A 
ATOM     30  C   UNL     1      47.713   4.780  18.533  0.00  0.00    +0.000 A 
ATOM     31  C   UNL     1      47.131   4.343  17.341  0.00  0.00    +0.000 A 
ATOM     32  C   UNL     1      47.756   3.356  16.580  0.00  0.00    +0.000 A 
ATOM     33  C   UNL     1      48.952   2.790  17.018  0.00  0.00    +0.000 A 
ATOM     34  C   UNL     1      49.536   3.226  18.207  0.00  0.00    +0.000 A 
ENDBRANCH  28  29
ENDBRANCH  23  28
ENDBRANCH  22  23
ENDBRANCH   4  22
TORSDOF 10
ENDMDL
MODEL 9
REMARK VINA RESULT:    -6.833      3.270     10.367
REMARK INTER + INTRA:         -11.603
REMARK INTER:                  -9.438
REMARK INTRA:                  -2.165
REMARK UNBOUND:                -0.975
REMARK  Name = 
REMARK  10 active torsions:
REMARK  status: ('A' for Active; 'I' for Inactive)
REMARK    1  A    between atoms: C_2  and  C_23
REMARK    2  A    between atoms: N_3  and  C_4
REMARK    3  A    between atoms: C_4  and  C_5
REMARK    4  A    between atoms: C_8  and  C_9
REMARK    5  A    between atoms: C_9  and  N_10
REMARK    6  A    between atoms: N_10  and  C_11
REMARK    7  A    between atoms: N_10  and  C_14
REMARK    8  A    between atoms: C_11  and  C_12
REMARK    9  A    between atoms: C_12  and  O_13
REMARK   10  A    between atoms: C_14  and  C_15
REMARK                            x       y       z     vdW  Elec       q    Type
REMARK                         _______ _______ _______ _____ _____    ______ ____
ROOT
ATOM      1  C   UNL     1      48.761   3.968  17.031  0.00  0.00    +0.000 A 
ATOM      2  C   UNL     1      49.207   5.294  16.950  0.00  0.00    +0.000 A 
ATOM      3  C   UNL     1      50.507   5.625  17.336  0.00  0.00    +0.000 A 
ATOM      4  C   UNL     1      51.379   4.638  17.813  0.00  0.00    +0.000 A 
ATOM      5  C   UNL     1      50.967   3.298  17.790  0.00  0.00    +0.000 A 
ATOM      6  C   UNL     1      49.668   2.966  17.397  0.00  0.00    +0.000 A 
ENDROOT
BRANCH   1   7
ATOM      7  C   UNL     1      47.318   3.634  16.763  0.00  0.00    +0.000 C 
BRANCH   7  10
ATOM      8  O   UNL     1      47.362   3.135  14.050  0.00  0.00    +0.000 OA
ATOM      9  C   UNL     1      46.797   4.152  14.437  0.00  0.00    +0.000 C 
ATOM     10  N   UNL     1      46.737   4.496  15.771  0.00  0.00    +0.000 N 
ATOM     11  H   UNL     1      46.180   5.278  16.074  0.00  0.00    +0.000 HD
BRANCH   9  12
ATOM     12  C   UNL     1      46.132   5.083  13.526  0.00  0.00    +0.000 A 
ATOM     13  C   UNL     1      46.486   6.397  13.254  0.00  0.00    +0.000 A 
ATOM     14  N   UNL     1      45.603   6.912  12.341  0.00  0.00    +0.000 N 
ATOM     15  C   UNL     1      44.673   5.966  11.997  0.00  0.00    +0.000 A 
ATOM     16  C   UNL     1      43.602   6.036  11.114  0.00  0.00    +0.000 A 
ATOM     17  N   UNL     1      42.818   4.950  10.939  0.00  0.00    +0.000 NA
ATOM     18  C   UNL     1      43.100   3.823  11.630  0.00  0.00    +0.000 A 
ATOM     19  C   UNL     1      44.150   3.687  12.526  0.00  0.00    +0.000 A 
ATOM     20  C   UNL     1      44.974   4.809  12.717  0.00  0.00    +0.000 A 
ATOM     21  H   UNL     1      45.634   7.851  11.965  0.00  0.00    +0.000 HD
ENDBRANCH   9  12
ENDBRANCH   7  10
ENDBRANCH   1   7
BRANCH   4  22
ATOM     22  C   UNL     1      52.717   5.025  18.413  0.00  0.00    +0.000 C 
BRANCH  22  23
ATOM     23  N   UNL     1      52.864   4.614  19.836  0.00  0.00    +0.000 NA
BRANCH  23  24
ATOM     24  C   UNL     1      54.276   4.261  20.134  0.00  0.00    +0.000 C 
BRANCH  24  25
ATOM     25  C   UNL     1      54.506   2.821  20.632  0.00  0.00    +0.000 C 
BRANCH  25  26
ATOM     26  O   UNL     1      54.070   1.878  19.654  0.00  0.00    +0.000 OA
ATOM     27  H   UNL     1      54.864   1.551  19.197  0.00  0.00    +0.000 HD
ENDBRANCH  25  26
ENDBRANCH  24  25
ENDBRANCH  23  24
BRANCH  23  28
ATOM     28  C   UNL     1      52.421   5.710  20.722  0.00  0.00    +0.000 C 
BRANCH  28  29
ATOM     29  C   UNL     1      50.923   5.886  20.844  0.00  0.00    +0.000 A 
ATOM     30  C   UNL     1      50.317   7.117  20.555  0.00  0.00    +0.000 A 
ATOM     31  C   UNL     1      48.925   7.233  20.541  0.00  0.00    +0.000 A 
ATOM     32  C   UNL     1      48.129   6.123  20.821  0.00  0.00    +0.000 A 
ATOM     33  C   UNL     1      48.722   4.901  21.137  0.00  0.00    +0.000 A 
ATOM     34  C   UNL     1      50.112   4.783  21.150  0.00  0.00    +0.000 A 
ENDBRANCH  28  29
ENDBRANCH  23  28
ENDBRANCH  22  23
ENDBRANCH   4  22
TORSDOF 10
ENDMDL
