MODEL 1
REMARK VINA RESULT:    -8.103      0.000      0.000
REMARK INTER + INTRA:         -12.328
REMARK INTER:                 -11.419
REMARK INTRA:                  -0.909
REMARK UNBOUND:                -0.909
REMARK  Name = 
REMARK  8 active torsions:
REMARK  status: ('A' for Active; 'I' for Inactive)
REMARK    1  A    between atoms: C_1  and  O_2
REMARK    2  A    between atoms: O_2  and  C_3
REMARK    3  A    between atoms: C_8  and  C_9
REMARK    4  A    between atoms: N_11  and  C_12
REMARK    5  A    between atoms: C_12  and  C_13
REMARK    6  A    between atoms: C_16  and  C_17
REMARK    7  A    between atoms: C_17  and  N_18
REMARK    8  A    between atoms: C_19  and  C_21
REMARK                            x       y       z     vdW  Elec       q    Type
REMARK                         _______ _______ _______ _____ _____    ______ ____
ROOT
ATOM      1  C   UNL     1      44.755   5.286  10.746  0.00  0.00    +0.000 A 
ATOM      2  C   UNL     1      44.281   5.569  12.035  0.00  0.00    +0.000 A 
ATOM      3  C   UNL     1      44.969   6.454  12.871  0.00  0.00    +0.000 A 
ATOM      4  C   UNL     1      46.135   7.091  12.429  0.00  0.00    +0.000 A 
ATOM      5  C   UNL     1      46.616   6.798  11.146  0.00  0.00    +0.000 A 
ATOM      6  C   UNL     1      45.927   5.914  10.310  0.00  0.00    +0.000 A 
ENDROOT
BRANCH   1   7
ATOM      7  C   UNL     1      44.000   4.355   9.833  0.00  0.00    +0.000 C 
BRANCH   7  10
ATOM      8  C   UNL     1      45.497   2.793   8.657  0.00  0.00    +0.000 C 
ATOM      9  O   UNL     1      45.518   2.024   9.614  0.00  0.00    +0.000 OA
ATOM     10  N   UNL     1      44.798   3.976   8.693  0.00  0.00    +0.000 N 
ATOM     11  H   UNL     1      44.816   4.577   7.877  0.00  0.00    +0.000 HD
BRANCH   8  17
ATOM     12  C   UNL     1      46.811   1.191   7.109  0.00  0.00    +0.000 A 
ATOM     13  C   UNL     1      47.530   1.024   5.915  0.00  0.00    +0.000 A 
ATOM     14  C   UNL     1      47.637   2.064   4.988  0.00  0.00    +0.000 A 
ATOM     15  C   UNL     1      47.019   3.284   5.236  0.00  0.00    +0.000 A 
ATOM     16  C   UNL     1      46.318   3.471   6.427  0.00  0.00    +0.000 A 
ATOM     17  C   UNL     1      46.217   2.442   7.383  0.00  0.00    +0.000 A 
BRANCH  12  19
ATOM     18  C   UNL     1      46.706  -1.158   7.574  0.00  0.00    +0.000 C 
ATOM     19  O   UNL     1      46.655   0.189   8.035  0.00  0.00    +0.000 OA
ENDBRANCH  12  19
ENDBRANCH   8  17
ENDBRANCH   7  10
ENDBRANCH   1   7
BRANCH   4  20
ATOM     20  C   UNL     1      46.880   8.054  13.317  0.00  0.00    +0.000 C 
BRANCH  20  21
ATOM     21  N   UNL     1      47.373   7.403  14.506  0.00  0.00    +0.000 N 
ATOM     22  C   UNL     1      48.618   6.826  14.533  0.00  0.00    +0.000 C 
ATOM     23  O   UNL     1      49.381   6.877  13.573  0.00  0.00    +0.000 OA
ATOM     24  H   UNL     1      46.688   7.150  15.211  0.00  0.00    +0.000 HD
BRANCH  22  25
ATOM     25  C   UNL     1      49.020   6.195  15.797  0.00  0.00    +0.000 A 
ATOM     26  C   UNL     1      50.117   6.687  16.492  0.00  0.00    +0.000 A 
ATOM     27  S   UNL     1      50.413   5.879  17.966  0.00  0.00    +0.000 S 
ATOM     28  C   UNL     1      49.119   4.807  17.699  0.00  0.00    +0.000 A 
ATOM     29  N   UNL     1      48.833   3.821  18.591  0.00  0.00    +0.000 NA
ATOM     30  C   UNL     1      47.849   3.059  18.248  0.00  0.00    +0.000 A 
ATOM     31  N   UNL     1      47.120   3.198  17.095  0.00  0.00    +0.000 N 
ATOM     32  C   UNL     1      47.352   4.198  16.182  0.00  0.00    +0.000 A 
ATOM     33  O   UNL     1      46.654   4.319  15.179  0.00  0.00    +0.000 OA
ATOM     34  C   UNL     1      48.458   5.074  16.513  0.00  0.00    +0.000 A 
ATOM     35  H   UNL     1      46.357   2.570  16.887  0.00  0.00    +0.000 HD
ENDBRANCH  22  25
ENDBRANCH  20  21
ENDBRANCH   4  20
TORSDOF 7
ENDMDL
MODEL 2
REMARK VINA RESULT:    -7.370      3.318      9.018
REMARK INTER + INTRA:         -11.294
REMARK INTER:                 -10.059
REMARK INTRA:                  -1.235
REMARK UNBOUND:                -0.909
REMARK  Name = 
REMARK  8 active torsions:
REMARK  status: ('A' for Active; 'I' for Inactive)
REMARK    1  A    between atoms: C_1  and  O_2
REMARK    2  A    between atoms: O_2  and  C_3
REMARK    3  A    between atoms: C_8  and  C_9
REMARK    4  A    between atoms: N_11  and  C_12
REMARK    5  A    between atoms: C_12  and  C_13
REMARK    6  A    between atoms: C_16  and  C_17
REMARK    7  A    between atoms: C_17  and  N_18
REMARK    8  A    between atoms: C_19  and  C_21
REMARK                            x       y       z     vdW  Elec       q    Type
REMARK                         _______ _______ _______ _____ _____    ______ ____
ROOT
ATOM      1  C   UNL     1      50.353   7.498  15.257  0.00  0.00    +0.000 A 
ATOM      2  C   UNL     1      50.783   8.044  14.039  0.00  0.00    +0.000 A 
ATOM      3  C   UNL     1      49.906   8.150  12.955  0.00  0.00    +0.000 A 
ATOM      4  C   UNL     1      48.575   7.733  13.072  0.00  0.00    +0.000 A 
ATOM      5  C   UNL     1      48.149   7.175  14.285  0.00  0.00    +0.000 A 
ATOM      6  C   UNL     1      49.026   7.069  15.368  0.00  0.00    +0.000 A 
ENDROOT
BRANCH   1   7
ATOM      7  C   UNL     1      51.288   7.409  16.435  0.00  0.00    +0.000 C 
BRANCH   7  10
ATOM      8  C   UNL     1      51.183   5.237  17.593  0.00  0.00    +0.000 C 
ATOM      9  O   UNL     1      50.300   5.635  18.349  0.00  0.00    +0.000 OA
ATOM     10  N   UNL     1      51.744   6.056  16.642  0.00  0.00    +0.000 N 
ATOM     11  H   UNL     1      52.472   5.681  16.045  0.00  0.00    +0.000 HD
BRANCH   8  17
ATOM     12  C   UNL     1      50.916   2.690  17.236  0.00  0.00    +0.000 A 
ATOM     13  C   UNL     1      51.443   1.405  17.439  0.00  0.00    +0.000 A 
ATOM     14  C   UNL     1      52.700   1.228  18.023  0.00  0.00    +0.000 A 
ATOM     15  C   UNL     1      53.452   2.331  18.406  0.00  0.00    +0.000 A 
ATOM     16  C   UNL     1      52.933   3.613  18.230  0.00  0.00    +0.000 A 
ATOM     17  C   UNL     1      51.659   3.812  17.662  0.00  0.00    +0.000 A 
BRANCH  12  19
ATOM     18  C   UNL     1      48.527   2.741  17.430  0.00  0.00    +0.000 C 
ATOM     19  O   UNL     1      49.699   2.914  16.640  0.00  0.00    +0.000 OA
ENDBRANCH  12  19
ENDBRANCH   8  17
ENDBRANCH   7  10
ENDBRANCH   1   7
BRANCH   4  20
ATOM     20  C   UNL     1      47.618   7.851  11.914  0.00  0.00    +0.000 C 
BRANCH  20  21
ATOM     21  N   UNL     1      46.924   6.611  11.672  0.00  0.00    +0.000 N 
ATOM     22  C   UNL     1      45.569   6.506  11.867  0.00  0.00    +0.000 C 
ATOM     23  O   UNL     1      44.884   7.466  12.206  0.00  0.00    +0.000 OA
ATOM     24  H   UNL     1      47.489   5.769  11.621  0.00  0.00    +0.000 HD
BRANCH  22  25
ATOM     25  C   UNL     1      44.966   5.197  11.585  0.00  0.00    +0.000 A 
ATOM     26  C   UNL     1      44.275   4.528  12.587  0.00  0.00    +0.000 A 
ATOM     27  S   UNL     1      43.590   3.050  12.079  0.00  0.00    +0.000 S 
ATOM     28  C   UNL     1      44.240   3.225  10.516  0.00  0.00    +0.000 A 
ATOM     29  N   UNL     1      44.045   2.270   9.568  0.00  0.00    +0.000 NA
ATOM     30  C   UNL     1      44.622   2.513   8.439  0.00  0.00    +0.000 A 
ATOM     31  N   UNL     1      45.373   3.630   8.170  0.00  0.00    +0.000 N 
ATOM     32  C   UNL     1      45.569   4.634   9.087  0.00  0.00    +0.000 A 
ATOM     33  O   UNL     1      46.212   5.641   8.801  0.00  0.00    +0.000 OA
ATOM     34  C   UNL     1      44.953   4.403  10.379  0.00  0.00    +0.000 A 
ATOM     35  H   UNL     1      45.794   3.763   7.263  0.00  0.00    +0.000 HD
ENDBRANCH  22  25
ENDBRANCH  20  21
ENDBRANCH   4  20
TORSDOF 7
ENDMDL
MODEL 3
REMARK VINA RESULT:    -7.156      3.183      4.931
REMARK INTER + INTRA:         -10.993
REMARK INTER:                  -9.892
REMARK INTRA:                  -1.101
REMARK UNBOUND:                -0.909
REMARK  Name = 
REMARK  8 active torsions:
REMARK  status: ('A' for Active; 'I' for Inactive)
REMARK    1  A    between atoms: C_1  and  O_2
REMARK    2  A    between atoms: O_2  and  C_3
REMARK    3  A    between atoms: C_8  and  C_9
REMARK    4  A    between atoms: N_11  and  C_12
REMARK    5  A    between atoms: C_12  and  C_13
REMARK    6  A    between atoms: C_16  and  C_17
REMARK    7  A    between atoms: C_17  and  N_18
REMARK    8  A    between atoms: C_19  and  C_21
REMARK                            x       y       z     vdW  Elec       q    Type
REMARK                         _______ _______ _______ _____ _____    ______ ____
ROOT
ATOM      1  C   UNL     1      47.946   7.800  13.335  0.00  0.00    +0.000 A 
ATOM      2  C   UNL     1      48.100   8.985  14.069  0.00  0.00    +0.000 A 
ATOM      3  C   UNL     1      48.473   8.948  15.417  0.00  0.00    +0.000 A 
ATOM      4  C   UNL     1      48.719   7.725  16.054  0.00  0.00    +0.000 A 
ATOM      5  C   UNL     1      48.552   6.540  15.325  0.00  0.00    +0.000 A 
ATOM      6  C   UNL     1      48.180   6.578  13.978  0.00  0.00    +0.000 A 
ENDROOT
BRANCH   1   7
ATOM      7  C   UNL     1      47.572   7.838  11.876  0.00  0.00    +0.000 C 
BRANCH   7  10
ATOM      8  C   UNL     1      45.645   6.486  11.152  0.00  0.00    +0.000 C 
ATOM      9  O   UNL     1      44.876   7.435  11.280  0.00  0.00    +0.000 OA
ATOM     10  N   UNL     1      46.982   6.592  11.452  0.00  0.00    +0.000 N 
ATOM     11  H   UNL     1      47.574   5.778  11.332  0.00  0.00    +0.000 HD
BRANCH   8  17
ATOM     12  C   UNL     1      44.501   4.180  11.393  0.00  0.00    +0.000 A 
ATOM     13  C   UNL     1      44.166   2.956  10.791  0.00  0.00    +0.000 A 
ATOM     14  C   UNL     1      44.431   2.723   9.439  0.00  0.00    +0.000 A 
ATOM     15  C   UNL     1      45.029   3.711   8.667  0.00  0.00    +0.000 A 
ATOM     16  C   UNL     1      45.388   4.924   9.255  0.00  0.00    +0.000 A 
ATOM     17  C   UNL     1      45.147   5.170  10.621  0.00  0.00    +0.000 A 
BRANCH  12  19
ATOM     18  C   UNL     1      42.946   4.985  13.030  0.00  0.00    +0.000 C 
ATOM     19  O   UNL     1      44.233   4.465  12.709  0.00  0.00    +0.000 OA
ENDBRANCH  12  19
ENDBRANCH   8  17
ENDBRANCH   7  10
ENDBRANCH   1   7
BRANCH   4  20
ATOM     20  C   UNL     1      49.131   7.673  17.503  0.00  0.00    +0.000 C 
BRANCH  20  21
ATOM     21  N   UNL     1      50.191   6.719  17.718  0.00  0.00    +0.000 N 
ATOM     22  C   UNL     1      49.991   5.597  18.482  0.00  0.00    +0.000 C 
ATOM     23  O   UNL     1      48.898   5.330  18.975  0.00  0.00    +0.000 OA
ATOM     24  H   UNL     1      51.137   7.030  17.523  0.00  0.00    +0.000 HD
BRANCH  22  25
ATOM     25  C   UNL     1      51.138   4.692  18.630  0.00  0.00    +0.000 A 
ATOM     26  C   UNL     1      52.249   5.104  19.355  0.00  0.00    +0.000 A 
ATOM     27  S   UNL     1      53.467   3.915  19.477  0.00  0.00    +0.000 S 
ATOM     28  C   UNL     1      52.575   2.827  18.519  0.00  0.00    +0.000 A 
ATOM     29  N   UNL     1      53.072   1.599  18.209  0.00  0.00    +0.000 NA
ATOM     30  C   UNL     1      52.308   0.891  17.447  0.00  0.00    +0.000 A 
ATOM     31  N   UNL     1      51.087   1.297  16.972  0.00  0.00    +0.000 N 
ATOM     32  C   UNL     1      50.533   2.514  17.285  0.00  0.00    +0.000 A 
ATOM     33  O   UNL     1      49.419   2.830  16.876  0.00  0.00    +0.000 OA
ATOM     34  C   UNL     1      51.358   3.356  18.128  0.00  0.00    +0.000 A 
ATOM     35  H   UNL     1      50.535   0.691  16.383  0.00  0.00    +0.000 HD
ENDBRANCH  22  25
ENDBRANCH  20  21
ENDBRANCH   4  20
TORSDOF 7
ENDMDL
MODEL 4
REMARK VINA RESULT:    -6.814      3.551      4.443
REMARK INTER + INTRA:         -10.512
REMARK INTER:                  -9.269
REMARK INTRA:                  -1.243
REMARK UNBOUND:                -0.909
REMARK  Name = 
REMARK  8 active torsions:
REMARK  status: ('A' for Active; 'I' for Inactive)
REMARK    1  A    between atoms: C_1  and  O_2
REMARK    2  A    between atoms: O_2  and  C_3
REMARK    3  A    between atoms: C_8  and  C_9
REMARK    4  A    between atoms: N_11  and  C_12
REMARK    5  A    between atoms: C_12  and  C_13
REMARK    6  A    between atoms: C_16  and  C_17
REMARK    7  A    between atoms: C_17  and  N_18
REMARK    8  A    between atoms: C_19  and  C_21
REMARK                            x       y       z     vdW  Elec       q    Type
REMARK                         _______ _______ _______ _____ _____    ______ ____
ROOT
ATOM      1  C   UNL     1      44.983   4.738  11.658  0.00  0.00    +0.000 A 
ATOM      2  C   UNL     1      44.120   5.727  11.162  0.00  0.00    +0.000 A 
ATOM      3  C   UNL     1      44.243   7.056  11.579  0.00  0.00    +0.000 A 
ATOM      4  C   UNL     1      45.244   7.429  12.485  0.00  0.00    +0.000 A 
ATOM      5  C   UNL     1      46.097   6.439  12.991  0.00  0.00    +0.000 A 
ATOM      6  C   UNL     1      45.974   5.110  12.573  0.00  0.00    +0.000 A 
ENDROOT
BRANCH   1   7
ATOM      7  C   UNL     1      44.871   3.311  11.189  0.00  0.00    +0.000 C 
BRANCH   7  10
ATOM      8  C   UNL     1      45.175   2.382   8.928  0.00  0.00    +0.000 C 
ATOM      9  O   UNL     1      44.058   1.869   8.942  0.00  0.00    +0.000 OA
ATOM     10  N   UNL     1      45.662   3.083  10.005  0.00  0.00    +0.000 N 
ATOM     11  H   UNL     1      46.591   3.485   9.944  0.00  0.00    +0.000 HD
BRANCH   8  17
ATOM     12  C   UNL     1      46.793   1.151   7.331  0.00  0.00    +0.000 A 
ATOM     13  C   UNL     1      47.631   1.226   6.206  0.00  0.00    +0.000 A 
ATOM     14  C   UNL     1      47.702   2.391   5.438  0.00  0.00    +0.000 A 
ATOM     15  C   UNL     1      46.931   3.496   5.776  0.00  0.00    +0.000 A 
ATOM     16  C   UNL     1      46.109   3.444   6.903  0.00  0.00    +0.000 A 
ATOM     17  C   UNL     1      46.040   2.286   7.702  0.00  0.00    +0.000 A 
BRANCH  12  19
ATOM     18  C   UNL     1      46.696  -1.241   7.434  0.00  0.00    +0.000 C 
ATOM     19  O   UNL     1      46.669   0.019   8.097  0.00  0.00    +0.000 OA
ENDBRANCH  12  19
ENDBRANCH   8  17
ENDBRANCH   7  10
ENDBRANCH   1   7
BRANCH   4  20
ATOM     20  C   UNL     1      45.392   8.860  12.935  0.00  0.00    +0.000 C 
BRANCH  20  21
ATOM     21  N   UNL     1      46.778   9.246  13.024  0.00  0.00    +0.000 N 
ATOM     22  C   UNL     1      47.313  10.175  12.167  0.00  0.00    +0.000 C 
ATOM     23  O   UNL     1      46.631  10.751  11.323  0.00  0.00    +0.000 OA
ATOM     24  H   UNL     1      47.396   8.628  13.541  0.00  0.00    +0.000 HD
BRANCH  22  25
ATOM     25  C   UNL     1      48.734  10.495  12.351  0.00  0.00    +0.000 A 
ATOM     26  C   UNL     1      49.110  11.790  12.682  0.00  0.00    +0.000 A 
ATOM     27  S   UNL     1      50.789  11.979  12.915  0.00  0.00    +0.000 S 
ATOM     28  C   UNL     1      51.080  10.348  12.526  0.00  0.00    +0.000 A 
ATOM     29  N   UNL     1      52.345   9.848  12.510  0.00  0.00    +0.000 NA
ATOM     30  C   UNL     1      52.424   8.607  12.165  0.00  0.00    +0.000 A 
ATOM     31  N   UNL     1      51.350   7.817  11.840  0.00  0.00    +0.000 N 
ATOM     32  C   UNL     1      50.054   8.270  11.874  0.00  0.00    +0.000 A 
ATOM     33  O   UNL     1      49.112   7.526  11.618  0.00  0.00    +0.000 OA
ATOM     34  C   UNL     1      49.910   9.665  12.242  0.00  0.00    +0.000 A 
ATOM     35  H   UNL     1      51.480   6.849  11.583  0.00  0.00    +0.000 HD
ENDBRANCH  22  25
ENDBRANCH  20  21
ENDBRANCH   4  20
TORSDOF 7
ENDMDL
MODEL 5
REMARK VINA RESULT:    -6.758      3.470      9.963
REMARK INTER + INTRA:         -10.433
REMARK INTER:                  -9.070
REMARK INTRA:                  -1.363
REMARK UNBOUND:                -0.909
REMARK  Name = 
REMARK  8 active torsions:
REMARK  status: ('A' for Active; 'I' for Inactive)
REMARK    1  A    between atoms: C_1  and  O_2
REMARK    2  A    between atoms: O_2  and  C_3
REMARK    3  A    between atoms: C_8  and  C_9
REMARK    4  A    between atoms: N_11  and  C_12
REMARK    5  A    between atoms: C_12  and  C_13
REMARK    6  A    between atoms: C_16  and  C_17
REMARK    7  A    between atoms: C_17  and  N_18
REMARK    8  A    between atoms: C_19  and  C_21
REMARK                            x       y       z     vdW  Elec       q    Type
REMARK                         _______ _______ _______ _____ _____    ______ ____
ROOT
ATOM      1  C   UNL     1      49.916   8.333  15.454  0.00  0.00    +0.000 A 
ATOM      2  C   UNL     1      48.648   8.927  15.376  0.00  0.00    +0.000 A 
ATOM      3  C   UNL     1      47.902   8.866  14.194  0.00  0.00    +0.000 A 
ATOM      4  C   UNL     1      48.400   8.193  13.072  0.00  0.00    +0.000 A 
ATOM      5  C   UNL     1      49.673   7.611  13.145  0.00  0.00    +0.000 A 
ATOM      6  C   UNL     1      50.417   7.672  14.327  0.00  0.00    +0.000 A 
ENDROOT
BRANCH   1   7
ATOM      7  C   UNL     1      50.709   8.372  16.734  0.00  0.00    +0.000 C 
BRANCH   7  10
ATOM      8  C   UNL     1      49.701   6.593  18.107  0.00  0.00    +0.000 C 
ATOM      9  O   UNL     1      50.126   5.716  17.360  0.00  0.00    +0.000 OA
ATOM     10  N   UNL     1      49.919   7.927  17.856  0.00  0.00    +0.000 N 
ATOM     11  H   UNL     1      49.545   8.612  18.503  0.00  0.00    +0.000 HD
BRANCH   8  17
ATOM     12  C   UNL     1      47.882   6.972  19.905  0.00  0.00    +0.000 A 
ATOM     13  C   UNL     1      47.325   6.568  21.129  0.00  0.00    +0.000 A 
ATOM     14  C   UNL     1      47.790   5.428  21.789  0.00  0.00    +0.000 A 
ATOM     15  C   UNL     1      48.813   4.670  21.233  0.00  0.00    +0.000 A 
ATOM     16  C   UNL     1      49.391   5.071  20.029  0.00  0.00    +0.000 A 
ATOM     17  C   UNL     1      48.950   6.229  19.358  0.00  0.00    +0.000 A 
BRANCH  12  19
ATOM     18  C   UNL     1      47.165   9.259  19.937  0.00  0.00    +0.000 C 
ATOM     19  O   UNL     1      47.437   8.068  19.206  0.00  0.00    +0.000 OA
ENDBRANCH  12  19
ENDBRANCH   8  17
ENDBRANCH   7  10
ENDBRANCH   1   7
BRANCH   4  20
ATOM     20  C   UNL     1      47.601   8.112  11.796  0.00  0.00    +0.000 C 
BRANCH  20  21
ATOM     21  N   UNL     1      46.906   6.854  11.685  0.00  0.00    +0.000 N 
ATOM     22  C   UNL     1      45.535   6.795  11.725  0.00  0.00    +0.000 C 
ATOM     23  O   UNL     1      44.842   7.805  11.808  0.00  0.00    +0.000 OA
ATOM     24  H   UNL     1      47.449   6.012  11.850  0.00  0.00    +0.000 HD
BRANCH  22  25
ATOM     25  C   UNL     1      44.933   5.462  11.599  0.00  0.00    +0.000 A 
ATOM     26  C   UNL     1      44.238   4.917  12.670  0.00  0.00    +0.000 A 
ATOM     27  S   UNL     1      43.554   3.389  12.338  0.00  0.00    +0.000 S 
ATOM     28  C   UNL     1      44.211   3.377  10.768  0.00  0.00    +0.000 A 
ATOM     29  N   UNL     1      44.019   2.316   9.939  0.00  0.00    +0.000 NA
ATOM     30  C   UNL     1      44.601   2.424   8.792  0.00  0.00    +0.000 A 
ATOM     31  N   UNL     1      45.353   3.501   8.396  0.00  0.00    +0.000 N 
ATOM     32  C   UNL     1      45.546   4.607   9.187  0.00  0.00    +0.000 A 
ATOM     33  O   UNL     1      46.190   5.572   8.787  0.00  0.00    +0.000 OA
ATOM     34  C   UNL     1      44.925   4.531  10.495  0.00  0.00    +0.000 A 
ATOM     35  H   UNL     1      45.778   3.525   7.481  0.00  0.00    +0.000 HD
ENDBRANCH  22  25
ENDBRANCH  20  21
ENDBRANCH   4  20
TORSDOF 7
ENDMDL
MODEL 6
REMARK VINA RESULT:    -6.565      2.515      3.875
REMARK INTER + INTRA:         -10.160
REMARK INTER:                  -9.161
REMARK INTRA:                  -0.999
REMARK UNBOUND:                -0.909
REMARK  Name = 
REMARK  8 active torsions:
REMARK  status: ('A' for Active; 'I' for Inactive)
REMARK    1  A    between atoms: C_1  and  O_2
REMARK    2  A    between atoms: O_2  and  C_3
REMARK    3  A    between atoms: C_8  and  C_9
REMARK    4  A    between atoms: N_11  and  C_12
REMARK    5  A    between atoms: C_12  and  C_13
REMARK    6  A    between atoms: C_16  and  C_17
REMARK    7  A    between atoms: C_17  and  N_18
REMARK    8  A    between atoms: C_19  and  C_21
REMARK                            x       y       z     vdW  Elec       q    Type
REMARK                         _______ _______ _______ _____ _____    ______ ____
ROOT
ATOM      1  C   UNL     1      46.739   7.575  12.979  0.00  0.00    +0.000 A 
ATOM      2  C   UNL     1      47.809   6.667  12.966  0.00  0.00    +0.000 A 
ATOM      3  C   UNL     1      48.995   6.951  13.650  0.00  0.00    +0.000 A 
ATOM      4  C   UNL     1      49.130   8.140  14.379  0.00  0.00    +0.000 A 
ATOM      5  C   UNL     1      48.067   9.053  14.380  0.00  0.00    +0.000 A 
ATOM      6  C   UNL     1      46.881   8.768  13.696  0.00  0.00    +0.000 A 
ENDROOT
BRANCH   1   7
ATOM      7  C   UNL     1      45.450   7.259  12.266  0.00  0.00    +0.000 C 
BRANCH   7  10
ATOM      8  C   UNL     1      44.510   5.537  10.777  0.00  0.00    +0.000 C 
ATOM      9  O   UNL     1      43.370   5.969  10.925  0.00  0.00    +0.000 OA
ATOM     10  N   UNL     1      45.586   6.096  11.424  0.00  0.00    +0.000 N 
ATOM     11  H   UNL     1      46.507   5.699  11.270  0.00  0.00    +0.000 HD
BRANCH   8  17
ATOM     12  C   UNL     1      44.230   3.092   9.982  0.00  0.00    +0.000 A 
ATOM     13  C   UNL     1      44.627   2.085   9.088  0.00  0.00    +0.000 A 
ATOM     14  C   UNL     1      45.521   2.358   8.049  0.00  0.00    +0.000 A 
ATOM     15  C   UNL     1      46.025   3.642   7.883  0.00  0.00    +0.000 A 
ATOM     16  C   UNL     1      45.656   4.648   8.776  0.00  0.00    +0.000 A 
ATOM     17  C   UNL     1      44.772   4.388   9.842  0.00  0.00    +0.000 A 
BRANCH  12  19
ATOM     18  C   UNL     1      43.845   2.703  12.316  0.00  0.00    +0.000 C 
ATOM     19  O   UNL     1      43.332   2.878  10.999  0.00  0.00    +0.000 OA
ENDBRANCH  12  19
ENDBRANCH   8  17
ENDBRANCH   7  10
ENDBRANCH   1   7
BRANCH   4  20
ATOM     20  C   UNL     1      50.400   8.452  15.128  0.00  0.00    +0.000 C 
BRANCH  20  21
ATOM     21  N   UNL     1      50.423   7.813  16.420  0.00  0.00    +0.000 N 
ATOM     22  C   UNL     1      50.035   8.487  17.552  0.00  0.00    +0.000 C 
ATOM     23  O   UNL     1      49.609   9.637  17.510  0.00  0.00    +0.000 OA
ATOM     24  H   UNL     1      50.978   6.968  16.506  0.00  0.00    +0.000 HD
BRANCH  22  25
ATOM     25  C   UNL     1      50.094   7.737  18.813  0.00  0.00    +0.000 A 
ATOM     26  C   UNL     1      50.881   8.206  19.856  0.00  0.00    +0.000 A 
ATOM     27  S   UNL     1      50.793   7.250  21.266  0.00  0.00    +0.000 S 
ATOM     28  C   UNL     1      49.742   6.143  20.514  0.00  0.00    +0.000 A 
ATOM     29  N   UNL     1      49.292   5.045  21.178  0.00  0.00    +0.000 NA
ATOM     30  C   UNL     1      48.531   4.273  20.478  0.00  0.00    +0.000 A 
ATOM     31  N   UNL     1      48.172   4.503  19.174  0.00  0.00    +0.000 N 
ATOM     32  C   UNL     1      48.576   5.615  18.475  0.00  0.00    +0.000 A 
ATOM     33  O   UNL     1      48.204   5.812  17.322  0.00  0.00    +0.000 OA
ATOM     34  C   UNL     1      49.447   6.509  19.212  0.00  0.00    +0.000 A 
ATOM     35  H   UNL     1      47.567   3.861  18.684  0.00  0.00    +0.000 HD
ENDBRANCH  22  25
ENDBRANCH  20  21
ENDBRANCH   4  20
TORSDOF 7
ENDMDL
MODEL 7
REMARK VINA RESULT:    -6.491      2.890      4.283
REMARK INTER + INTRA:         -10.056
REMARK INTER:                  -9.192
REMARK INTRA:                  -0.864
REMARK UNBOUND:                -0.909
REMARK  Name = 
REMARK  8 active torsions:
REMARK  status: ('A' for Active; 'I' for Inactive)
REMARK    1  A    between atoms: C_1  and  O_2
REMARK    2  A    between atoms: O_2  and  C_3
REMARK    3  A    between atoms: C_8  and  C_9
REMARK    4  A    between atoms: N_11  and  C_12
REMARK    5  A    between atoms: C_12  and  C_13
REMARK    6  A    between atoms: C_16  and  C_17
REMARK    7  A    between atoms: C_17  and  N_18
REMARK    8  A    between atoms: C_19  and  C_21
REMARK                            x       y       z     vdW  Elec       q    Type
REMARK                         _______ _______ _______ _____ _____    ______ ____
ROOT
ATOM      1  C   UNL     1      46.994   7.683  12.901  0.00  0.00    +0.000 A 
ATOM      2  C   UNL     1      47.004   8.567  13.991  0.00  0.00    +0.000 A 
ATOM      3  C   UNL     1      48.115   8.645  14.837  0.00  0.00    +0.000 A 
ATOM      4  C   UNL     1      49.248   7.856  14.601  0.00  0.00    +0.000 A 
ATOM      5  C   UNL     1      49.232   6.963  13.520  0.00  0.00    +0.000 A 
ATOM      6  C   UNL     1      48.122   6.886  12.674  0.00  0.00    +0.000 A 
ENDROOT
BRANCH   1   7
ATOM      7  C   UNL     1      45.811   7.618  11.972  0.00  0.00    +0.000 C 
BRANCH   7  10
ATOM      8  C   UNL     1      44.688   5.782  10.773  0.00  0.00    +0.000 C 
ATOM      9  O   UNL     1      43.579   6.171  11.129  0.00  0.00    +0.000 OA
ATOM     10  N   UNL     1      45.840   6.421  11.168  0.00  0.00    +0.000 N 
ATOM     11  H   UNL     1      46.731   6.058  10.849  0.00  0.00    +0.000 HD
BRANCH   8  17
ATOM     12  C   UNL     1      44.147   3.371  10.013  0.00  0.00    +0.000 A 
ATOM     13  C   UNL     1      44.430   2.316   9.130  0.00  0.00    +0.000 A 
ATOM     14  C   UNL     1      45.340   2.481   8.082  0.00  0.00    +0.000 A 
ATOM     15  C   UNL     1      45.974   3.702   7.896  0.00  0.00    +0.000 A 
ATOM     16  C   UNL     1      45.719   4.753   8.777  0.00  0.00    +0.000 A 
ATOM     17  C   UNL     1      44.822   4.600   9.852  0.00  0.00    +0.000 A 
BRANCH  12  19
ATOM     18  C   UNL     1      43.557   2.398  12.122  0.00  0.00    +0.000 C 
ATOM     19  O   UNL     1      43.239   3.265  11.038  0.00  0.00    +0.000 OA
ENDBRANCH  12  19
ENDBRANCH   8  17
ENDBRANCH   7  10
ENDBRANCH   1   7
BRANCH   4  20
ATOM     20  C   UNL     1      50.454   7.938  15.500  0.00  0.00    +0.000 C 
BRANCH  20  21
ATOM     21  N   UNL     1      50.111   7.659  16.872  0.00  0.00    +0.000 N 
ATOM     22  C   UNL     1      49.890   6.373  17.301  0.00  0.00    +0.000 C 
ATOM     23  O   UNL     1      50.021   5.407  16.555  0.00  0.00    +0.000 OA
ATOM     24  H   UNL     1      49.776   8.437  17.431  0.00  0.00    +0.000 HD
BRANCH  22  25
ATOM     25  C   UNL     1      49.551   6.205  18.720  0.00  0.00    +0.000 A 
ATOM     26  C   UNL     1      50.062   5.123  19.425  0.00  0.00    +0.000 A 
ATOM     27  S   UNL     1      49.618   5.107  21.072  0.00  0.00    +0.000 S 
ATOM     28  C   UNL     1      48.681   6.516  20.888  0.00  0.00    +0.000 A 
ATOM     29  N   UNL     1      47.993   7.039  21.938  0.00  0.00    +0.000 NA
ATOM     30  C   UNL     1      47.297   8.087  21.650  0.00  0.00    +0.000 A 
ATOM     31  N   UNL     1      47.231   8.664  20.407  0.00  0.00    +0.000 N 
ATOM     32  C   UNL     1      47.935   8.189  19.327  0.00  0.00    +0.000 A 
ATOM     33  O   UNL     1      47.886   8.753  18.238  0.00  0.00    +0.000 OA
ATOM     34  C   UNL     1      48.723   7.002  19.593  0.00  0.00    +0.000 A 
ATOM     35  H   UNL     1      46.671   9.489  20.249  0.00  0.00    +0.000 HD
ENDBRANCH  22  25
ENDBRANCH  20  21
ENDBRANCH   4  20
TORSDOF 7
ENDMDL
MODEL 8
REMARK VINA RESULT:    -6.473      4.888      6.509
REMARK INTER + INTRA:         -10.031
REMARK INTER:                  -8.661
REMARK INTRA:                  -1.370
REMARK UNBOUND:                -0.909
REMARK  Name = 
REMARK  8 active torsions:
REMARK  status: ('A' for Active; 'I' for Inactive)
REMARK    1  A    between atoms: C_1  and  O_2
REMARK    2  A    between atoms: O_2  and  C_3
REMARK    3  A    between atoms: C_8  and  C_9
REMARK    4  A    between atoms: N_11  and  C_12
REMARK    5  A    between atoms: C_12  and  C_13
REMARK    6  A    between atoms: C_16  and  C_17
REMARK    7  A    between atoms: C_17  and  N_18
REMARK    8  A    between atoms: C_19  and  C_21
REMARK                            x       y       z     vdW  Elec       q    Type
REMARK                         _______ _______ _______ _____ _____    ______ ____
ROOT
ATOM      1  C   UNL     1      46.650   7.852  12.884  0.00  0.00    +0.000 A 
ATOM      2  C   UNL     1      47.938   7.628  13.390  0.00  0.00    +0.000 A 
ATOM      3  C   UNL     1      48.949   8.579  13.219  0.00  0.00    +0.000 A 
ATOM      4  C   UNL     1      48.688   9.783  12.553  0.00  0.00    +0.000 A 
ATOM      5  C   UNL     1      47.405  10.001  12.034  0.00  0.00    +0.000 A 
ATOM      6  C   UNL     1      46.394   9.051  12.208  0.00  0.00    +0.000 A 
ENDROOT
BRANCH   1   7
ATOM      7  C   UNL     1      45.551   6.842  13.092  0.00  0.00    +0.000 C 
BRANCH   7  10
ATOM      8  C   UNL     1      44.640   5.721  11.097  0.00  0.00    +0.000 C 
ATOM      9  O   UNL     1      43.681   6.488  11.051  0.00  0.00    +0.000 OA
ATOM     10  N   UNL     1      45.590   5.809  12.087  0.00  0.00    +0.000 N 
ATOM     11  H   UNL     1      46.360   5.150  12.082  0.00  0.00    +0.000 HD
BRANCH   8  17
ATOM     12  C   UNL     1      44.164   3.423  10.012  0.00  0.00    +0.000 A 
ATOM     13  C   UNL     1      44.495   2.496   9.011  0.00  0.00    +0.000 A 
ATOM     14  C   UNL     1      45.440   2.805   8.028  0.00  0.00    +0.000 A 
ATOM     15  C   UNL     1      46.061   4.047   8.026  0.00  0.00    +0.000 A 
ATOM     16  C   UNL     1      45.758   4.971   9.026  0.00  0.00    +0.000 A 
ATOM     17  C   UNL     1      44.825   4.671  10.037  0.00  0.00    +0.000 A 
BRANCH  12  19
ATOM     18  C   UNL     1      43.627   2.445  12.133  0.00  0.00    +0.000 C 
ATOM     19  O   UNL     1      43.222   3.175  10.979  0.00  0.00    +0.000 OA
ENDBRANCH  12  19
ENDBRANCH   8  17
ENDBRANCH   7  10
ENDBRANCH   1   7
BRANCH   4  20
ATOM     20  C   UNL     1      49.767  10.819  12.370  0.00  0.00    +0.000 C 
BRANCH  20  21
ATOM     21  N   UNL     1      50.947  10.253  11.766  0.00  0.00    +0.000 N 
ATOM     22  C   UNL     1      51.296  10.553  10.473  0.00  0.00    +0.000 C 
ATOM     23  O   UNL     1      50.653  11.346   9.793  0.00  0.00    +0.000 OA
ATOM     24  H   UNL     1      51.349   9.437  12.217  0.00  0.00    +0.000 HD
BRANCH  22  25
ATOM     25  C   UNL     1      52.520   9.923   9.962  0.00  0.00    +0.000 A 
ATOM     26  C   UNL     1      53.524  10.713   9.417  0.00  0.00    +0.000 A 
ATOM     27  S   UNL     1      54.899   9.831   8.923  0.00  0.00    +0.000 S 
ATOM     28  C   UNL     1      54.178   8.355   9.370  0.00  0.00    +0.000 A 
ATOM     29  N   UNL     1      54.829   7.175   9.183  0.00  0.00    +0.000 NA
ATOM     30  C   UNL     1      54.153   6.133   9.534  0.00  0.00    +0.000 A 
ATOM     31  N   UNL     1      52.887   6.163  10.061  0.00  0.00    +0.000 N 
ATOM     32  C   UNL     1      52.206   7.333  10.296  0.00  0.00    +0.000 A 
ATOM     33  O   UNL     1      51.089   7.327  10.808  0.00  0.00    +0.000 OA
ATOM     34  C   UNL     1      52.915   8.535   9.906  0.00  0.00    +0.000 A 
ATOM     35  H   UNL     1      52.415   5.310  10.320  0.00  0.00    +0.000 HD
ENDBRANCH  22  25
ENDBRANCH  20  21
ENDBRANCH   4  20
TORSDOF 7
ENDMDL
MODEL 9
REMARK VINA RESULT:    -6.422      4.375      8.582
REMARK INTER + INTRA:          -9.959
REMARK INTER:                  -8.543
REMARK INTRA:                  -1.417
REMARK UNBOUND:                -0.909
REMARK  Name = 
REMARK  8 active torsions:
REMARK  status: ('A' for Active; 'I' for Inactive)
REMARK    1  A    between atoms: C_1  and  O_2
REMARK    2  A    between atoms: O_2  and  C_3
REMARK    3  A    between atoms: C_8  and  C_9
REMARK    4  A    between atoms: N_11  and  C_12
REMARK    5  A    between atoms: C_12  and  C_13
REMARK    6  A    between atoms: C_16  and  C_17
REMARK    7  A    between atoms: C_17  and  N_18
REMARK    8  A    between atoms: C_19  and  C_21
REMARK                            x       y       z     vdW  Elec       q    Type
REMARK                         _______ _______ _______ _____ _____    ______ ____
ROOT
ATOM      1  C   UNL     1      50.622   8.149  16.230  0.00  0.00    +0.000 A 
ATOM      2  C   UNL     1      49.526   8.992  16.467  0.00  0.00    +0.000 A 
ATOM      3  C   UNL     1      48.652   9.337  15.431  0.00  0.00    +0.000 A 
ATOM      4  C   UNL     1      48.843   8.829  14.140  0.00  0.00    +0.000 A 
ATOM      5  C   UNL     1      49.945   7.997  13.900  0.00  0.00    +0.000 A 
ATOM      6  C   UNL     1      50.818   7.653  14.937  0.00  0.00    +0.000 A 
ENDROOT
BRANCH   1   7
ATOM      7  C   UNL     1      51.548   7.754  17.351  0.00  0.00    +0.000 C 
BRANCH   7  10
ATOM      8  C   UNL     1      51.056   5.427  17.993  0.00  0.00    +0.000 C 
ATOM      9  O   UNL     1      50.109   5.776  18.693  0.00  0.00    +0.000 OA
ATOM     10  N   UNL     1      51.835   6.341  17.322  0.00  0.00    +0.000 N 
ATOM     11  H   UNL     1      52.607   6.002  16.759  0.00  0.00    +0.000 HD
BRANCH   8  17
ATOM     12  C   UNL     1      50.520   3.018  17.221  0.00  0.00    +0.000 A 
ATOM     13  C   UNL     1      50.907   1.669  17.200  0.00  0.00    +0.000 A 
ATOM     14  C   UNL     1      52.135   1.264  17.729  0.00  0.00    +0.000 A 
ATOM     15  C   UNL     1      52.999   2.202  18.279  0.00  0.00    +0.000 A 
ATOM     16  C   UNL     1      52.621   3.544  18.326  0.00  0.00    +0.000 A 
ATOM     17  C   UNL     1      51.377   3.968  17.817  0.00  0.00    +0.000 A 
BRANCH  12  19
ATOM     18  C   UNL     1      48.193   2.627  16.805  0.00  0.00    +0.000 C 
ATOM     19  O   UNL     1      49.337   3.466  16.687  0.00  0.00    +0.000 OA
ENDBRANCH  12  19
ENDBRANCH   8  17
ENDBRANCH   7  10
ENDBRANCH   1   7
BRANCH   4  20
ATOM     20  C   UNL     1      47.902   9.185  13.018  0.00  0.00    +0.000 C 
BRANCH  20  21
ATOM     21  N   UNL     1      47.126   8.046  12.597  0.00  0.00    +0.000 N 
ATOM     22  C   UNL     1      45.754   8.073  12.625  0.00  0.00    +0.000 C 
ATOM     23  O   UNL     1      45.129   9.074  12.962  0.00  0.00    +0.000 OA
ATOM     24  H   UNL     1      47.608   7.154  12.542  0.00  0.00    +0.000 HD
BRANCH  22  25
ATOM     25  C   UNL     1      45.065   6.858  12.170  0.00  0.00    +0.000 A 
ATOM     26  C   UNL     1      43.930   6.968  11.377  0.00  0.00    +0.000 A 
ATOM     27  S   UNL     1      43.287   5.465  10.889  0.00  0.00    +0.000 S 
ATOM     28  C   UNL     1      44.471   4.613  11.766  0.00  0.00    +0.000 A 
ATOM     29  N   UNL     1      44.476   3.253  11.794  0.00  0.00    +0.000 NA
ATOM     30  C   UNL     1      45.407   2.738  12.525  0.00  0.00    +0.000 A 
ATOM     31  N   UNL     1      46.338   3.461  13.227  0.00  0.00    +0.000 N 
ATOM     32  C   UNL     1      46.389   4.834  13.203  0.00  0.00    +0.000 A 
ATOM     33  O   UNL     1      47.261   5.449  13.810  0.00  0.00    +0.000 OA
ATOM     34  C   UNL     1      45.355   5.464  12.406  0.00  0.00    +0.000 A 
ATOM     35  H   UNL     1      47.045   2.996  13.778  0.00  0.00    +0.000 HD
ENDBRANCH  22  25
ENDBRANCH  20  21
ENDBRANCH   4  20
TORSDOF 7
ENDMDL
