MODEL 1
REMARK VINA RESULT:    -8.330      0.000      0.000
REMARK INTER + INTRA:         -11.715
REMARK INTER:                 -11.252
REMARK INTRA:                  -0.464
REMARK UNBOUND:                -0.464
REMARK  Name = 
REMARK  6 active torsions:
REMARK  status: ('A' for Active; 'I' for Inactive)
REMARK    1  A    between atoms: C_2  and  C_22
REMARK    2  A    between atoms: N_3  and  C_4
REMARK    3  A    between atoms: C_4  and  C_5
REMARK    4  A    between atoms: C_8  and  C_9
REMARK    5  A    between atoms: C_9  and  N_10
REMARK    6  A    between atoms: C_11  and  C_13
REMARK                            x       y       z     vdW  Elec       q    Type
REMARK                         _______ _______ _______ _____ _____    ______ ____
ROOT
ATOM      1  C   UNL     1      46.790   6.235  12.776  0.00  0.00    +0.000 A 
ATOM      2  C   UNL     1      45.999   5.163  13.213  0.00  0.00    +0.000 A 
ATOM      3  C   UNL     1      45.135   4.505  12.330  0.00  0.00    +0.000 A 
ATOM      4  C   UNL     1      45.060   4.889  10.985  0.00  0.00    +0.000 A 
ATOM      5  C   UNL     1      45.837   5.972  10.553  0.00  0.00    +0.000 A 
ATOM      6  C   UNL     1      46.702   6.630  11.435  0.00  0.00    +0.000 A 
ENDROOT
BRANCH   1   7
ATOM      7  C   UNL     1      47.723   6.937  13.726  0.00  0.00    +0.000 C 
BRANCH   7  10
ATOM      8  O   UNL     1      49.981   6.700  15.324  0.00  0.00    +0.000 OA
ATOM      9  C   UNL     1      48.918   6.259  15.747  0.00  0.00    +0.000 C 
ATOM     10  N   UNL     1      47.740   6.318  15.035  0.00  0.00    +0.000 N 
ATOM     11  H   UNL     1      46.855   6.096  15.473  0.00  0.00    +0.000 HD
BRANCH   9  12
ATOM     12  C   UNL     1      48.868   5.647  17.092  0.00  0.00    +0.000 A 
ATOM     13  C   UNL     1      48.887   4.250  17.178  0.00  0.00    +0.000 A 
ATOM     14  N   UNL     1      48.812   3.518  18.326  0.00  0.00    +0.000 NA
ATOM     15  C   UNL     1      48.680   4.304  19.407  0.00  0.00    +0.000 A 
ATOM     16  N   UNL     1      48.542   3.892  20.700  0.00  0.00    +0.000 N 
ATOM     17  C   UNL     1      48.407   5.012  21.475  0.00  0.00    +0.000 A 
ATOM     18  N   UNL     1      48.470   6.116  20.759  0.00  0.00    +0.000 NA
ATOM     19  C   UNL     1      48.635   5.691  19.463  0.00  0.00    +0.000 A 
ATOM     20  C   UNL     1      48.740   6.405  18.263  0.00  0.00    +0.000 A 
ATOM     21  H   UNL     1      48.523   2.931  21.005  0.00  0.00    +0.000 HD
ENDBRANCH   9  12
ENDBRANCH   7  10
ENDBRANCH   1   7
BRANCH   4  22
ATOM     22  C   UNL     1      44.161   4.154  10.020  0.00  0.00    +0.000 C 
BRANCH  22  23
ATOM     23  N   UNL     1      44.847   3.808   8.798  0.00  0.00    +0.000 N 
ATOM     24  C   UNL     1      45.512   2.608   8.660  0.00  0.00    +0.000 C 
ATOM     25  O   UNL     1      45.460   1.712   9.494  0.00  0.00    +0.000 OA
ATOM     26  H   UNL     1      44.937   4.520   8.085  0.00  0.00    +0.000 HD
BRANCH  24  27
ATOM     27  C   UNL     1      46.276   2.410   7.394  0.00  0.00    +0.000 A 
ATOM     28  C   UNL     1      46.418   3.531   6.554  0.00  0.00    +0.000 A 
ATOM     29  C   UNL     1      47.164   3.449   5.374  0.00  0.00    +0.000 A 
ATOM     30  C   UNL     1      47.769   2.249   5.015  0.00  0.00    +0.000 A 
ATOM     31  C   UNL     1      47.604   1.121   5.820  0.00  0.00    +0.000 A 
ATOM     32  C   UNL     1      46.850   1.193   6.999  0.00  0.00    +0.000 A 
ATOM     33 CL   UNL     1      46.644  -0.290   7.866  0.00  0.00    +0.000 Cl
ENDBRANCH  24  27
ENDBRANCH  22  23
ENDBRANCH   4  22
TORSDOF 6
ENDMDL
MODEL 2
REMARK VINA RESULT:    -8.321      2.710     10.302
REMARK INTER + INTRA:         -11.703
REMARK INTER:                 -10.844
REMARK INTRA:                  -0.858
REMARK UNBOUND:                -0.464
REMARK  Name = 
REMARK  6 active torsions:
REMARK  status: ('A' for Active; 'I' for Inactive)
REMARK    1  A    between atoms: C_2  and  C_22
REMARK    2  A    between atoms: N_3  and  C_4
REMARK    3  A    between atoms: C_4  and  C_5
REMARK    4  A    between atoms: C_8  and  C_9
REMARK    5  A    between atoms: C_9  and  N_10
REMARK    6  A    between atoms: C_11  and  C_13
REMARK                            x       y       z     vdW  Elec       q    Type
REMARK                         _______ _______ _______ _____ _____    ______ ____
ROOT
ATOM      1  C   UNL     1      45.308   6.635  11.696  0.00  0.00    +0.000 A 
ATOM      2  C   UNL     1      46.413   5.938  12.205  0.00  0.00    +0.000 A 
ATOM      3  C   UNL     1      47.306   6.558  13.088  0.00  0.00    +0.000 A 
ATOM      4  C   UNL     1      47.101   7.881  13.498  0.00  0.00    +0.000 A 
ATOM      5  C   UNL     1      46.007   8.584  12.974  0.00  0.00    +0.000 A 
ATOM      6  C   UNL     1      45.114   7.964  12.093  0.00  0.00    +0.000 A 
ENDROOT
BRANCH   1   7
ATOM      7  C   UNL     1      44.347   5.964  10.752  0.00  0.00    +0.000 C 
BRANCH   7  10
ATOM      8  O   UNL     1      43.735   3.302  10.253  0.00  0.00    +0.000 OA
ATOM      9  C   UNL     1      44.635   3.826   9.605  0.00  0.00    +0.000 C 
ATOM     10  N   UNL     1      45.024   5.137   9.777  0.00  0.00    +0.000 N 
ATOM     11  H   UNL     1      45.652   5.583   9.121  0.00  0.00    +0.000 HD
BRANCH   9  12
ATOM     12  C   UNL     1      45.339   3.039   8.569  0.00  0.00    +0.000 A 
ATOM     13  C   UNL     1      45.641   1.702   8.854  0.00  0.00    +0.000 A 
ATOM     14  N   UNL     1      46.313   0.842   8.036  0.00  0.00    +0.000 NA
ATOM     15  C   UNL     1      46.699   1.442   6.898  0.00  0.00    +0.000 A 
ATOM     16  N   UNL     1      47.421   0.878   5.887  0.00  0.00    +0.000 N 
ATOM     17  C   UNL     1      47.621   1.844   4.938  0.00  0.00    +0.000 A 
ATOM     18  N   UNL     1      47.056   2.985   5.271  0.00  0.00    +0.000 NA
ATOM     19  C   UNL     1      46.480   2.753   6.497  0.00  0.00    +0.000 A 
ATOM     20  C   UNL     1      45.764   3.596   7.356  0.00  0.00    +0.000 A 
ATOM     21  H   UNL     1      47.755  -0.074   5.871  0.00  0.00    +0.000 HD
ENDBRANCH   9  12
ENDBRANCH   7  10
ENDBRANCH   1   7
BRANCH   4  22
ATOM     22  C   UNL     1      48.038   8.540  14.482  0.00  0.00    +0.000 C 
BRANCH  22  23
ATOM     23  N   UNL     1      48.151   7.786  15.708  0.00  0.00    +0.000 N 
ATOM     24  C   UNL     1      49.183   6.895  15.914  0.00  0.00    +0.000 C 
ATOM     25  O   UNL     1      50.131   6.777  15.146  0.00  0.00    +0.000 OA
ATOM     26  H   UNL     1      47.385   7.831  16.367  0.00  0.00    +0.000 HD
BRANCH  24  27
ATOM     27  C   UNL     1      49.133   6.094  17.171  0.00  0.00    +0.000 A 
ATOM     28  C   UNL     1      49.933   6.537  18.241  0.00  0.00    +0.000 A 
ATOM     29  C   UNL     1      49.907   5.878  19.474  0.00  0.00    +0.000 A 
ATOM     30  C   UNL     1      49.090   4.766  19.651  0.00  0.00    +0.000 A 
ATOM     31  C   UNL     1      48.321   4.294  18.587  0.00  0.00    +0.000 A 
ATOM     32  C   UNL     1      48.350   4.944  17.345  0.00  0.00    +0.000 A 
ATOM     33 CL   UNL     1      47.422   4.215  16.079  0.00  0.00    +0.000 Cl
ENDBRANCH  24  27
ENDBRANCH  22  23
ENDBRANCH   4  22
TORSDOF 6
ENDMDL
MODEL 3
REMARK VINA RESULT:    -8.103      3.917     11.198
REMARK INTER + INTRA:         -11.408
REMARK INTER:                 -10.737
REMARK INTRA:                  -0.671
REMARK UNBOUND:                -0.464
REMARK  Name = 
REMARK  6 active torsions:
REMARK  status: ('A' for Active; 'I' for Inactive)
REMARK    1  A    between atoms: C_2  and  C_22
REMARK    2  A    between atoms: N_3  and  C_4
REMARK    3  A    between atoms: C_4  and  C_5
REMARK    4  A    between atoms: C_8  and  C_9
REMARK    5  A    between atoms: C_9  and  N_10
REMARK    6  A    between atoms: C_11  and  C_13
REMARK                            x       y       z     vdW  Elec       q    Type
REMARK                         _______ _______ _______ _____ _____    ______ ____
ROOT
ATOM      1  C   UNL     1      45.348   6.606  11.875  0.00  0.00    +0.000 A 
ATOM      2  C   UNL     1      45.130   7.965  12.145  0.00  0.00    +0.000 A 
ATOM      3  C   UNL     1      46.025   8.689  12.943  0.00  0.00    +0.000 A 
ATOM      4  C   UNL     1      47.169   8.076  13.470  0.00  0.00    +0.000 A 
ATOM      5  C   UNL     1      47.376   6.713  13.215  0.00  0.00    +0.000 A 
ATOM      6  C   UNL     1      46.483   5.990  12.417  0.00  0.00    +0.000 A 
ENDROOT
BRANCH   1   7
ATOM      7  C   UNL     1      44.388   5.833  11.012  0.00  0.00    +0.000 C 
BRANCH   7  10
ATOM      8  O   UNL     1      43.637   3.268  10.257  0.00  0.00    +0.000 OA
ATOM      9  C   UNL     1      44.606   3.779   9.707  0.00  0.00    +0.000 C 
ATOM     10  N   UNL     1      45.068   5.041  10.009  0.00  0.00    +0.000 N 
ATOM     11  H   UNL     1      45.762   5.495   9.428  0.00  0.00    +0.000 HD
BRANCH   9  12
ATOM     12  C   UNL     1      45.320   3.031   8.649  0.00  0.00    +0.000 A 
ATOM     13  C   UNL     1      45.630   1.687   8.891  0.00  0.00    +0.000 A 
ATOM     14  N   UNL     1      46.310   0.859   8.049  0.00  0.00    +0.000 NA
ATOM     15  C   UNL     1      46.697   1.497   6.932  0.00  0.00    +0.000 A 
ATOM     16  N   UNL     1      47.426   0.971   5.906  0.00  0.00    +0.000 N 
ATOM     17  C   UNL     1      47.622   1.969   4.989  0.00  0.00    +0.000 A 
ATOM     18  N   UNL     1      47.048   3.095   5.357  0.00  0.00    +0.000 NA
ATOM     19  C   UNL     1      46.469   2.819   6.572  0.00  0.00    +0.000 A 
ATOM     20  C   UNL     1      45.745   3.629   7.455  0.00  0.00    +0.000 A 
ATOM     21  H   UNL     1      47.766   0.023   5.860  0.00  0.00    +0.000 HD
ENDBRANCH   9  12
ENDBRANCH   7  10
ENDBRANCH   1   7
BRANCH   4  22
ATOM     22  C   UNL     1      48.157   8.864  14.295  0.00  0.00    +0.000 C 
BRANCH  22  23
ATOM     23  N   UNL     1      47.652   9.149  15.616  0.00  0.00    +0.000 N 
ATOM     24  C   UNL     1      48.442   9.746  16.577  0.00  0.00    +0.000 C 
ATOM     25  O   UNL     1      49.561  10.188  16.345  0.00  0.00    +0.000 OA
ATOM     26  H   UNL     1      46.741   8.787  15.866  0.00  0.00    +0.000 HD
BRANCH  24  27
ATOM     27  C   UNL     1      47.846   9.890  17.936  0.00  0.00    +0.000 A 
ATOM     28  C   UNL     1      47.458  11.185  18.328  0.00  0.00    +0.000 A 
ATOM     29  C   UNL     1      46.841  11.404  19.564  0.00  0.00    +0.000 A 
ATOM     30  C   UNL     1      46.613  10.336  20.425  0.00  0.00    +0.000 A 
ATOM     31  C   UNL     1      47.026   9.053  20.065  0.00  0.00    +0.000 A 
ATOM     32  C   UNL     1      47.654   8.828  18.832  0.00  0.00    +0.000 A 
ATOM     33 CL   UNL     1      48.200   7.213  18.535  0.00  0.00    +0.000 Cl
ENDBRANCH  24  27
ENDBRANCH  22  23
ENDBRANCH   4  22
TORSDOF 6
ENDMDL
MODEL 4
REMARK VINA RESULT:    -8.023      5.127      7.085
REMARK INTER + INTRA:         -11.300
REMARK INTER:                 -10.611
REMARK INTRA:                  -0.689
REMARK UNBOUND:                -0.464
REMARK  Name = 
REMARK  6 active torsions:
REMARK  status: ('A' for Active; 'I' for Inactive)
REMARK    1  A    between atoms: C_2  and  C_22
REMARK    2  A    between atoms: N_3  and  C_4
REMARK    3  A    between atoms: C_4  and  C_5
REMARK    4  A    between atoms: C_8  and  C_9
REMARK    5  A    between atoms: C_9  and  N_10
REMARK    6  A    between atoms: C_11  and  C_13
REMARK                            x       y       z     vdW  Elec       q    Type
REMARK                         _______ _______ _______ _____ _____    ______ ____
ROOT
ATOM      1  C   UNL     1      44.687   3.445   9.230  0.00  0.00    +0.000 A 
ATOM      2  C   UNL     1      44.930   2.064   9.226  0.00  0.00    +0.000 A 
ATOM      3  C   UNL     1      45.906   1.512   8.387  0.00  0.00    +0.000 A 
ATOM      4  C   UNL     1      46.675   2.330   7.550  0.00  0.00    +0.000 A 
ATOM      5  C   UNL     1      46.418   3.708   7.541  0.00  0.00    +0.000 A 
ATOM      6  C   UNL     1      45.445   4.261   8.380  0.00  0.00    +0.000 A 
ENDROOT
BRANCH   1   7
ATOM      7  C   UNL     1      43.642   4.037  10.137  0.00  0.00    +0.000 C 
BRANCH   7  10
ATOM      8  O   UNL     1      45.184   5.135  12.169  0.00  0.00    +0.000 OA
ATOM      9  C   UNL     1      44.628   5.893  11.383  0.00  0.00    +0.000 C 
ATOM     10  N   UNL     1      43.835   5.456  10.344  0.00  0.00    +0.000 N 
ATOM     11  H   UNL     1      43.526   6.093   9.621  0.00  0.00    +0.000 HD
BRANCH   9  12
ATOM     12  C   UNL     1      44.817   7.354  11.524  0.00  0.00    +0.000 A 
ATOM     13  C   UNL     1      45.907   7.803  12.279  0.00  0.00    +0.000 A 
ATOM     14  N   UNL     1      46.214   9.105  12.543  0.00  0.00    +0.000 NA
ATOM     15  C   UNL     1      45.311   9.945  12.010  0.00  0.00    +0.000 A 
ATOM     16  N   UNL     1      45.302  11.305  12.120  0.00  0.00    +0.000 N 
ATOM     17  C   UNL     1      44.195  11.761  11.457  0.00  0.00    +0.000 A 
ATOM     18  N   UNL     1      43.506  10.779  10.915  0.00  0.00    +0.000 NA
ATOM     19  C   UNL     1      44.187   9.636  11.256  0.00  0.00    +0.000 A 
ATOM     20  C   UNL     1      43.921   8.287  10.987  0.00  0.00    +0.000 A 
ATOM     21  H   UNL     1      45.985  11.853  12.620  0.00  0.00    +0.000 HD
ENDBRANCH   9  12
ENDBRANCH   7  10
ENDBRANCH   1   7
BRANCH   4  22
ATOM     22  C   UNL     1      47.756   1.742   6.676  0.00  0.00    +0.000 C 
BRANCH  22  23
ATOM     23  N   UNL     1      47.252   0.692   5.825  0.00  0.00    +0.000 N 
ATOM     24  C   UNL     1      47.326   0.779   4.450  0.00  0.00    +0.000 C 
ATOM     25  O   UNL     1      47.929   1.672   3.866  0.00  0.00    +0.000 OA
ATOM     26  H   UNL     1      46.726  -0.059   6.254  0.00  0.00    +0.000 HD
BRANCH  24  27
ATOM     27  C   UNL     1      46.673  -0.315   3.675  0.00  0.00    +0.000 A 
ATOM     28  C   UNL     1      47.051  -1.633   3.992  0.00  0.00    +0.000 A 
ATOM     29  C   UNL     1      46.451  -2.723   3.353  0.00  0.00    +0.000 A 
ATOM     30  C   UNL     1      45.473  -2.509   2.386  0.00  0.00    +0.000 A 
ATOM     31  C   UNL     1      45.116  -1.206   2.036  0.00  0.00    +0.000 A 
ATOM     32  C   UNL     1      45.721  -0.110   2.666  0.00  0.00    +0.000 A 
ATOM     33 CL   UNL     1      45.261   1.454   2.086  0.00  0.00    +0.000 Cl
ENDBRANCH  24  27
ENDBRANCH  22  23
ENDBRANCH   4  22
TORSDOF 6
ENDMDL
MODEL 5
REMARK VINA RESULT:    -7.808      3.331     10.309
REMARK INTER + INTRA:         -11.010
REMARK INTER:                 -10.207
REMARK INTRA:                  -0.803
REMARK UNBOUND:                -0.464
REMARK  Name = 
REMARK  6 active torsions:
REMARK  status: ('A' for Active; 'I' for Inactive)
REMARK    1  A    between atoms: C_2  and  C_22
REMARK    2  A    between atoms: N_3  and  C_4
REMARK    3  A    between atoms: C_4  and  C_5
REMARK    4  A    between atoms: C_8  and  C_9
REMARK    5  A    between atoms: C_9  and  N_10
REMARK    6  A    between atoms: C_11  and  C_13
REMARK                            x       y       z     vdW  Elec       q    Type
REMARK                         _______ _______ _______ _____ _____    ______ ____
ROOT
ATOM      1  C   UNL     1      45.807   6.648  11.863  0.00  0.00    +0.000 A 
ATOM      2  C   UNL     1      46.513   5.651  12.551  0.00  0.00    +0.000 A 
ATOM      3  C   UNL     1      47.395   5.985  13.586  0.00  0.00    +0.000 A 
ATOM      4  C   UNL     1      47.575   7.320  13.970  0.00  0.00    +0.000 A 
ATOM      5  C   UNL     1      46.882   8.317  13.268  0.00  0.00    +0.000 A 
ATOM      6  C   UNL     1      45.999   7.984  12.235  0.00  0.00    +0.000 A 
ENDROOT
BRANCH   1   7
ATOM      7  C   UNL     1      44.854   6.286  10.755  0.00  0.00    +0.000 C 
BRANCH   7  10
ATOM      8  O   UNL     1      43.827   3.773  10.168  0.00  0.00    +0.000 OA
ATOM      9  C   UNL     1      44.843   4.139   9.588  0.00  0.00    +0.000 C 
ATOM     10  N   UNL     1      45.440   5.362   9.808  0.00  0.00    +0.000 N 
ATOM     11  H   UNL     1      46.176   5.698   9.201  0.00  0.00    +0.000 HD
BRANCH   9  12
ATOM     12  C   UNL     1      45.467   3.251   8.583  0.00  0.00    +0.000 A 
ATOM     13  C   UNL     1      45.634   1.901   8.915  0.00  0.00    +0.000 A 
ATOM     14  N   UNL     1      46.218   0.951   8.131  0.00  0.00    +0.000 NA
ATOM     15  C   UNL     1      46.664   1.469   6.974  0.00  0.00    +0.000 A 
ATOM     16  N   UNL     1      47.327   0.801   5.987  0.00  0.00    +0.000 N 
ATOM     17  C   UNL     1      47.623   1.709   5.006  0.00  0.00    +0.000 A 
ATOM     18  N   UNL     1      47.174   2.912   5.297  0.00  0.00    +0.000 NA
ATOM     19  C   UNL     1      46.576   2.781   6.527  0.00  0.00    +0.000 A 
ATOM     20  C   UNL     1      45.947   3.720   7.353  0.00  0.00    +0.000 A 
ATOM     21  H   UNL     1      47.564  -0.179   6.005  0.00  0.00    +0.000 HD
ENDBRANCH   9  12
ENDBRANCH   7  10
ENDBRANCH   1   7
BRANCH   4  22
ATOM     22  C   UNL     1      48.493   7.680  15.112  0.00  0.00    +0.000 C 
BRANCH  22  23
ATOM     23  N   UNL     1      49.261   6.545  15.566  0.00  0.00    +0.000 N 
ATOM     24  C   UNL     1      49.324   6.204  16.901  0.00  0.00    +0.000 C 
ATOM     25  O   UNL     1      48.643   6.745  17.764  0.00  0.00    +0.000 OA
ATOM     26  H   UNL     1      49.858   6.076  14.897  0.00  0.00    +0.000 HD
BRANCH  24  27
ATOM     27  C   UNL     1      50.237   5.081  17.261  0.00  0.00    +0.000 A 
ATOM     28  C   UNL     1      49.674   3.792  17.304  0.00  0.00    +0.000 A 
ATOM     29  C   UNL     1      50.469   2.674  17.580  0.00  0.00    +0.000 A 
ATOM     30  C   UNL     1      51.829   2.831  17.823  0.00  0.00    +0.000 A 
ATOM     31  C   UNL     1      52.392   4.108  17.820  0.00  0.00    +0.000 A 
ATOM     32  C   UNL     1      51.600   5.233  17.554  0.00  0.00    +0.000 A 
ATOM     33 CL   UNL     1      52.391   6.768  17.664  0.00  0.00    +0.000 Cl
ENDBRANCH  24  27
ENDBRANCH  22  23
ENDBRANCH   4  22
TORSDOF 6
ENDMDL
MODEL 6
REMARK VINA RESULT:    -7.559      2.963      5.465
REMARK INTER + INTRA:         -10.674
REMARK INTER:                 -10.067
REMARK INTRA:                  -0.608
REMARK UNBOUND:                -0.464
REMARK  Name = 
REMARK  6 active torsions:
REMARK  status: ('A' for Active; 'I' for Inactive)
REMARK    1  A    between atoms: C_2  and  C_22
REMARK    2  A    between atoms: N_3  and  C_4
REMARK    3  A    between atoms: C_4  and  C_5
REMARK    4  A    between atoms: C_8  and  C_9
REMARK    5  A    between atoms: C_9  and  N_10
REMARK    6  A    between atoms: C_11  and  C_13
REMARK                            x       y       z     vdW  Elec       q    Type
REMARK                         _______ _______ _______ _____ _____    ______ ____
ROOT
ATOM      1  C   UNL     1      45.128   2.986   8.833  0.00  0.00    +0.000 A 
ATOM      2  C   UNL     1      45.691   1.706   8.729  0.00  0.00    +0.000 A 
ATOM      3  C   UNL     1      46.533   1.380   7.659  0.00  0.00    +0.000 A 
ATOM      4  C   UNL     1      46.849   2.332   6.681  0.00  0.00    +0.000 A 
ATOM      5  C   UNL     1      46.271   3.605   6.776  0.00  0.00    +0.000 A 
ATOM      6  C   UNL     1      45.430   3.933   7.846  0.00  0.00    +0.000 A 
ENDROOT
BRANCH   1   7
ATOM      7  C   UNL     1      44.229   3.336   9.988  0.00  0.00    +0.000 C 
BRANCH   7  10
ATOM      8  O   UNL     1      45.243   5.822  10.695  0.00  0.00    +0.000 OA
ATOM      9  C   UNL     1      45.426   4.879  11.456  0.00  0.00    +0.000 C 
ATOM     10  N   UNL     1      44.973   3.603  11.200  0.00  0.00    +0.000 N 
ATOM     11  H   UNL     1      44.997   2.889  11.917  0.00  0.00    +0.000 HD
BRANCH   9  12
ATOM     12  C   UNL     1      46.150   5.100  12.727  0.00  0.00    +0.000 A 
ATOM     13  C   UNL     1      46.942   6.249  12.840  0.00  0.00    +0.000 A 
ATOM     14  N   UNL     1      47.702   6.594  13.917  0.00  0.00    +0.000 NA
ATOM     15  C   UNL     1      47.636   5.667  14.887  0.00  0.00    +0.000 A 
ATOM     16  N   UNL     1      48.304   5.686  16.076  0.00  0.00    +0.000 N 
ATOM     17  C   UNL     1      47.976   4.540  16.748  0.00  0.00    +0.000 A 
ATOM     18  N   UNL     1      47.126   3.798  16.070  0.00  0.00    +0.000 NA
ATOM     19  C   UNL     1      46.907   4.485  14.901  0.00  0.00    +0.000 A 
ATOM     20  C   UNL     1      46.120   4.181  13.784  0.00  0.00    +0.000 A 
ATOM     21  H   UNL     1      48.936   6.413  16.377  0.00  0.00    +0.000 HD
ENDBRANCH   9  12
ENDBRANCH   7  10
ENDBRANCH   1   7
BRANCH   4  22
ATOM     22  C   UNL     1      47.789   1.996   5.549  0.00  0.00    +0.000 C 
BRANCH  22  23
ATOM     23  N   UNL     1      47.636   0.631   5.106  0.00  0.00    +0.000 N 
ATOM     24  C   UNL     1      46.802   0.304   4.057  0.00  0.00    +0.000 C 
ATOM     25  O   UNL     1      46.246   1.140   3.356  0.00  0.00    +0.000 OA
ATOM     26  H   UNL     1      48.058  -0.101   5.662  0.00  0.00    +0.000 HD
BRANCH  24  27
ATOM     27  C   UNL     1      46.640  -1.149   3.761  0.00  0.00    +0.000 A 
ATOM     28  C   UNL     1      46.524  -1.514   2.407  0.00  0.00    +0.000 A 
ATOM     29  C   UNL     1      46.423  -2.859   2.035  0.00  0.00    +0.000 A 
ATOM     30  C   UNL     1      46.429  -3.852   3.009  0.00  0.00    +0.000 A 
ATOM     31  C   UNL     1      46.506  -3.501   4.357  0.00  0.00    +0.000 A 
ATOM     32  C   UNL     1      46.598  -2.155   4.737  0.00  0.00    +0.000 A 
ATOM     33 CL   UNL     1      46.599  -1.839   6.439  0.00  0.00    +0.000 Cl
ENDBRANCH  24  27
ENDBRANCH  22  23
ENDBRANCH   4  22
TORSDOF 6
ENDMDL
MODEL 7
REMARK VINA RESULT:    -7.537      2.299      3.248
REMARK INTER + INTRA:         -10.645
REMARK INTER:                  -9.977
REMARK INTRA:                  -0.668
REMARK UNBOUND:                -0.464
REMARK  Name = 
REMARK  6 active torsions:
REMARK  status: ('A' for Active; 'I' for Inactive)
REMARK    1  A    between atoms: C_2  and  C_22
REMARK    2  A    between atoms: N_3  and  C_4
REMARK    3  A    between atoms: C_4  and  C_5
REMARK    4  A    between atoms: C_8  and  C_9
REMARK    5  A    between atoms: C_9  and  N_10
REMARK    6  A    between atoms: C_11  and  C_13
REMARK                            x       y       z     vdW  Elec       q    Type
REMARK                         _______ _______ _______ _____ _____    ______ ____
ROOT
ATOM      1  C   UNL     1      47.888   7.545  14.262  0.00  0.00    +0.000 A 
ATOM      2  C   UNL     1      47.137   8.556  13.646  0.00  0.00    +0.000 A 
ATOM      3  C   UNL     1      46.261   8.257  12.596  0.00  0.00    +0.000 A 
ATOM      4  C   UNL     1      46.101   6.938  12.152  0.00  0.00    +0.000 A 
ATOM      5  C   UNL     1      46.867   5.931  12.756  0.00  0.00    +0.000 A 
ATOM      6  C   UNL     1      47.741   6.229  13.807  0.00  0.00    +0.000 A 
ENDROOT
BRANCH   1   7
ATOM      7  C   UNL     1      48.824   7.869  15.396  0.00  0.00    +0.000 C 
BRANCH   7  10
ATOM      8  O   UNL     1      48.854   6.854  17.981  0.00  0.00    +0.000 OA
ATOM      9  C   UNL     1      49.532   6.295  17.126  0.00  0.00    +0.000 C 
ATOM     10  N   UNL     1      49.595   6.718  15.816  0.00  0.00    +0.000 N 
ATOM     11  H   UNL     1      50.030   6.145  15.105  0.00  0.00    +0.000 HD
BRANCH   9  12
ATOM     12  C   UNL     1      50.314   5.093  17.489  0.00  0.00    +0.000 A 
ATOM     13  C   UNL     1      51.485   5.273  18.235  0.00  0.00    +0.000 A 
ATOM     14  N   UNL     1      52.343   4.289  18.626  0.00  0.00    +0.000 NA
ATOM     15  C   UNL     1      51.953   3.084  18.178  0.00  0.00    +0.000 A 
ATOM     16  N   UNL     1      52.604   1.899  18.359  0.00  0.00    +0.000 N 
ATOM     17  C   UNL     1      51.881   0.932  17.716  0.00  0.00    +0.000 A 
ATOM     18  N   UNL     1      50.797   1.422  17.150  0.00  0.00    +0.000 NA
ATOM     19  C   UNL     1      50.830   2.768  17.425  0.00  0.00    +0.000 A 
ATOM     20  C   UNL     1      49.961   3.805  17.065  0.00  0.00    +0.000 A 
ATOM     21  H   UNL     1      53.471   1.783  18.862  0.00  0.00    +0.000 HD
ENDBRANCH   9  12
ENDBRANCH   7  10
ENDBRANCH   1   7
BRANCH   4  22
ATOM     22  C   UNL     1      45.127   6.606  11.048  0.00  0.00    +0.000 C 
BRANCH  22  23
ATOM     23  N   UNL     1      45.676   5.658  10.109  0.00  0.00    +0.000 N 
ATOM     24  C   UNL     1      44.892   4.686   9.523  0.00  0.00    +0.000 C 
ATOM     25  O   UNL     1      43.675   4.639   9.652  0.00  0.00    +0.000 OA
ATOM     26  H   UNL     1      46.680   5.640   9.982  0.00  0.00    +0.000 HD
BRANCH  24  27
ATOM     27  C   UNL     1      45.593   3.696   8.656  0.00  0.00    +0.000 A 
ATOM     28  C   UNL     1      46.495   4.209   7.704  0.00  0.00    +0.000 A 
ATOM     29  C   UNL     1      47.235   3.349   6.886  0.00  0.00    +0.000 A 
ATOM     30  C   UNL     1      47.080   1.972   7.002  0.00  0.00    +0.000 A 
ATOM     31  C   UNL     1      46.162   1.452   7.916  0.00  0.00    +0.000 A 
ATOM     32  C   UNL     1      45.409   2.308   8.732  0.00  0.00    +0.000 A 
ATOM     33 CL   UNL     1      44.242   1.551   9.761  0.00  0.00    +0.000 Cl
ENDBRANCH  24  27
ENDBRANCH  22  23
ENDBRANCH   4  22
TORSDOF 6
ENDMDL
MODEL 8
REMARK VINA RESULT:    -7.443      3.283      4.838
REMARK INTER + INTRA:         -10.517
REMARK INTER:                  -9.752
REMARK INTRA:                  -0.765
REMARK UNBOUND:                -0.464
REMARK  Name = 
REMARK  6 active torsions:
REMARK  status: ('A' for Active; 'I' for Inactive)
REMARK    1  A    between atoms: C_2  and  C_22
REMARK    2  A    between atoms: N_3  and  C_4
REMARK    3  A    between atoms: C_4  and  C_5
REMARK    4  A    between atoms: C_8  and  C_9
REMARK    5  A    between atoms: C_9  and  N_10
REMARK    6  A    between atoms: C_11  and  C_13
REMARK                            x       y       z     vdW  Elec       q    Type
REMARK                         _______ _______ _______ _____ _____    ______ ____
ROOT
ATOM      1  C   UNL     1      48.827   7.361  15.768  0.00  0.00    +0.000 A 
ATOM      2  C   UNL     1      48.436   8.656  15.395  0.00  0.00    +0.000 A 
ATOM      3  C   UNL     1      47.703   8.871  14.222  0.00  0.00    +0.000 A 
ATOM      4  C   UNL     1      47.326   7.796  13.408  0.00  0.00    +0.000 A 
ATOM      5  C   UNL     1      47.733   6.505  13.771  0.00  0.00    +0.000 A 
ATOM      6  C   UNL     1      48.464   6.288  14.944  0.00  0.00    +0.000 A 
ENDROOT
BRANCH   1   7
ATOM      7  C   UNL     1      49.609   7.132  17.033  0.00  0.00    +0.000 C 
BRANCH   7  10
ATOM      8  O   UNL     1      49.097   4.937  18.655  0.00  0.00    +0.000 OA
ATOM      9  C   UNL     1      50.015   4.864  17.846  0.00  0.00    +0.000 C 
ATOM     10  N   UNL     1      50.359   5.894  16.998  0.00  0.00    +0.000 N 
ATOM     11  H   UNL     1      51.008   5.747  16.236  0.00  0.00    +0.000 HD
BRANCH   9  12
ATOM     12  C   UNL     1      50.793   3.610  17.740  0.00  0.00    +0.000 A 
ATOM     13  C   UNL     1      50.165   2.493  17.176  0.00  0.00    +0.000 A 
ATOM     14  N   UNL     1      50.714   1.254  17.033  0.00  0.00    +0.000 NA
ATOM     15  C   UNL     1      51.959   1.203  17.537  0.00  0.00    +0.000 A 
ATOM     16  N   UNL     1      52.770   0.107  17.589  0.00  0.00    +0.000 N 
ATOM     17  C   UNL     1      53.931   0.486  18.207  0.00  0.00    +0.000 A 
ATOM     18  N   UNL     1      53.919   1.761  18.538  0.00  0.00    +0.000 NA
ATOM     19  C   UNL     1      52.690   2.222  18.131  0.00  0.00    +0.000 A 
ATOM     20  C   UNL     1      52.098   3.487  18.236  0.00  0.00    +0.000 A 
ATOM     21  H   UNL     1      52.531  -0.811  17.246  0.00  0.00    +0.000 HD
ENDBRANCH   9  12
ENDBRANCH   7  10
ENDBRANCH   1   7
BRANCH   4  22
ATOM     22  C   UNL     1      46.499   8.020  12.164  0.00  0.00    +0.000 C 
BRANCH  22  23
ATOM     23  N   UNL     1      46.257   6.792  11.447  0.00  0.00    +0.000 N 
ATOM     24  C   UNL     1      44.977   6.344  11.194  0.00  0.00    +0.000 C 
ATOM     25  O   UNL     1      43.975   7.006  11.436  0.00  0.00    +0.000 OA
ATOM     26  H   UNL     1      47.049   6.196  11.241  0.00  0.00    +0.000 HD
BRANCH  24  27
ATOM     27  C   UNL     1      44.853   5.008  10.542  0.00  0.00    +0.000 A 
ATOM     28  C   UNL     1      45.383   4.881   9.245  0.00  0.00    +0.000 A 
ATOM     29  C   UNL     1      45.359   3.650   8.580  0.00  0.00    +0.000 A 
ATOM     30  C   UNL     1      44.799   2.537   9.199  0.00  0.00    +0.000 A 
ATOM     31  C   UNL     1      44.237   2.659  10.470  0.00  0.00    +0.000 A 
ATOM     32  C   UNL     1      44.249   3.892  11.138  0.00  0.00    +0.000 A 
ATOM     33 CL   UNL     1      43.445   3.940  12.669  0.00  0.00    +0.000 Cl
ENDBRANCH  24  27
ENDBRANCH  22  23
ENDBRANCH   4  22
TORSDOF 6
ENDMDL
MODEL 9
REMARK VINA RESULT:    -7.222      5.685      7.727
REMARK INTER + INTRA:         -10.218
REMARK INTER:                  -9.778
REMARK INTRA:                  -0.440
REMARK UNBOUND:                -0.464
REMARK  Name = 
REMARK  6 active torsions:
REMARK  status: ('A' for Active; 'I' for Inactive)
REMARK    1  A    between atoms: C_2  and  C_22
REMARK    2  A    between atoms: N_3  and  C_4
REMARK    3  A    between atoms: C_4  and  C_5
REMARK    4  A    between atoms: C_8  and  C_9
REMARK    5  A    between atoms: C_9  and  N_10
REMARK    6  A    between atoms: C_11  and  C_13
REMARK                            x       y       z     vdW  Elec       q    Type
REMARK                         _______ _______ _______ _____ _____    ______ ____
ROOT
ATOM      1  C   UNL     1      45.727   6.725  12.572  0.00  0.00    +0.000 A 
ATOM      2  C   UNL     1      44.628   6.804  11.703  0.00  0.00    +0.000 A 
ATOM      3  C   UNL     1      44.083   8.045  11.351  0.00  0.00    +0.000 A 
ATOM      4  C   UNL     1      44.637   9.234  11.841  0.00  0.00    +0.000 A 
ATOM      5  C   UNL     1      45.723   9.154  12.723  0.00  0.00    +0.000 A 
ATOM      6  C   UNL     1      46.270   7.914  13.075  0.00  0.00    +0.000 A 
ENDROOT
BRANCH   1   7
ATOM      7  C   UNL     1      46.315   5.391  12.943  0.00  0.00    +0.000 C 
BRANCH   7  10
ATOM      8  O   UNL     1      47.306   3.132  14.219  0.00  0.00    +0.000 OA
ATOM      9  C   UNL     1      47.276   4.188  14.841  0.00  0.00    +0.000 C 
ATOM     10  N   UNL     1      46.799   5.366  14.307  0.00  0.00    +0.000 N 
ATOM     11  H   UNL     1      46.938   6.247  14.784  0.00  0.00    +0.000 HD
BRANCH   9  12
ATOM     12  C   UNL     1      47.791   4.231  16.227  0.00  0.00    +0.000 A 
ATOM     13  C   UNL     1      47.696   3.066  16.997  0.00  0.00    +0.000 A 
ATOM     14  N   UNL     1      48.084   2.933  18.297  0.00  0.00    +0.000 NA
ATOM     15  C   UNL     1      48.555   4.089  18.794  0.00  0.00    +0.000 A 
ATOM     16  N   UNL     1      48.989   4.309  20.069  0.00  0.00    +0.000 N 
ATOM     17  C   UNL     1      49.351   5.626  20.156  0.00  0.00    +0.000 A 
ATOM     18  N   UNL     1      49.194   6.257  19.011  0.00  0.00    +0.000 NA
ATOM     19  C   UNL     1      48.691   5.311  18.150  0.00  0.00    +0.000 A 
ATOM     20  C   UNL     1      48.304   5.398  16.807  0.00  0.00    +0.000 A 
ATOM     21  H   UNL     1      49.011   3.618  20.803  0.00  0.00    +0.000 HD
ENDBRANCH   9  12
ENDBRANCH   7  10
ENDBRANCH   1   7
BRANCH   4  22
ATOM     22  C   UNL     1      44.077  10.575  11.429  0.00  0.00    +0.000 C 
BRANCH  22  23
ATOM     23  N   UNL     1      42.832  10.868  12.096  0.00  0.00    +0.000 N 
ATOM     24  C   UNL     1      41.640  10.924  11.404  0.00  0.00    +0.000 C 
ATOM     25  O   UNL     1      41.532  10.607  10.226  0.00  0.00    +0.000 OA
ATOM     26  H   UNL     1      42.866  11.157  13.065  0.00  0.00    +0.000 HD
BRANCH  24  27
ATOM     27  C   UNL     1      40.437  11.344  12.180  0.00  0.00    +0.000 A 
ATOM     28  C   UNL     1      40.665  12.040  13.381  0.00  0.00    +0.000 A 
ATOM     29  C   UNL     1      39.595  12.519  14.145  0.00  0.00    +0.000 A 
ATOM     30  C   UNL     1      38.288  12.302  13.722  0.00  0.00    +0.000 A 
ATOM     31  C   UNL     1      38.047  11.581  12.552  0.00  0.00    +0.000 A 
ATOM     32  C   UNL     1      39.115  11.090  11.788  0.00  0.00    +0.000 A 
ATOM     33 CL   UNL     1      38.691  10.137  10.407  0.00  0.00    +0.000 Cl
ENDBRANCH  24  27
ENDBRANCH  22  23
ENDBRANCH   4  22
TORSDOF 6
ENDMDL
