MODEL 1
REMARK VINA RESULT:    -8.399      0.000      0.000
REMARK INTER + INTRA:         -11.635
REMARK INTER:                 -10.854
REMARK INTRA:                  -0.781
REMARK UNBOUND:                -0.781
REMARK  Name = 
REMARK  5 active torsions:
REMARK  status: ('A' for Active; 'I' for Inactive)
REMARK    1  A    between atoms: C_2  and  C_19
REMARK    2  A    between atoms: N_3  and  C_4
REMARK    3  A    between atoms: C_4  and  C_5
REMARK    4  A    between atoms: C_8  and  C_9
REMARK    5  A    between atoms: C_9  and  N_10
REMARK                            x       y       z     vdW  Elec       q    Type
REMARK                         _______ _______ _______ _____ _____    ______ ____
ROOT
ATOM      1  C   UNL     1      46.942   7.290  13.074  0.00  0.00    +0.000 C 
ENDROOT
BRANCH   1   2
ATOM      2  C   UNL     1      46.223   6.252  12.252  0.00  0.00    +0.000 A 
ATOM      3  C   UNL     1      46.065   6.434  10.874  0.00  0.00    +0.000 A 
ATOM      4  C   UNL     1      45.427   5.463  10.097  0.00  0.00    +0.000 A 
ATOM      5  C   UNL     1      44.910   4.303  10.688  0.00  0.00    +0.000 A 
ATOM      6  C   UNL     1      45.046   4.131  12.073  0.00  0.00    +0.000 A 
ATOM      7  C   UNL     1      45.687   5.102  12.849  0.00  0.00    +0.000 A 
BRANCH   5   8
ATOM      8  C   UNL     1      44.211   3.258   9.845  0.00  0.00    +0.000 C 
BRANCH   8   9
ATOM      9  N   UNL     1      45.099   2.126   9.608  0.00  0.00    +0.000 N 
ATOM     10  C   UNL     1      45.782   2.204   8.381  0.00  0.00    +0.000 A 
ATOM     11  C   UNL     1      46.668   1.181   8.047  0.00  0.00    +0.000 A 
ATOM     12  C   UNL     1      47.361   1.236   6.837  0.00  0.00    +0.000 A 
ATOM     13  C   UNL     1      47.156   2.314   5.988  0.00  0.00    +0.000 A 
ATOM     14  C   UNL     1      46.274   3.297   6.397  0.00  0.00    +0.000 A 
ATOM     15  N   UNL     1      45.597   3.263   7.566  0.00  0.00    +0.000 NA
ATOM     16  H   UNL     1      44.604   1.242   9.659  0.00  0.00    +0.000 HD
ENDBRANCH   8   9
ENDBRANCH   5   8
ENDBRANCH   1   2
BRANCH   1  19
ATOM     17  O   UNL     1      49.578   6.959  14.054  0.00  0.00    +0.000 OA
ATOM     18  C   UNL     1      48.628   6.690  14.781  0.00  0.00    +0.000 C 
ATOM     19  N   UNL     1      47.325   6.770  14.359  0.00  0.00    +0.000 N 
ATOM     20  H   UNL     1      46.581   6.702  15.042  0.00  0.00    +0.000 HD
BRANCH  18  21
ATOM     21  C   UNL     1      48.821   6.198  16.151  0.00  0.00    +0.000 A 
ATOM     22  C   UNL     1      49.462   6.993  17.091  0.00  0.00    +0.000 A 
ATOM     23  S   UNL     1      49.609   6.257  18.624  0.00  0.00    +0.000 S 
ATOM     24  C   UNL     1      48.784   4.864  18.098  0.00  0.00    +0.000 A 
ATOM     25  N   UNL     1      48.537   3.832  18.948  0.00  0.00    +0.000 NA
ATOM     26  C   UNL     1      47.871   2.857  18.425  0.00  0.00    +0.000 A 
ATOM     27  N   UNL     1      47.439   2.816  17.126  0.00  0.00    +0.000 N 
ATOM     28  C   UNL     1      47.737   3.793  16.214  0.00  0.00    +0.000 A 
ATOM     29  O   UNL     1      47.470   3.647  15.024  0.00  0.00    +0.000 OA
ATOM     30  C   UNL     1      48.433   4.946  16.761  0.00  0.00    +0.000 A 
ATOM     31  H   UNL     1      46.957   2.005  16.765  0.00  0.00    +0.000 HD
ENDBRANCH  18  21
ENDBRANCH   1  19
TORSDOF 5
ENDMDL
MODEL 2
REMARK VINA RESULT:    -7.998      1.585      2.188
REMARK INTER + INTRA:         -11.117
REMARK INTER:                 -10.446
REMARK INTRA:                  -0.671
REMARK UNBOUND:                -0.781
REMARK  Name = 
REMARK  5 active torsions:
REMARK  status: ('A' for Active; 'I' for Inactive)
REMARK    1  A    between atoms: C_2  and  C_19
REMARK    2  A    between atoms: N_3  and  C_4
REMARK    3  A    between atoms: C_4  and  C_5
REMARK    4  A    between atoms: C_8  and  C_9
REMARK    5  A    between atoms: C_9  and  N_10
REMARK                            x       y       z     vdW  Elec       q    Type
REMARK                         _______ _______ _______ _____ _____    ______ ____
ROOT
ATOM      1  C   UNL     1      47.156   6.490  13.643  0.00  0.00    +0.000 C 
ENDROOT
BRANCH   1   2
ATOM      2  C   UNL     1      46.390   5.641  12.663  0.00  0.00    +0.000 A 
ATOM      3  C   UNL     1      46.046   6.155  11.407  0.00  0.00    +0.000 A 
ATOM      4  C   UNL     1      45.363   5.365  10.478  0.00  0.00    +0.000 A 
ATOM      5  C   UNL     1      44.987   4.054  10.797  0.00  0.00    +0.000 A 
ATOM      6  C   UNL     1      45.309   3.546  12.063  0.00  0.00    +0.000 A 
ATOM      7  C   UNL     1      45.994   4.337  12.991  0.00  0.00    +0.000 A 
BRANCH   5   8
ATOM      8  C   UNL     1      44.238   3.205   9.792  0.00  0.00    +0.000 C 
BRANCH   8   9
ATOM      9  N   UNL     1      45.004   2.005   9.478  0.00  0.00    +0.000 N 
ATOM     10  C   UNL     1      45.795   2.137   8.322  0.00  0.00    +0.000 A 
ATOM     11  C   UNL     1      46.580   1.055   7.926  0.00  0.00    +0.000 A 
ATOM     12  C   UNL     1      47.376   1.162   6.786  0.00  0.00    +0.000 A 
ATOM     13  C   UNL     1      47.374   2.348   6.067  0.00  0.00    +0.000 A 
ATOM     14  C   UNL     1      46.581   3.382   6.533  0.00  0.00    +0.000 A 
ATOM     15  N   UNL     1      45.807   3.298   7.636  0.00  0.00    +0.000 NA
ATOM     16  H   UNL     1      44.406   1.190   9.382  0.00  0.00    +0.000 HD
ENDBRANCH   8   9
ENDBRANCH   5   8
ENDBRANCH   1   2
BRANCH   1  19
ATOM     17  O   UNL     1      49.480   6.539  15.260  0.00  0.00    +0.000 OA
ATOM     18  C   UNL     1      48.492   5.921  15.644  0.00  0.00    +0.000 C 
ATOM     19  N   UNL     1      47.350   5.805  14.892  0.00  0.00    +0.000 N 
ATOM     20  H   UNL     1      46.512   5.435  15.322  0.00  0.00    +0.000 HD
BRANCH  18  21
ATOM     21  C   UNL     1      48.483   5.204  16.926  0.00  0.00    +0.000 A 
ATOM     22  C   UNL     1      48.487   3.815  16.945  0.00  0.00    +0.000 A 
ATOM     23  S   UNL     1      48.464   3.153  18.517  0.00  0.00    +0.000 S 
ATOM     24  C   UNL     1      48.488   4.698  19.231  0.00  0.00    +0.000 A 
ATOM     25  N   UNL     1      48.511   4.847  20.582  0.00  0.00    +0.000 NA
ATOM     26  C   UNL     1      48.565   6.073  20.983  0.00  0.00    +0.000 A 
ATOM     27  N   UNL     1      48.587   7.164  20.156  0.00  0.00    +0.000 N 
ATOM     28  C   UNL     1      48.481   7.066  18.795  0.00  0.00    +0.000 A 
ATOM     29  O   UNL     1      48.345   8.068  18.098  0.00  0.00    +0.000 OA
ATOM     30  C   UNL     1      48.479   5.706  18.281  0.00  0.00    +0.000 A 
ATOM     31  H   UNL     1      48.588   8.101  20.534  0.00  0.00    +0.000 HD
ENDBRANCH  18  21
ENDBRANCH   1  19
TORSDOF 5
ENDMDL
MODEL 3
REMARK VINA RESULT:    -7.681      2.473      4.458
REMARK INTER + INTRA:         -10.708
REMARK INTER:                  -9.758
REMARK INTRA:                  -0.950
REMARK UNBOUND:                -0.781
REMARK  Name = 
REMARK  5 active torsions:
REMARK  status: ('A' for Active; 'I' for Inactive)
REMARK    1  A    between atoms: C_2  and  C_19
REMARK    2  A    between atoms: N_3  and  C_4
REMARK    3  A    between atoms: C_4  and  C_5
REMARK    4  A    between atoms: C_8  and  C_9
REMARK    5  A    between atoms: C_9  and  N_10
REMARK                            x       y       z     vdW  Elec       q    Type
REMARK                         _______ _______ _______ _____ _____    ______ ____
ROOT
ATOM      1  C   UNL     1      47.064   5.129  14.403  0.00  0.00    +0.000 C 
ENDROOT
BRANCH   1   2
ATOM      2  C   UNL     1      46.324   4.807  13.131  0.00  0.00    +0.000 A 
ATOM      3  C   UNL     1      45.821   3.518  12.919  0.00  0.00    +0.000 A 
ATOM      4  C   UNL     1      45.106   3.217  11.757  0.00  0.00    +0.000 A 
ATOM      5  C   UNL     1      44.901   4.192  10.772  0.00  0.00    +0.000 A 
ATOM      6  C   UNL     1      45.426   5.477  10.972  0.00  0.00    +0.000 A 
ATOM      7  C   UNL     1      46.140   5.778  12.137  0.00  0.00    +0.000 A 
BRANCH   5   8
ATOM      8  C   UNL     1      44.135   3.859   9.510  0.00  0.00    +0.000 C 
BRANCH   8   9
ATOM      9  N   UNL     1      44.886   4.290   8.337  0.00  0.00    +0.000 N 
ATOM     10  C   UNL     1      45.733   3.291   7.822  0.00  0.00    +0.000 A 
ATOM     11  C   UNL     1      46.498   3.584   6.694  0.00  0.00    +0.000 A 
ATOM     12  C   UNL     1      47.343   2.610   6.163  0.00  0.00    +0.000 A 
ATOM     13  C   UNL     1      47.404   1.363   6.767  0.00  0.00    +0.000 A 
ATOM     14  C   UNL     1      46.603   1.144   7.873  0.00  0.00    +0.000 A 
ATOM     15  N   UNL     1      45.776   2.073   8.400  0.00  0.00    +0.000 NA
ATOM     16  H   UNL     1      45.430   5.126   8.524  0.00  0.00    +0.000 HD
ENDBRANCH   8   9
ENDBRANCH   5   8
ENDBRANCH   1   2
BRANCH   1  19
ATOM     17  O   UNL     1      49.464   6.185  15.472  0.00  0.00    +0.000 OA
ATOM     18  C   UNL     1      48.659   6.941  14.940  0.00  0.00    +0.000 C 
ATOM     19  N   UNL     1      47.450   6.514  14.450  0.00  0.00    +0.000 N 
ATOM     20  H   UNL     1      46.903   7.140  13.873  0.00  0.00    +0.000 HD
BRANCH  18  21
ATOM     21  C   UNL     1      48.906   8.386  14.842  0.00  0.00    +0.000 A 
ATOM     22  C   UNL     1      49.001   9.154  15.995  0.00  0.00    +0.000 A 
ATOM     23  S   UNL     1      49.279  10.810  15.692  0.00  0.00    +0.000 S 
ATOM     24  C   UNL     1      49.324  10.555  14.010  0.00  0.00    +0.000 A 
ATOM     25  N   UNL     1      49.561  11.580  13.150  0.00  0.00    +0.000 NA
ATOM     26  C   UNL     1      49.604  11.236  11.906  0.00  0.00    +0.000 A 
ATOM     27  N   UNL     1      49.420   9.960  11.444  0.00  0.00    +0.000 N 
ATOM     28  C   UNL     1      49.096   8.913  12.264  0.00  0.00    +0.000 A 
ATOM     29  O   UNL     1      48.785   7.820  11.799  0.00  0.00    +0.000 OA
ATOM     30  C   UNL     1      49.095   9.229  13.683  0.00  0.00    +0.000 A 
ATOM     31  H   UNL     1      49.425   9.762  10.453  0.00  0.00    +0.000 HD
ENDBRANCH  18  21
ENDBRANCH   1  19
TORSDOF 5
ENDMDL
MODEL 4
REMARK VINA RESULT:    -7.593      1.446      1.671
REMARK INTER + INTRA:         -10.593
REMARK INTER:                 -10.134
REMARK INTRA:                  -0.459
REMARK UNBOUND:                -0.781
REMARK  Name = 
REMARK  5 active torsions:
REMARK  status: ('A' for Active; 'I' for Inactive)
REMARK    1  A    between atoms: C_2  and  C_19
REMARK    2  A    between atoms: N_3  and  C_4
REMARK    3  A    between atoms: C_4  and  C_5
REMARK    4  A    between atoms: C_8  and  C_9
REMARK    5  A    between atoms: C_9  and  N_10
REMARK                            x       y       z     vdW  Elec       q    Type
REMARK                         _______ _______ _______ _____ _____    ______ ____
ROOT
ATOM      1  C   UNL     1      48.259   7.033  13.551  0.00  0.00    +0.000 C 
ENDROOT
BRANCH   1   2
ATOM      2  C   UNL     1      47.136   6.349  12.816  0.00  0.00    +0.000 A 
ATOM      3  C   UNL     1      46.520   6.980  11.730  0.00  0.00    +0.000 A 
ATOM      4  C   UNL     1      45.499   6.341  11.022  0.00  0.00    +0.000 A 
ATOM      5  C   UNL     1      45.055   5.068  11.403  0.00  0.00    +0.000 A 
ATOM      6  C   UNL     1      45.655   4.444  12.506  0.00  0.00    +0.000 A 
ATOM      7  C   UNL     1      46.679   5.084  13.213  0.00  0.00    +0.000 A 
BRANCH   5   8
ATOM      8  C   UNL     1      43.941   4.383  10.640  0.00  0.00    +0.000 C 
BRANCH   8   9
ATOM      9  N   UNL     1      44.323   3.014  10.315  0.00  0.00    +0.000 N 
ATOM     10  C   UNL     1      45.153   2.922   9.183  0.00  0.00    +0.000 A 
ATOM     11  C   UNL     1      45.590   1.662   8.778  0.00  0.00    +0.000 A 
ATOM     12  C   UNL     1      46.416   1.544   7.661  0.00  0.00    +0.000 A 
ATOM     13  C   UNL     1      46.791   2.689   6.972  0.00  0.00    +0.000 A 
ATOM     14  C   UNL     1      46.330   3.904   7.445  0.00  0.00    +0.000 A 
ATOM     15  N   UNL     1      45.532   4.038   8.527  0.00  0.00    +0.000 NA
ATOM     16  H   UNL     1      43.512   2.418  10.184  0.00  0.00    +0.000 HD
ENDBRANCH   8   9
ENDBRANCH   5   8
ENDBRANCH   1   2
BRANCH   1  19
ATOM     17  O   UNL     1      50.311   6.727  15.477  0.00  0.00    +0.000 OA
ATOM     18  C   UNL     1      49.148   6.836  15.850  0.00  0.00    +0.000 C 
ATOM     19  N   UNL     1      48.095   6.930  14.976  0.00  0.00    +0.000 N 
ATOM     20  H   UNL     1      47.182   7.188  15.330  0.00  0.00    +0.000 HD
BRANCH  18  21
ATOM     21  C   UNL     1      48.790   6.811  17.274  0.00  0.00    +0.000 A 
ATOM     22  C   UNL     1      48.313   7.959  17.891  0.00  0.00    +0.000 A 
ATOM     23  S   UNL     1      47.959   7.749  19.547  0.00  0.00    +0.000 S 
ATOM     24  C   UNL     1      48.392   6.104  19.491  0.00  0.00    +0.000 A 
ATOM     25  N   UNL     1      48.291   5.313  20.591  0.00  0.00    +0.000 NA
ATOM     26  C   UNL     1      48.617   4.079  20.395  0.00  0.00    +0.000 A 
ATOM     27  N   UNL     1      49.047   3.567  19.199  0.00  0.00    +0.000 N 
ATOM     28  C   UNL     1      49.244   4.342  18.088  0.00  0.00    +0.000 A 
ATOM     29  O   UNL     1      49.778   3.880  17.084  0.00  0.00    +0.000 OA
ATOM     30  C   UNL     1      48.834   5.729  18.233  0.00  0.00    +0.000 A 
ATOM     31  H   UNL     1      49.327   2.600  19.121  0.00  0.00    +0.000 HD
ENDBRANCH  18  21
ENDBRANCH   1  19
TORSDOF 5
ENDMDL
MODEL 5
REMARK VINA RESULT:    -7.506      3.030      5.018
REMARK INTER + INTRA:         -10.481
REMARK INTER:                  -9.998
REMARK INTRA:                  -0.482
REMARK UNBOUND:                -0.781
REMARK  Name = 
REMARK  5 active torsions:
REMARK  status: ('A' for Active; 'I' for Inactive)
REMARK    1  A    between atoms: C_2  and  C_19
REMARK    2  A    between atoms: N_3  and  C_4
REMARK    3  A    between atoms: C_4  and  C_5
REMARK    4  A    between atoms: C_8  and  C_9
REMARK    5  A    between atoms: C_9  and  N_10
REMARK                            x       y       z     vdW  Elec       q    Type
REMARK                         _______ _______ _______ _____ _____    ______ ____
ROOT
ATOM      1  C   UNL     1      47.278   5.860  14.144  0.00  0.00    +0.000 C 
ENDROOT
BRANCH   1   2
ATOM      2  C   UNL     1      46.450   5.157  13.101  0.00  0.00    +0.000 A 
ATOM      3  C   UNL     1      45.957   5.868  12.000  0.00  0.00    +0.000 A 
ATOM      4  C   UNL     1      45.214   5.220  11.010  0.00  0.00    +0.000 A 
ATOM      5  C   UNL     1      44.926   3.852  11.114  0.00  0.00    +0.000 A 
ATOM      6  C   UNL     1      45.398   3.145  12.228  0.00  0.00    +0.000 A 
ATOM      7  C   UNL     1      46.144   3.794  13.218  0.00  0.00    +0.000 A 
BRANCH   5   8
ATOM      8  C   UNL     1      44.113   3.156  10.045  0.00  0.00    +0.000 C 
BRANCH   8   9
ATOM      9  N   UNL     1      44.800   1.950   9.596  0.00  0.00    +0.000 N 
ATOM     10  C   UNL     1      45.642   2.170   8.491  0.00  0.00    +0.000 A 
ATOM     11  C   UNL     1      46.360   1.091   7.976  0.00  0.00    +0.000 A 
ATOM     12  C   UNL     1      47.204   1.283   6.883  0.00  0.00    +0.000 A 
ATOM     13  C   UNL     1      47.317   2.549   6.328  0.00  0.00    +0.000 A 
ATOM     14  C   UNL     1      46.585   3.572   6.905  0.00  0.00    +0.000 A 
ATOM     15  N   UNL     1      45.765   3.406   7.966  0.00  0.00    +0.000 NA
ATOM     16  H   UNL     1      44.148   1.204   9.376  0.00  0.00    +0.000 HD
ENDBRANCH   8   9
ENDBRANCH   5   8
ENDBRANCH   1   2
BRANCH   1  19
ATOM     17  O   UNL     1      49.313   6.999  12.538  0.00  0.00    +0.000 OA
ATOM     18  C   UNL     1      48.434   7.721  12.998  0.00  0.00    +0.000 C 
ATOM     19  N   UNL     1      47.448   7.253  13.829  0.00  0.00    +0.000 N 
ATOM     20  H   UNL     1      46.657   7.849  14.040  0.00  0.00    +0.000 HD
BRANCH  18  21
ATOM     21  C   UNL     1      48.409   9.166  12.736  0.00  0.00    +0.000 A 
ATOM     22  C   UNL     1      49.594   9.890  12.723  0.00  0.00    +0.000 A 
ATOM     23  S   UNL     1      49.374  11.555  12.415  0.00  0.00    +0.000 S 
ATOM     24  C   UNL     1      47.692  11.361  12.247  0.00  0.00    +0.000 A 
ATOM     25  N   UNL     1      46.891  12.416  11.942  0.00  0.00    +0.000 NA
ATOM     26  C   UNL     1      45.642  12.117  11.809  0.00  0.00    +0.000 A 
ATOM     27  N   UNL     1      45.119  10.861  11.964  0.00  0.00    +0.000 N 
ATOM     28  C   UNL     1      45.874   9.787  12.353  0.00  0.00    +0.000 A 
ATOM     29  O   UNL     1      45.346   8.714  12.635  0.00  0.00    +0.000 OA
ATOM     30  C   UNL     1      47.299  10.050  12.458  0.00  0.00    +0.000 A 
ATOM     31  H   UNL     1      44.125  10.700  11.887  0.00  0.00    +0.000 HD
ENDBRANCH  18  21
ENDBRANCH   1  19
TORSDOF 5
ENDMDL
MODEL 6
REMARK VINA RESULT:    -7.154      4.010      5.894
REMARK INTER + INTRA:         -10.027
REMARK INTER:                  -9.345
REMARK INTRA:                  -0.682
REMARK UNBOUND:                -0.781
REMARK  Name = 
REMARK  5 active torsions:
REMARK  status: ('A' for Active; 'I' for Inactive)
REMARK    1  A    between atoms: C_2  and  C_19
REMARK    2  A    between atoms: N_3  and  C_4
REMARK    3  A    between atoms: C_4  and  C_5
REMARK    4  A    between atoms: C_8  and  C_9
REMARK    5  A    between atoms: C_9  and  N_10
REMARK                            x       y       z     vdW  Elec       q    Type
REMARK                         _______ _______ _______ _____ _____    ______ ____
ROOT
ATOM      1  C   UNL     1      46.277   4.158  14.296  0.00  0.00    +0.000 C 
ENDROOT
BRANCH   1   2
ATOM      2  C   UNL     1      45.866   5.349  13.471  0.00  0.00    +0.000 A 
ATOM      3  C   UNL     1      44.611   5.374  12.850  0.00  0.00    +0.000 A 
ATOM      4  C   UNL     1      44.208   6.488  12.109  0.00  0.00    +0.000 A 
ATOM      5  C   UNL     1      45.061   7.588  11.950  0.00  0.00    +0.000 A 
ATOM      6  C   UNL     1      46.327   7.554  12.551  0.00  0.00    +0.000 A 
ATOM      7  C   UNL     1      46.729   6.439  13.296  0.00  0.00    +0.000 A 
BRANCH   5   8
ATOM      8  C   UNL     1      44.623   8.787  11.138  0.00  0.00    +0.000 C 
BRANCH   8   9
ATOM      9  N   UNL     1      43.175   8.778  10.966  0.00  0.00    +0.000 N 
ATOM     10  C   UNL     1      42.629  10.061  10.779  0.00  0.00    +0.000 A 
ATOM     11  C   UNL     1      41.252  10.177  10.596  0.00  0.00    +0.000 A 
ATOM     12  C   UNL     1      40.687  11.438  10.404  0.00  0.00    +0.000 A 
ATOM     13  C   UNL     1      41.509  12.555  10.397  0.00  0.00    +0.000 A 
ATOM     14  C   UNL     1      42.867  12.356  10.569  0.00  0.00    +0.000 A 
ATOM     15  N   UNL     1      43.433  11.143  10.752  0.00  0.00    +0.000 NA
ATOM     16  H   UNL     1      42.707   8.326  11.745  0.00  0.00    +0.000 HD
ENDBRANCH   8   9
ENDBRANCH   5   8
ENDBRANCH   1   2
BRANCH   1  19
ATOM     17  O   UNL     1      46.552   3.277  16.973  0.00  0.00    +0.000 OA
ATOM     18  C   UNL     1      47.427   3.980  16.477  0.00  0.00    +0.000 C 
ATOM     19  N   UNL     1      47.338   4.492  15.208  0.00  0.00    +0.000 N 
ATOM     20  H   UNL     1      48.155   4.918  14.790  0.00  0.00    +0.000 HD
BRANCH  18  21
ATOM     21  C   UNL     1      48.618   4.378  17.239  0.00  0.00    +0.000 A 
ATOM     22  C   UNL     1      48.655   5.610  17.877  0.00  0.00    +0.000 A 
ATOM     23  S   UNL     1      50.118   5.909  18.703  0.00  0.00    +0.000 S 
ATOM     24  C   UNL     1      50.741   4.385  18.271  0.00  0.00    +0.000 A 
ATOM     25  N   UNL     1      51.969   3.984  18.692  0.00  0.00    +0.000 NA
ATOM     26  C   UNL     1      52.298   2.791  18.321  0.00  0.00    +0.000 A 
ATOM     27  N   UNL     1      51.514   1.968  17.559  0.00  0.00    +0.000 N 
ATOM     28  C   UNL     1      50.307   2.361  17.044  0.00  0.00    +0.000 A 
ATOM     29  O   UNL     1      49.706   1.656  16.237  0.00  0.00    +0.000 OA
ATOM     30  C   UNL     1      49.857   3.672  17.479  0.00  0.00    +0.000 A 
ATOM     31  H   UNL     1      51.845   1.060  17.267  0.00  0.00    +0.000 HD
ENDBRANCH  18  21
ENDBRANCH   1  19
TORSDOF 5
ENDMDL
MODEL 7
REMARK VINA RESULT:    -7.016      3.647      5.452
REMARK INTER + INTRA:          -9.848
REMARK INTER:                  -9.124
REMARK INTRA:                  -0.724
REMARK UNBOUND:                -0.781
REMARK  Name = 
REMARK  5 active torsions:
REMARK  status: ('A' for Active; 'I' for Inactive)
REMARK    1  A    between atoms: C_2  and  C_19
REMARK    2  A    between atoms: N_3  and  C_4
REMARK    3  A    between atoms: C_4  and  C_5
REMARK    4  A    between atoms: C_8  and  C_9
REMARK    5  A    between atoms: C_9  and  N_10
REMARK                            x       y       z     vdW  Elec       q    Type
REMARK                         _______ _______ _______ _____ _____    ______ ____
ROOT
ATOM      1  C   UNL     1      47.332   6.581  13.690  0.00  0.00    +0.000 C 
ENDROOT
BRANCH   1   2
ATOM      2  C   UNL     1      46.517   5.753  12.731  0.00  0.00    +0.000 A 
ATOM      3  C   UNL     1      46.193   6.259  11.467  0.00  0.00    +0.000 A 
ATOM      4  C   UNL     1      45.466   5.487  10.558  0.00  0.00    +0.000 A 
ATOM      5  C   UNL     1      45.023   4.204  10.904  0.00  0.00    +0.000 A 
ATOM      6  C   UNL     1      45.325   3.706  12.179  0.00  0.00    +0.000 A 
ATOM      7  C   UNL     1      46.056   4.478  13.088  0.00  0.00    +0.000 A 
BRANCH   5   8
ATOM      8  C   UNL     1      44.225   3.375   9.920  0.00  0.00    +0.000 C 
BRANCH   8   9
ATOM      9  N   UNL     1      44.941   2.144   9.604  0.00  0.00    +0.000 N 
ATOM     10  C   UNL     1      45.702   2.231   8.424  0.00  0.00    +0.000 A 
ATOM     11  C   UNL     1      46.438   1.117   8.024  0.00  0.00    +0.000 A 
ATOM     12  C   UNL     1      47.203   1.179   6.860  0.00  0.00    +0.000 A 
ATOM     13  C   UNL     1      47.221   2.353   6.122  0.00  0.00    +0.000 A 
ATOM     14  C   UNL     1      46.478   3.420   6.593  0.00  0.00    +0.000 A 
ATOM     15  N   UNL     1      45.734   3.381   7.720  0.00  0.00    +0.000 NA
ATOM     16  H   UNL     1      44.313   1.350   9.538  0.00  0.00    +0.000 HD
ENDBRANCH   8   9
ENDBRANCH   5   8
ENDBRANCH   1   2
BRANCH   1  19
ATOM     17  O   UNL     1      50.005   7.509  13.775  0.00  0.00    +0.000 OA
ATOM     18  C   UNL     1      49.180   8.114  13.099  0.00  0.00    +0.000 C 
ATOM     19  N   UNL     1      47.855   7.760  13.053  0.00  0.00    +0.000 N 
ATOM     20  H   UNL     1      47.256   8.181  12.354  0.00  0.00    +0.000 HD
BRANCH  18  21
ATOM     21  C   UNL     1      49.543   9.312  12.331  0.00  0.00    +0.000 A 
ATOM     22  C   UNL     1      48.878  10.510  12.556  0.00  0.00    +0.000 A 
ATOM     23  S   UNL     1      49.422  11.790  11.567  0.00  0.00    +0.000 S 
ATOM     24  C   UNL     1      50.594  10.800  10.829  0.00  0.00    +0.000 A 
ATOM     25  N   UNL     1      51.440  11.295   9.889  0.00  0.00    +0.000 NA
ATOM     26  C   UNL     1      52.301  10.443   9.443  0.00  0.00    +0.000 A 
ATOM     27  N   UNL     1      52.384   9.136   9.843  0.00  0.00    +0.000 N 
ATOM     28  C   UNL     1      51.500   8.572  10.724  0.00  0.00    +0.000 A 
ATOM     29  O   UNL     1      51.508   7.363  10.939  0.00  0.00    +0.000 OA
ATOM     30  C   UNL     1      50.547   9.501  11.308  0.00  0.00    +0.000 A 
ATOM     31  H   UNL     1      53.055   8.507   9.425  0.00  0.00    +0.000 HD
ENDBRANCH  18  21
ENDBRANCH   1  19
TORSDOF 5
ENDMDL
MODEL 8
REMARK VINA RESULT:    -6.836      1.705      2.621
REMARK INTER + INTRA:          -9.615
REMARK INTER:                  -8.520
REMARK INTRA:                  -1.095
REMARK UNBOUND:                -0.781
REMARK  Name = 
REMARK  5 active torsions:
REMARK  status: ('A' for Active; 'I' for Inactive)
REMARK    1  A    between atoms: C_2  and  C_19
REMARK    2  A    between atoms: N_3  and  C_4
REMARK    3  A    between atoms: C_4  and  C_5
REMARK    4  A    between atoms: C_8  and  C_9
REMARK    5  A    between atoms: C_9  and  N_10
REMARK                            x       y       z     vdW  Elec       q    Type
REMARK                         _______ _______ _______ _____ _____    ______ ____
ROOT
ATOM      1  C   UNL     1      49.276   8.599  14.156  0.00  0.00    +0.000 C 
ENDROOT
BRANCH   1   2
ATOM      2  C   UNL     1      48.115   8.117  13.326  0.00  0.00    +0.000 A 
ATOM      3  C   UNL     1      48.249   6.975  12.528  0.00  0.00    +0.000 A 
ATOM      4  C   UNL     1      47.169   6.501  11.779  0.00  0.00    +0.000 A 
ATOM      5  C   UNL     1      45.941   7.174  11.792  0.00  0.00    +0.000 A 
ATOM      6  C   UNL     1      45.813   8.332  12.572  0.00  0.00    +0.000 A 
ATOM      7  C   UNL     1      46.894   8.805  13.324  0.00  0.00    +0.000 A 
BRANCH   5   8
ATOM      8  C   UNL     1      44.777   6.663  10.971  0.00  0.00    +0.000 C 
BRANCH   8   9
ATOM      9  N   UNL     1      44.569   5.243  11.223  0.00  0.00    +0.000 N 
ATOM     10  C   UNL     1      44.949   4.425  10.144  0.00  0.00    +0.000 A 
ATOM     11  C   UNL     1      44.804   3.044  10.272  0.00  0.00    +0.000 A 
ATOM     12  C   UNL     1      45.177   2.211   9.217  0.00  0.00    +0.000 A 
ATOM     13  C   UNL     1      45.690   2.774   8.058  0.00  0.00    +0.000 A 
ATOM     14  C   UNL     1      45.819   4.151   8.014  0.00  0.00    +0.000 A 
ATOM     15  N   UNL     1      45.466   4.973   9.026  0.00  0.00    +0.000 NA
ATOM     16  H   UNL     1      43.606   5.041  11.472  0.00  0.00    +0.000 HD
ENDBRANCH   8   9
ENDBRANCH   5   8
ENDBRANCH   1   2
BRANCH   1  19
ATOM     17  O   UNL     1      48.078   9.174  16.656  0.00  0.00    +0.000 OA
ATOM     18  C   UNL     1      48.749   8.156  16.531  0.00  0.00    +0.000 C 
ATOM     19  N   UNL     1      49.406   7.837  15.370  0.00  0.00    +0.000 N 
ATOM     20  H   UNL     1      49.801   6.911  15.265  0.00  0.00    +0.000 HD
BRANCH  18  21
ATOM     21  C   UNL     1      48.948   7.223  17.648  0.00  0.00    +0.000 A 
ATOM     22  C   UNL     1      49.410   7.692  18.871  0.00  0.00    +0.000 A 
ATOM     23  S   UNL     1      49.593   6.469  20.047  0.00  0.00    +0.000 S 
ATOM     24  C   UNL     1      49.023   5.274  18.977  0.00  0.00    +0.000 A 
ATOM     25  N   UNL     1      48.897   3.980  19.372  0.00  0.00    +0.000 NA
ATOM     26  C   UNL     1      48.419   3.189  18.471  0.00  0.00    +0.000 A 
ATOM     27  N   UNL     1      48.064   3.574  17.205  0.00  0.00    +0.000 N 
ATOM     28  C   UNL     1      48.251   4.847  16.737  0.00  0.00    +0.000 A 
ATOM     29  O   UNL     1      48.069   5.117  15.553  0.00  0.00    +0.000 OA
ATOM     30  C   UNL     1      48.730   5.796  17.729  0.00  0.00    +0.000 A 
ATOM     31  H   UNL     1      47.733   2.898  16.531  0.00  0.00    +0.000 HD
ENDBRANCH  18  21
ENDBRANCH   1  19
TORSDOF 5
ENDMDL
