MODEL 1
REMARK VINA RESULT:    -8.439      0.000      0.000
REMARK INTER + INTRA:         -13.769
REMARK INTER:                 -12.632
REMARK INTRA:                  -1.137
REMARK UNBOUND:                -1.137
REMARK  Name = 
REMARK  9 active torsions:
REMARK  status: ('A' for Active; 'I' for Inactive)
REMARK    1  A    between atoms: C_2  and  C_22
REMARK    2  A    between atoms: N_3  and  C_4
REMARK    3  A    between atoms: C_4  and  C_5
REMARK    4  A    between atoms: C_8  and  C_9
REMARK    5  A    between atoms: C_9  and  N_10
REMARK    6  A    between atoms: N_10  and  C_11
REMARK    7  A    between atoms: C_11  and  C_12
REMARK    8  A    between atoms: C_15  and  C_16
REMARK    9  A    between atoms: C_16  and  O_17
REMARK                            x       y       z     vdW  Elec       q    Type
REMARK                         _______ _______ _______ _____ _____    ______ ____
ROOT
ATOM      1  C   UNL     1      47.068   6.196  13.173  0.00  0.00    +0.000 A 
ATOM      2  C   UNL     1      46.105   5.326  13.702  0.00  0.00    +0.000 A 
ATOM      3  C   UNL     1      44.913   5.084  13.016  0.00  0.00    +0.000 A 
ATOM      4  C   UNL     1      44.657   5.698  11.781  0.00  0.00    +0.000 A 
ATOM      5  C   UNL     1      45.641   6.531  11.231  0.00  0.00    +0.000 A 
ATOM      6  C   UNL     1      46.836   6.773  11.917  0.00  0.00    +0.000 A 
ENDROOT
BRANCH   1   7
ATOM      7  C   UNL     1      48.332   6.493  13.936  0.00  0.00    +0.000 C 
BRANCH   7  10
ATOM      8  O   UNL     1      50.256   6.199  15.901  0.00  0.00    +0.000 OA
ATOM      9  C   UNL     1      49.123   6.522  16.246  0.00  0.00    +0.000 C 
ATOM     10  N   UNL     1      48.087   6.612  15.350  0.00  0.00    +0.000 N 
ATOM     11  H   UNL     1      47.228   7.077  15.627  0.00  0.00    +0.000 HD
BRANCH   9  12
ATOM     12  C   UNL     1      48.803   6.796  17.652  0.00  0.00    +0.000 A 
ATOM     13  C   UNL     1      48.475   8.086  18.047  0.00  0.00    +0.000 A 
ATOM     14  S   UNL     1      48.133   8.225  19.712  0.00  0.00    +0.000 S 
ATOM     15  C   UNL     1      48.365   6.556  19.954  0.00  0.00    +0.000 A 
ATOM     16  N   UNL     1      48.180   5.996  21.182  0.00  0.00    +0.000 NA
ATOM     17  C   UNL     1      48.352   4.717  21.212  0.00  0.00    +0.000 A 
ATOM     18  N   UNL     1      48.701   3.948  20.132  0.00  0.00    +0.000 N 
ATOM     19  C   UNL     1      48.935   4.475  18.883  0.00  0.00    +0.000 A 
ATOM     20  O   UNL     1      49.310   3.767  17.956  0.00  0.00    +0.000 OA
ATOM     21  C   UNL     1      48.728   5.907  18.788  0.00  0.00    +0.000 A 
ATOM     22  H   UNL     1      48.837   2.953  20.224  0.00  0.00    +0.000 HD
ENDBRANCH   9  12
ENDBRANCH   7  10
ENDBRANCH   1   7
BRANCH   4  23
ATOM     23  C   UNL     1      43.346   5.462  11.062  0.00  0.00    +0.000 C 
BRANCH  23  24
ATOM     24  N   UNL     1      43.571   4.809   9.774  0.00  0.00    +0.000 NA
ATOM     25  H   UNL     1      44.319   5.294   9.280  0.00  0.00    +0.000 HD
BRANCH  24  26
ATOM     26  C   UNL     1      43.937   3.403   9.932  0.00  0.00    +0.000 C 
BRANCH  26  27
ATOM     27  C   UNL     1      45.031   3.014   8.961  0.00  0.00    +0.000 A 
ATOM     28  C   UNL     1      45.440   1.681   8.827  0.00  0.00    +0.000 A 
ATOM     29  C   UNL     1      46.444   1.331   7.917  0.00  0.00    +0.000 A 
ATOM     30  C   UNL     1      47.059   2.307   7.121  0.00  0.00    +0.000 A 
ATOM     31  C   UNL     1      46.650   3.640   7.254  0.00  0.00    +0.000 A 
ATOM     32  C   UNL     1      45.646   3.989   8.161  0.00  0.00    +0.000 A 
BRANCH  30  33
ATOM     33  C   UNL     1      48.156   1.944   6.156  0.00  0.00    +0.000 C 
BRANCH  33  34
ATOM     34  O   UNL     1      48.203   2.866   5.075  0.00  0.00    +0.000 OA
ATOM     35  H   UNL     1      48.977   2.628   4.536  0.00  0.00    +0.000 HD
ENDBRANCH  33  34
ENDBRANCH  30  33
ENDBRANCH  26  27
ENDBRANCH  24  26
ENDBRANCH  23  24
ENDBRANCH   4  23
TORSDOF 9
ENDMDL
MODEL 2
REMARK VINA RESULT:    -8.177      1.784      2.287
REMARK INTER + INTRA:         -13.376
REMARK INTER:                 -12.110
REMARK INTRA:                  -1.267
REMARK UNBOUND:                -1.137
REMARK  Name = 
REMARK  9 active torsions:
REMARK  status: ('A' for Active; 'I' for Inactive)
REMARK    1  A    between atoms: C_2  and  C_22
REMARK    2  A    between atoms: N_3  and  C_4
REMARK    3  A    between atoms: C_4  and  C_5
REMARK    4  A    between atoms: C_8  and  C_9
REMARK    5  A    between atoms: C_9  and  N_10
REMARK    6  A    between atoms: N_10  and  C_11
REMARK    7  A    between atoms: C_11  and  C_12
REMARK    8  A    between atoms: C_15  and  C_16
REMARK    9  A    between atoms: C_16  and  O_17
REMARK                            x       y       z     vdW  Elec       q    Type
REMARK                         _______ _______ _______ _____ _____    ______ ____
ROOT
ATOM      1  C   UNL     1      47.156   7.231  12.424  0.00  0.00    +0.000 A 
ATOM      2  C   UNL     1      47.114   6.604  11.171  0.00  0.00    +0.000 A 
ATOM      3  C   UNL     1      45.908   6.121  10.659  0.00  0.00    +0.000 A 
ATOM      4  C   UNL     1      44.713   6.259  11.381  0.00  0.00    +0.000 A 
ATOM      5  C   UNL     1      44.750   6.927  12.613  0.00  0.00    +0.000 A 
ATOM      6  C   UNL     1      45.958   7.413  13.126  0.00  0.00    +0.000 A 
ENDROOT
BRANCH   1   7
ATOM      7  C   UNL     1      48.465   7.708  12.996  0.00  0.00    +0.000 C 
BRANCH   7  10
ATOM      8  O   UNL     1      48.409   8.564  15.626  0.00  0.00    +0.000 OA
ATOM      9  C   UNL     1      48.742   7.402  15.403  0.00  0.00    +0.000 C 
ATOM     10  N   UNL     1      48.875   6.916  14.126  0.00  0.00    +0.000 N 
ATOM     11  H   UNL     1      48.944   5.914  13.981  0.00  0.00    +0.000 HD
BRANCH   9  12
ATOM     12  C   UNL     1      49.051   6.476  16.498  0.00  0.00    +0.000 A 
ATOM     13  C   UNL     1      49.979   6.836  17.466  0.00  0.00    +0.000 A 
ATOM     14  S   UNL     1      50.217   5.643  18.662  0.00  0.00    +0.000 S 
ATOM     15  C   UNL     1      49.052   4.624  17.954  0.00  0.00    +0.000 A 
ATOM     16  N   UNL     1      48.733   3.427  18.521  0.00  0.00    +0.000 NA
ATOM     17  C   UNL     1      47.807   2.776  17.900  0.00  0.00    +0.000 A 
ATOM     18  N   UNL     1      47.179   3.205  16.760  0.00  0.00    +0.000 N 
ATOM     19  C   UNL     1      47.496   4.387  16.131  0.00  0.00    +0.000 A 
ATOM     20  O   UNL     1      46.960   4.707  15.077  0.00  0.00    +0.000 OA
ATOM     21  C   UNL     1      48.512   5.172  16.805  0.00  0.00    +0.000 A 
ATOM     22  H   UNL     1      46.474   2.641  16.311  0.00  0.00    +0.000 HD
ENDBRANCH   9  12
ENDBRANCH   7  10
ENDBRANCH   1   7
BRANCH   4  23
ATOM     23  C   UNL     1      43.417   5.698  10.838  0.00  0.00    +0.000 C 
BRANCH  23  24
ATOM     24  N   UNL     1      43.657   4.914   9.629  0.00  0.00    +0.000 NA
ATOM     25  H   UNL     1      44.409   5.348   9.094  0.00  0.00    +0.000 HD
BRANCH  24  26
ATOM     26  C   UNL     1      44.026   3.534   9.937  0.00  0.00    +0.000 C 
BRANCH  26  27
ATOM     27  C   UNL     1      45.000   2.991   8.914  0.00  0.00    +0.000 A 
ATOM     28  C   UNL     1      45.566   3.823   7.940  0.00  0.00    +0.000 A 
ATOM     29  C   UNL     1      46.475   3.313   7.006  0.00  0.00    +0.000 A 
ATOM     30  C   UNL     1      46.837   1.959   7.028  0.00  0.00    +0.000 A 
ATOM     31  C   UNL     1      46.271   1.127   8.001  0.00  0.00    +0.000 A 
ATOM     32  C   UNL     1      45.366   1.637   8.935  0.00  0.00    +0.000 A 
BRANCH  30  33
ATOM     33  C   UNL     1      47.796   1.396   6.013  0.00  0.00    +0.000 C 
BRANCH  33  34
ATOM     34  O   UNL     1      48.441   2.440   5.295  0.00  0.00    +0.000 OA
ATOM     35  H   UNL     1      48.294   3.259   5.797  0.00  0.00    +0.000 HD
ENDBRANCH  33  34
ENDBRANCH  30  33
ENDBRANCH  26  27
ENDBRANCH  24  26
ENDBRANCH  23  24
ENDBRANCH   4  23
TORSDOF 9
ENDMDL
MODEL 3
REMARK VINA RESULT:    -8.057      1.271      2.070
REMARK INTER + INTRA:         -13.197
REMARK INTER:                 -12.251
REMARK INTRA:                  -0.945
REMARK UNBOUND:                -1.137
REMARK  Name = 
REMARK  9 active torsions:
REMARK  status: ('A' for Active; 'I' for Inactive)
REMARK    1  A    between atoms: C_2  and  C_22
REMARK    2  A    between atoms: N_3  and  C_4
REMARK    3  A    between atoms: C_4  and  C_5
REMARK    4  A    between atoms: C_8  and  C_9
REMARK    5  A    between atoms: C_9  and  N_10
REMARK    6  A    between atoms: N_10  and  C_11
REMARK    7  A    between atoms: C_11  and  C_12
REMARK    8  A    between atoms: C_15  and  C_16
REMARK    9  A    between atoms: C_16  and  O_17
REMARK                            x       y       z     vdW  Elec       q    Type
REMARK                         _______ _______ _______ _____ _____    ______ ____
ROOT
ATOM      1  C   UNL     1      46.870   6.263  13.389  0.00  0.00    +0.000 A 
ATOM      2  C   UNL     1      46.434   7.200  12.442  0.00  0.00    +0.000 A 
ATOM      3  C   UNL     1      45.277   6.967  11.693  0.00  0.00    +0.000 A 
ATOM      4  C   UNL     1      44.525   5.799  11.878  0.00  0.00    +0.000 A 
ATOM      5  C   UNL     1      44.937   4.885  12.857  0.00  0.00    +0.000 A 
ATOM      6  C   UNL     1      46.094   5.118  13.609  0.00  0.00    +0.000 A 
ENDROOT
BRANCH   1   7
ATOM      7  C   UNL     1      48.142   6.493  14.160  0.00  0.00    +0.000 C 
BRANCH   7  10
ATOM      8  O   UNL     1      50.225   6.159  15.950  0.00  0.00    +0.000 OA
ATOM      9  C   UNL     1      49.077   6.109  16.384  0.00  0.00    +0.000 C 
ATOM     10  N   UNL     1      47.983   6.183  15.558  0.00  0.00    +0.000 N 
ATOM     11  H   UNL     1      47.066   6.347  15.960  0.00  0.00    +0.000 HD
BRANCH   9  12
ATOM     12  C   UNL     1      48.811   5.929  17.815  0.00  0.00    +0.000 A 
ATOM     13  C   UNL     1      49.125   4.724  18.430  0.00  0.00    +0.000 A 
ATOM     14  S   UNL     1      48.751   4.688  20.094  0.00  0.00    +0.000 S 
ATOM     15  C   UNL     1      48.201   6.298  20.061  0.00  0.00    +0.000 A 
ATOM     16  N   UNL     1      47.769   6.913  21.197  0.00  0.00    +0.000 NA
ATOM     17  C   UNL     1      47.418   8.145  21.033  0.00  0.00    +0.000 A 
ATOM     18  N   UNL     1      47.449   8.815  19.837  0.00  0.00    +0.000 N 
ATOM     19  C   UNL     1      47.841   8.224  18.658  0.00  0.00    +0.000 A 
ATOM     20  O   UNL     1      47.793   8.834  17.597  0.00  0.00    +0.000 OA
ATOM     21  C   UNL     1      48.273   6.846  18.793  0.00  0.00    +0.000 A 
ATOM     22  H   UNL     1      47.145   9.774  19.771  0.00  0.00    +0.000 HD
ENDBRANCH   9  12
ENDBRANCH   7  10
ENDBRANCH   1   7
BRANCH   4  23
ATOM     23  C   UNL     1      43.296   5.535  11.035  0.00  0.00    +0.000 C 
BRANCH  23  24
ATOM     24  N   UNL     1      43.658   4.882   9.779  0.00  0.00    +0.000 NA
ATOM     25  H   UNL     1      44.453   5.370   9.367  0.00  0.00    +0.000 HD
BRANCH  24  26
ATOM     26  C   UNL     1      44.010   3.478   9.975  0.00  0.00    +0.000 C 
BRANCH  26  27
ATOM     27  C   UNL     1      45.028   3.025   8.950  0.00  0.00    +0.000 A 
ATOM     28  C   UNL     1      45.444   1.689   8.885  0.00  0.00    +0.000 A 
ATOM     29  C   UNL     1      46.378   1.278   7.926  0.00  0.00    +0.000 A 
ATOM     30  C   UNL     1      46.913   2.196   7.012  0.00  0.00    +0.000 A 
ATOM     31  C   UNL     1      46.497   3.531   7.076  0.00  0.00    +0.000 A 
ATOM     32  C   UNL     1      45.563   3.940   8.032  0.00  0.00    +0.000 A 
BRANCH  30  33
ATOM     33  C   UNL     1      47.935   1.768   5.992  0.00  0.00    +0.000 C 
BRANCH  33  34
ATOM     34  O   UNL     1      48.224   2.831   5.092  0.00  0.00    +0.000 OA
ATOM     35  H   UNL     1      49.000   2.556   4.574  0.00  0.00    +0.000 HD
ENDBRANCH  33  34
ENDBRANCH  30  33
ENDBRANCH  26  27
ENDBRANCH  24  26
ENDBRANCH  23  24
ENDBRANCH   4  23
TORSDOF 9
ENDMDL
MODEL 4
REMARK VINA RESULT:    -7.489      3.149      3.871
REMARK INTER + INTRA:         -12.347
REMARK INTER:                 -11.345
REMARK INTRA:                  -1.003
REMARK UNBOUND:                -1.137
REMARK  Name = 
REMARK  9 active torsions:
REMARK  status: ('A' for Active; 'I' for Inactive)
REMARK    1  A    between atoms: C_2  and  C_22
REMARK    2  A    between atoms: N_3  and  C_4
REMARK    3  A    between atoms: C_4  and  C_5
REMARK    4  A    between atoms: C_8  and  C_9
REMARK    5  A    between atoms: C_9  and  N_10
REMARK    6  A    between atoms: N_10  and  C_11
REMARK    7  A    between atoms: C_11  and  C_12
REMARK    8  A    between atoms: C_15  and  C_16
REMARK    9  A    between atoms: C_16  and  O_17
REMARK                            x       y       z     vdW  Elec       q    Type
REMARK                         _______ _______ _______ _____ _____    ______ ____
ROOT
ATOM      1  C   UNL     1      47.760   5.187  15.624  0.00  0.00    +0.000 A 
ATOM      2  C   UNL     1      46.962   4.165  15.094  0.00  0.00    +0.000 A 
ATOM      3  C   UNL     1      46.420   4.279  13.811  0.00  0.00    +0.000 A 
ATOM      4  C   UNL     1      46.670   5.413  13.025  0.00  0.00    +0.000 A 
ATOM      5  C   UNL     1      47.506   6.414  13.539  0.00  0.00    +0.000 A 
ATOM      6  C   UNL     1      48.050   6.299  14.823  0.00  0.00    +0.000 A 
ENDROOT
BRANCH   1   7
ATOM      7  C   UNL     1      48.303   5.083  17.025  0.00  0.00    +0.000 C 
BRANCH   7  10
ATOM      8  O   UNL     1      49.907   5.009  19.278  0.00  0.00    +0.000 OA
ATOM      9  C   UNL     1      50.386   4.623  18.215  0.00  0.00    +0.000 C 
ATOM     10  N   UNL     1      49.691   4.700  17.033  0.00  0.00    +0.000 N 
ATOM     11  H   UNL     1      50.028   4.188  16.224  0.00  0.00    +0.000 HD
BRANCH   9  12
ATOM     12  C   UNL     1      51.750   4.089  18.144  0.00  0.00    +0.000 A 
ATOM     13  C   UNL     1      52.825   4.890  18.505  0.00  0.00    +0.000 A 
ATOM     14  S   UNL     1      54.336   4.112  18.363  0.00  0.00    +0.000 S 
ATOM     15  C   UNL     1      53.602   2.660  17.861  0.00  0.00    +0.000 A 
ATOM     16  N   UNL     1      54.349   1.550  17.608  0.00  0.00    +0.000 NA
ATOM     17  C   UNL     1      53.659   0.511  17.274  0.00  0.00    +0.000 A 
ATOM     18  N   UNL     1      52.294   0.482  17.159  0.00  0.00    +0.000 N 
ATOM     19  C   UNL     1      51.502   1.589  17.367  0.00  0.00    +0.000 A 
ATOM     20  O   UNL     1      50.291   1.543  17.191  0.00  0.00    +0.000 OA
ATOM     21  C   UNL     1      52.227   2.777  17.773  0.00  0.00    +0.000 A 
ATOM     22  H   UNL     1      51.813  -0.358  16.877  0.00  0.00    +0.000 HD
ENDBRANCH   9  12
ENDBRANCH   7  10
ENDBRANCH   1   7
BRANCH   4  23
ATOM     23  C   UNL     1      46.048   5.549  11.652  0.00  0.00    +0.000 C 
BRANCH  23  24
ATOM     24  N   UNL     1      44.935   4.616  11.492  0.00  0.00    +0.000 NA
ATOM     25  H   UNL     1      44.203   4.852  12.161  0.00  0.00    +0.000 HD
BRANCH  24  26
ATOM     26  C   UNL     1      44.378   4.656  10.141  0.00  0.00    +0.000 C 
BRANCH  26  27
ATOM     27  C   UNL     1      45.169   3.771   9.202  0.00  0.00    +0.000 A 
ATOM     28  C   UNL     1      45.169   2.378   9.348  0.00  0.00    +0.000 A 
ATOM     29  C   UNL     1      45.894   1.568   8.467  0.00  0.00    +0.000 A 
ATOM     30  C   UNL     1      46.633   2.134   7.419  0.00  0.00    +0.000 A 
ATOM     31  C   UNL     1      46.633   3.527   7.272  0.00  0.00    +0.000 A 
ATOM     32  C   UNL     1      45.907   4.335   8.151  0.00  0.00    +0.000 A 
BRANCH  30  33
ATOM     33  C   UNL     1      47.434   1.273   6.480  0.00  0.00    +0.000 C 
BRANCH  33  34
ATOM     34  O   UNL     1      48.591   1.963   6.025  0.00  0.00    +0.000 OA
ATOM     35  H   UNL     1      48.405   2.913   6.117  0.00  0.00    +0.000 HD
ENDBRANCH  33  34
ENDBRANCH  30  33
ENDBRANCH  26  27
ENDBRANCH  24  26
ENDBRANCH  23  24
ENDBRANCH   4  23
TORSDOF 9
ENDMDL
MODEL 5
REMARK VINA RESULT:    -7.438      3.648      8.738
REMARK INTER + INTRA:         -12.271
REMARK INTER:                 -10.736
REMARK INTRA:                  -1.535
REMARK UNBOUND:                -1.137
REMARK  Name = 
REMARK  9 active torsions:
REMARK  status: ('A' for Active; 'I' for Inactive)
REMARK    1  A    between atoms: C_2  and  C_22
REMARK    2  A    between atoms: N_3  and  C_4
REMARK    3  A    between atoms: C_4  and  C_5
REMARK    4  A    between atoms: C_8  and  C_9
REMARK    5  A    between atoms: C_9  and  N_10
REMARK    6  A    between atoms: N_10  and  C_11
REMARK    7  A    between atoms: C_11  and  C_12
REMARK    8  A    between atoms: C_15  and  C_16
REMARK    9  A    between atoms: C_16  and  O_17
REMARK                            x       y       z     vdW  Elec       q    Type
REMARK                         _______ _______ _______ _____ _____    ______ ____
ROOT
ATOM      1  C   UNL     1      48.506   8.070  13.523  0.00  0.00    +0.000 A 
ATOM      2  C   UNL     1      48.028   9.155  14.269  0.00  0.00    +0.000 A 
ATOM      3  C   UNL     1      48.114   9.152  15.664  0.00  0.00    +0.000 A 
ATOM      4  C   UNL     1      48.688   8.069  16.346  0.00  0.00    +0.000 A 
ATOM      5  C   UNL     1      49.207   7.005  15.595  0.00  0.00    +0.000 A 
ATOM      6  C   UNL     1      49.122   7.008  14.198  0.00  0.00    +0.000 A 
ENDROOT
BRANCH   1   7
ATOM      7  C   UNL     1      48.369   8.053  12.024  0.00  0.00    +0.000 C 
BRANCH   7  10
ATOM      8  O   UNL     1      45.617   7.907  11.776  0.00  0.00    +0.000 OA
ATOM      9  C   UNL     1      46.283   6.943  11.407  0.00  0.00    +0.000 C 
ATOM     10  N   UNL     1      47.646   6.895  11.566  0.00  0.00    +0.000 N 
ATOM     11  H   UNL     1      48.180   6.190  11.070  0.00  0.00    +0.000 HD
BRANCH   9  12
ATOM     12  C   UNL     1      45.648   5.766  10.803  0.00  0.00    +0.000 A 
ATOM     13  C   UNL     1      45.832   5.498   9.453  0.00  0.00    +0.000 A 
ATOM     14  S   UNL     1      45.025   4.094   8.918  0.00  0.00    +0.000 S 
ATOM     15  C   UNL     1      44.442   3.768  10.483  0.00  0.00    +0.000 A 
ATOM     16  N   UNL     1      43.696   2.656  10.733  0.00  0.00    +0.000 NA
ATOM     17  C   UNL     1      43.353   2.514  11.970  0.00  0.00    +0.000 A 
ATOM     18  N   UNL     1      43.678   3.385  12.977  0.00  0.00    +0.000 N 
ATOM     19  C   UNL     1      44.397   4.540  12.764  0.00  0.00    +0.000 A 
ATOM     20  O   UNL     1      44.612   5.329  13.676  0.00  0.00    +0.000 OA
ATOM     21  C   UNL     1      44.831   4.733  11.394  0.00  0.00    +0.000 A 
ATOM     22  H   UNL     1      43.366   3.228  13.922  0.00  0.00    +0.000 HD
ENDBRANCH   9  12
ENDBRANCH   7  10
ENDBRANCH   1   7
BRANCH   4  23
ATOM     23  C   UNL     1      48.743   8.054  17.858  0.00  0.00    +0.000 C 
BRANCH  23  24
ATOM     24  N   UNL     1      47.424   7.773  18.422  0.00  0.00    +0.000 NA
ATOM     25  H   UNL     1      46.775   7.560  17.665  0.00  0.00    +0.000 HD
BRANCH  24  26
ATOM     26  C   UNL     1      47.457   6.645  19.351  0.00  0.00    +0.000 C 
BRANCH  26  27
ATOM     27  C   UNL     1      48.164   5.456  18.737  0.00  0.00    +0.000 A 
ATOM     28  C   UNL     1      47.514   4.624  17.816  0.00  0.00    +0.000 A 
ATOM     29  C   UNL     1      48.181   3.533  17.246  0.00  0.00    +0.000 A 
ATOM     30  C   UNL     1      49.513   3.254  17.583  0.00  0.00    +0.000 A 
ATOM     31  C   UNL     1      50.163   4.086  18.503  0.00  0.00    +0.000 A 
ATOM     32  C   UNL     1      49.497   5.176  19.071  0.00  0.00    +0.000 A 
BRANCH  30  33
ATOM     33  C   UNL     1      50.230   2.070  16.992  0.00  0.00    +0.000 C 
BRANCH  33  34
ATOM     34  O   UNL     1      49.554   1.596  15.835  0.00  0.00    +0.000 OA
ATOM     35  H   UNL     1      49.819   0.668  15.714  0.00  0.00    +0.000 HD
ENDBRANCH  33  34
ENDBRANCH  30  33
ENDBRANCH  26  27
ENDBRANCH  24  26
ENDBRANCH  23  24
ENDBRANCH   4  23
TORSDOF 9
ENDMDL
MODEL 6
REMARK VINA RESULT:    -7.437      2.179      2.628
REMARK INTER + INTRA:         -12.269
REMARK INTER:                 -10.714
REMARK INTRA:                  -1.555
REMARK UNBOUND:                -1.137
REMARK  Name = 
REMARK  9 active torsions:
REMARK  status: ('A' for Active; 'I' for Inactive)
REMARK    1  A    between atoms: C_2  and  C_22
REMARK    2  A    between atoms: N_3  and  C_4
REMARK    3  A    between atoms: C_4  and  C_5
REMARK    4  A    between atoms: C_8  and  C_9
REMARK    5  A    between atoms: C_9  and  N_10
REMARK    6  A    between atoms: N_10  and  C_11
REMARK    7  A    between atoms: C_11  and  C_12
REMARK    8  A    between atoms: C_15  and  C_16
REMARK    9  A    between atoms: C_16  and  O_17
REMARK                            x       y       z     vdW  Elec       q    Type
REMARK                         _______ _______ _______ _____ _____    ______ ____
ROOT
ATOM      1  C   UNL     1      47.684   7.038  12.578  0.00  0.00    +0.000 A 
ATOM      2  C   UNL     1      47.627   5.772  13.175  0.00  0.00    +0.000 A 
ATOM      3  C   UNL     1      46.418   5.075  13.251  0.00  0.00    +0.000 A 
ATOM      4  C   UNL     1      45.239   5.624  12.726  0.00  0.00    +0.000 A 
ATOM      5  C   UNL     1      45.307   6.871  12.088  0.00  0.00    +0.000 A 
ATOM      6  C   UNL     1      46.518   7.567  12.011  0.00  0.00    +0.000 A 
ENDROOT
BRANCH   1   7
ATOM      7  C   UNL     1      48.978   7.808  12.540  0.00  0.00    +0.000 C 
BRANCH   7  10
ATOM      8  O   UNL     1      49.528   8.812  15.059  0.00  0.00    +0.000 OA
ATOM      9  C   UNL     1      50.103   7.785  14.708  0.00  0.00    +0.000 C 
ATOM     10  N   UNL     1      49.952   7.260  13.448  0.00  0.00    +0.000 N 
ATOM     11  H   UNL     1      50.269   6.314  13.262  0.00  0.00    +0.000 HD
BRANCH   9  12
ATOM     12  C   UNL     1      51.016   7.078  15.612  0.00  0.00    +0.000 A 
ATOM     13  C   UNL     1      52.377   7.348  15.569  0.00  0.00    +0.000 A 
ATOM     14  S   UNL     1      53.291   6.438  16.686  0.00  0.00    +0.000 S 
ATOM     15  C   UNL     1      51.893   5.686  17.299  0.00  0.00    +0.000 A 
ATOM     16  N   UNL     1      51.971   4.800  18.330  0.00  0.00    +0.000 NA
ATOM     17  C   UNL     1      50.831   4.337  18.719  0.00  0.00    +0.000 A 
ATOM     18  N   UNL     1      49.621   4.668  18.165  0.00  0.00    +0.000 N 
ATOM     19  C   UNL     1      49.498   5.528  17.098  0.00  0.00    +0.000 A 
ATOM     20  O   UNL     1      48.407   5.750  16.587  0.00  0.00    +0.000 OA
ATOM     21  C   UNL     1      50.749   6.100  16.640  0.00  0.00    +0.000 A 
ATOM     22  H   UNL     1      48.765   4.258  18.503  0.00  0.00    +0.000 HD
ENDBRANCH   9  12
ENDBRANCH   7  10
ENDBRANCH   1   7
BRANCH   4  23
ATOM     23  C   UNL     1      43.926   4.882  12.847  0.00  0.00    +0.000 C 
BRANCH  23  24
ATOM     24  N   UNL     1      44.034   3.539  12.281  0.00  0.00    +0.000 NA
ATOM     25  H   UNL     1      43.589   2.874  12.913  0.00  0.00    +0.000 HD
BRANCH  24  26
ATOM     26  C   UNL     1      43.401   3.447  10.968  0.00  0.00    +0.000 C 
BRANCH  26  27
ATOM     27  C   UNL     1      44.437   3.275   9.877  0.00  0.00    +0.000 A 
ATOM     28  C   UNL     1      44.860   2.001   9.475  0.00  0.00    +0.000 A 
ATOM     29  C   UNL     1      45.809   1.852   8.457  0.00  0.00    +0.000 A 
ATOM     30  C   UNL     1      46.355   2.975   7.820  0.00  0.00    +0.000 A 
ATOM     31  C   UNL     1      45.932   4.248   8.221  0.00  0.00    +0.000 A 
ATOM     32  C   UNL     1      44.983   4.396   9.236  0.00  0.00    +0.000 A 
BRANCH  30  33
ATOM     33  C   UNL     1      47.393   2.826   6.741  0.00  0.00    +0.000 C 
BRANCH  33  34
ATOM     34  O   UNL     1      48.176   1.657   6.951  0.00  0.00    +0.000 OA
ATOM     35  H   UNL     1      48.562   1.734   7.840  0.00  0.00    +0.000 HD
ENDBRANCH  33  34
ENDBRANCH  30  33
ENDBRANCH  26  27
ENDBRANCH  24  26
ENDBRANCH  23  24
ENDBRANCH   4  23
TORSDOF 9
ENDMDL
MODEL 7
REMARK VINA RESULT:    -7.246      3.075      9.110
REMARK INTER + INTRA:         -11.983
REMARK INTER:                  -9.977
REMARK INTRA:                  -2.006
REMARK UNBOUND:                -1.137
REMARK  Name = 
REMARK  9 active torsions:
REMARK  status: ('A' for Active; 'I' for Inactive)
REMARK    1  A    between atoms: C_2  and  C_22
REMARK    2  A    between atoms: N_3  and  C_4
REMARK    3  A    between atoms: C_4  and  C_5
REMARK    4  A    between atoms: C_8  and  C_9
REMARK    5  A    between atoms: C_9  and  N_10
REMARK    6  A    between atoms: N_10  and  C_11
REMARK    7  A    between atoms: C_11  and  C_12
REMARK    8  A    between atoms: C_15  and  C_16
REMARK    9  A    between atoms: C_16  and  O_17
REMARK                            x       y       z     vdW  Elec       q    Type
REMARK                         _______ _______ _______ _____ _____    ______ ____
ROOT
ATOM      1  C   UNL     1      48.370   8.005  13.635  0.00  0.00    +0.000 A 
ATOM      2  C   UNL     1      49.487   7.280  14.068  0.00  0.00    +0.000 A 
ATOM      3  C   UNL     1      50.016   7.484  15.345  0.00  0.00    +0.000 A 
ATOM      4  C   UNL     1      49.436   8.413  16.222  0.00  0.00    +0.000 A 
ATOM      5  C   UNL     1      48.291   9.104  15.804  0.00  0.00    +0.000 A 
ATOM      6  C   UNL     1      47.760   8.898  14.525  0.00  0.00    +0.000 A 
ENDROOT
BRANCH   1   7
ATOM      7  C   UNL     1      47.831   7.818  12.241  0.00  0.00    +0.000 C 
BRANCH   7  10
ATOM      8  O   UNL     1      45.095   7.525  12.537  0.00  0.00    +0.000 OA
ATOM      9  C   UNL     1      45.749   6.542  12.199  0.00  0.00    +0.000 C 
ATOM     10  N   UNL     1      47.118   6.574  12.106  0.00  0.00    +0.000 N 
ATOM     11  H   UNL     1      47.603   5.820  11.630  0.00  0.00    +0.000 HD
BRANCH   9  12
ATOM     12  C   UNL     1      45.099   5.259  11.908  0.00  0.00    +0.000 A 
ATOM     13  C   UNL     1      44.394   4.600  12.907  0.00  0.00    +0.000 A 
ATOM     14  S   UNL     1      43.703   3.126  12.397  0.00  0.00    +0.000 S 
ATOM     15  C   UNL     1      44.281   3.342  10.811  0.00  0.00    +0.000 A 
ATOM     16  N   UNL     1      43.997   2.436   9.834  0.00  0.00    +0.000 NA
ATOM     17  C   UNL     1      44.465   2.744   8.672  0.00  0.00    +0.000 A 
ATOM     18  N   UNL     1      45.199   3.869   8.397  0.00  0.00    +0.000 N 
ATOM     19  C   UNL     1      45.542   4.792   9.359  0.00  0.00    +0.000 A 
ATOM     20  O   UNL     1      46.255   5.751   9.090  0.00  0.00    +0.000 OA
ATOM     21  C   UNL     1      45.016   4.506  10.679  0.00  0.00    +0.000 A 
ATOM     22  H   UNL     1      45.552   4.046   7.469  0.00  0.00    +0.000 HD
ENDBRANCH   9  12
ENDBRANCH   7  10
ENDBRANCH   1   7
BRANCH   4  23
ATOM     23  C   UNL     1      50.037   8.659  17.589  0.00  0.00    +0.000 C 
BRANCH  23  24
ATOM     24  N   UNL     1      49.058   8.394  18.642  0.00  0.00    +0.000 NA
ATOM     25  H   UNL     1      48.141   8.256  18.218  0.00  0.00    +0.000 HD
BRANCH  24  26
ATOM     26  C   UNL     1      49.405   7.210  19.424  0.00  0.00    +0.000 C 
BRANCH  26  27
ATOM     27  C   UNL     1      49.149   5.944  18.635  0.00  0.00    +0.000 A 
ATOM     28  C   UNL     1      47.857   5.603  18.214  0.00  0.00    +0.000 A 
ATOM     29  C   UNL     1      47.633   4.435  17.475  0.00  0.00    +0.000 A 
ATOM     30  C   UNL     1      48.696   3.585  17.142  0.00  0.00    +0.000 A 
ATOM     31  C   UNL     1      49.987   3.926  17.563  0.00  0.00    +0.000 A 
ATOM     32  C   UNL     1      50.211   5.093  18.298  0.00  0.00    +0.000 A 
BRANCH  30  33
ATOM     33  C   UNL     1      48.461   2.316  16.367  0.00  0.00    +0.000 C 
BRANCH  33  34
ATOM     34  O   UNL     1      49.695   1.692  16.034  0.00  0.00    +0.000 OA
ATOM     35  H   UNL     1      50.168   1.542  16.870  0.00  0.00    +0.000 HD
ENDBRANCH  33  34
ENDBRANCH  30  33
ENDBRANCH  26  27
ENDBRANCH  24  26
ENDBRANCH  23  24
ENDBRANCH   4  23
TORSDOF 9
ENDMDL
MODEL 8
REMARK VINA RESULT:    -6.907      3.605      8.608
REMARK INTER + INTRA:         -11.476
REMARK INTER:                  -9.761
REMARK INTRA:                  -1.716
REMARK UNBOUND:                -1.137
REMARK  Name = 
REMARK  9 active torsions:
REMARK  status: ('A' for Active; 'I' for Inactive)
REMARK    1  A    between atoms: C_2  and  C_22
REMARK    2  A    between atoms: N_3  and  C_4
REMARK    3  A    between atoms: C_4  and  C_5
REMARK    4  A    between atoms: C_8  and  C_9
REMARK    5  A    between atoms: C_9  and  N_10
REMARK    6  A    between atoms: N_10  and  C_11
REMARK    7  A    between atoms: C_11  and  C_12
REMARK    8  A    between atoms: C_15  and  C_16
REMARK    9  A    between atoms: C_16  and  O_17
REMARK                            x       y       z     vdW  Elec       q    Type
REMARK                         _______ _______ _______ _____ _____    ______ ____
ROOT
ATOM      1  C   UNL     1      49.405   7.947  15.326  0.00  0.00    +0.000 A 
ATOM      2  C   UNL     1      50.270   7.490  16.329  0.00  0.00    +0.000 A 
ATOM      3  C   UNL     1      50.069   7.856  17.663  0.00  0.00    +0.000 A 
ATOM      4  C   UNL     1      48.994   8.681  18.026  0.00  0.00    +0.000 A 
ATOM      5  C   UNL     1      48.104   9.099  17.028  0.00  0.00    +0.000 A 
ATOM      6  C   UNL     1      48.304   8.731  15.693  0.00  0.00    +0.000 A 
ENDROOT
BRANCH   1   7
ATOM      7  C   UNL     1      49.651   7.590  13.884  0.00  0.00    +0.000 C 
BRANCH   7  10
ATOM      8  O   UNL     1      48.092   5.320  14.152  0.00  0.00    +0.000 OA
ATOM      9  C   UNL     1      47.678   6.224  13.430  0.00  0.00    +0.000 C 
ATOM     10  N   UNL     1      48.421   7.350  13.175  0.00  0.00    +0.000 N 
ATOM     11  H   UNL     1      47.972   8.157  12.753  0.00  0.00    +0.000 HD
BRANCH   9  12
ATOM     12  C   UNL     1      46.373   6.131  12.767  0.00  0.00    +0.000 A 
ATOM     13  C   UNL     1      45.776   7.275  12.253  0.00  0.00    +0.000 A 
ATOM     14  S   UNL     1      44.265   6.986  11.517  0.00  0.00    +0.000 S 
ATOM     15  C   UNL     1      44.378   5.314  11.817  0.00  0.00    +0.000 A 
ATOM     16  N   UNL     1      43.405   4.461  11.393  0.00  0.00    +0.000 NA
ATOM     17  C   UNL     1      43.638   3.219  11.653  0.00  0.00    +0.000 A 
ATOM     18  N   UNL     1      44.748   2.751  12.308  0.00  0.00    +0.000 N 
ATOM     19  C   UNL     1      45.737   3.579  12.787  0.00  0.00    +0.000 A 
ATOM     20  O   UNL     1      46.682   3.133  13.426  0.00  0.00    +0.000 OA
ATOM     21  C   UNL     1      45.537   4.985  12.496  0.00  0.00    +0.000 A 
ATOM     22  H   UNL     1      44.865   1.768  12.497  0.00  0.00    +0.000 HD
ENDBRANCH   9  12
ENDBRANCH   7  10
ENDBRANCH   1   7
BRANCH   4  23
ATOM     23  C   UNL     1      48.805   9.106  19.466  0.00  0.00    +0.000 C 
BRANCH  23  24
ATOM     24  N   UNL     1      48.890   7.955  20.363  0.00  0.00    +0.000 NA
ATOM     25  H   UNL     1      49.003   8.286  21.321  0.00  0.00    +0.000 HD
BRANCH  24  26
ATOM     26  C   UNL     1      47.698   7.114  20.286  0.00  0.00    +0.000 C 
BRANCH  26  27
ATOM     27  C   UNL     1      47.943   5.904  19.410  0.00  0.00    +0.000 A 
ATOM     28  C   UNL     1      49.059   5.081  19.608  0.00  0.00    +0.000 A 
ATOM     29  C   UNL     1      49.270   3.958  18.799  0.00  0.00    +0.000 A 
ATOM     30  C   UNL     1      48.369   3.635  17.777  0.00  0.00    +0.000 A 
ATOM     31  C   UNL     1      47.253   4.457  17.578  0.00  0.00    +0.000 A 
ATOM     32  C   UNL     1      47.041   5.577  18.387  0.00  0.00    +0.000 A 
BRANCH  30  33
ATOM     33  C   UNL     1      48.599   2.442  16.887  0.00  0.00    +0.000 C 
BRANCH  33  34
ATOM     34  O   UNL     1      48.338   2.768  15.528  0.00  0.00    +0.000 OA
ATOM     35  H   UNL     1      47.373   2.853  15.440  0.00  0.00    +0.000 HD
ENDBRANCH  33  34
ENDBRANCH  30  33
ENDBRANCH  26  27
ENDBRANCH  24  26
ENDBRANCH  23  24
ENDBRANCH   4  23
TORSDOF 9
ENDMDL
MODEL 9
REMARK VINA RESULT:    -6.864      3.750      8.906
REMARK INTER + INTRA:         -11.412
REMARK INTER:                  -9.224
REMARK INTRA:                  -2.188
REMARK UNBOUND:                -1.137
REMARK  Name = 
REMARK  9 active torsions:
REMARK  status: ('A' for Active; 'I' for Inactive)
REMARK    1  A    between atoms: C_2  and  C_22
REMARK    2  A    between atoms: N_3  and  C_4
REMARK    3  A    between atoms: C_4  and  C_5
REMARK    4  A    between atoms: C_8  and  C_9
REMARK    5  A    between atoms: C_9  and  N_10
REMARK    6  A    between atoms: N_10  and  C_11
REMARK    7  A    between atoms: C_11  and  C_12
REMARK    8  A    between atoms: C_15  and  C_16
REMARK    9  A    between atoms: C_16  and  O_17
REMARK                            x       y       z     vdW  Elec       q    Type
REMARK                         _______ _______ _______ _____ _____    ______ ____
ROOT
ATOM      1  C   UNL     1      48.671   8.785  15.720  0.00  0.00    +0.000 A 
ATOM      2  C   UNL     1      48.040   9.467  16.769  0.00  0.00    +0.000 A 
ATOM      3  C   UNL     1      48.418   9.239  18.095  0.00  0.00    +0.000 A 
ATOM      4  C   UNL     1      49.441   8.330  18.404  0.00  0.00    +0.000 A 
ATOM      5  C   UNL     1      50.102   7.683  17.351  0.00  0.00    +0.000 A 
ATOM      6  C   UNL     1      49.725   7.913  16.023  0.00  0.00    +0.000 A 
ENDROOT
BRANCH   1   7
ATOM      7  C   UNL     1      48.231   8.997  14.297  0.00  0.00    +0.000 C 
BRANCH   7  10
ATOM      8  O   UNL     1      48.729   6.887  12.578  0.00  0.00    +0.000 OA
ATOM      9  C   UNL     1      47.615   6.965  13.088  0.00  0.00    +0.000 C 
ATOM     10  N   UNL     1      47.253   8.021  13.889  0.00  0.00    +0.000 N 
ATOM     11  H   UNL     1      46.414   7.952  14.454  0.00  0.00    +0.000 HD
BRANCH   9  12
ATOM     12  C   UNL     1      46.590   5.945  12.840  0.00  0.00    +0.000 A 
ATOM     13  C   UNL     1      46.805   4.636  13.248  0.00  0.00    +0.000 A 
ATOM     14  S   UNL     1      45.514   3.584  12.880  0.00  0.00    +0.000 S 
ATOM     15  C   UNL     1      44.601   4.853  12.206  0.00  0.00    +0.000 A 
ATOM     16  N   UNL     1      43.344   4.633  11.729  0.00  0.00    +0.000 NA
ATOM     17  C   UNL     1      42.754   5.691  11.283  0.00  0.00    +0.000 A 
ATOM     18  N   UNL     1      43.307   6.945  11.260  0.00  0.00    +0.000 N 
ATOM     19  C   UNL     1      44.586   7.207  11.695  0.00  0.00    +0.000 A 
ATOM     20  O   UNL     1      45.071   8.327  11.597  0.00  0.00    +0.000 OA
ATOM     21  C   UNL     1      45.284   6.055  12.233  0.00  0.00    +0.000 A 
ATOM     22  H   UNL     1      42.800   7.730  10.881  0.00  0.00    +0.000 HD
ENDBRANCH   9  12
ENDBRANCH   7  10
ENDBRANCH   1   7
BRANCH   4  23
ATOM     23  C   UNL     1      49.818   8.058  19.843  0.00  0.00    +0.000 C 
BRANCH  23  24
ATOM     24  N   UNL     1      48.705   7.443  20.564  0.00  0.00    +0.000 NA
ATOM     25  H   UNL     1      47.859   7.523  20.002  0.00  0.00    +0.000 HD
BRANCH  24  26
ATOM     26  C   UNL     1      48.954   6.033  20.854  0.00  0.00    +0.000 C 
BRANCH  26  27
ATOM     27  C   UNL     1      48.786   5.186  19.611  0.00  0.00    +0.000 A 
ATOM     28  C   UNL     1      49.820   4.360  19.152  0.00  0.00    +0.000 A 
ATOM     29  C   UNL     1      49.650   3.572  18.008  0.00  0.00    +0.000 A 
ATOM     30  C   UNL     1      48.440   3.592  17.300  0.00  0.00    +0.000 A 
ATOM     31  C   UNL     1      47.406   4.417  17.758  0.00  0.00    +0.000 A 
ATOM     32  C   UNL     1      47.576   5.202  18.902  0.00  0.00    +0.000 A 
BRANCH  30  33
ATOM     33  C   UNL     1      48.256   2.766  16.055  0.00  0.00    +0.000 C 
BRANCH  33  34
ATOM     34  O   UNL     1      49.257   1.761  15.964  0.00  0.00    +0.000 OA
ATOM     35  H   UNL     1      49.346   1.537  15.022  0.00  0.00    +0.000 HD
ENDBRANCH  33  34
ENDBRANCH  30  33
ENDBRANCH  26  27
ENDBRANCH  24  26
ENDBRANCH  23  24
ENDBRANCH   4  23
TORSDOF 9
ENDMDL
