MODEL 1
REMARK VINA RESULT:    -8.357      0.000      0.000
REMARK INTER + INTRA:         -13.206
REMARK INTER:                 -12.266
REMARK INTRA:                  -0.940
REMARK UNBOUND:                -0.940
REMARK  Name = 
REMARK  9 active torsions:
REMARK  status: ('A' for Active; 'I' for Inactive)
REMARK    1  A    between atoms: C_2  and  C_4
REMARK    2  A    between atoms: N_8  and  C_9
REMARK    3  A    between atoms: C_9  and  C_10
REMARK    4  A    between atoms: C_10  and  O_11
REMARK    5  A    between atoms: C_10  and  C_12
REMARK    6  A    between atoms: C_10  and  C_14
REMARK    7  A    between atoms: C_12  and  O_13
REMARK    8  A    between atoms: C_18  and  O_19
REMARK    9  A    between atoms: O_19  and  C_20
REMARK                            x       y       z     vdW  Elec       q    Type
REMARK                         _______ _______ _______ _____ _____    ______ ____
ROOT
ATOM      1  C   UNL     1      43.909   4.515  12.281  0.00  0.00    +0.000 C 
ENDROOT
BRANCH   1   2
ATOM      2  C   UNL     1      45.301   5.145  12.436  0.00  0.00    +0.000 A 
ATOM      3  C   UNL     1      45.784   6.123  11.555  0.00  0.00    +0.000 A 
ATOM      4  C   UNL     1      47.019   6.752  11.781  0.00  0.00    +0.000 A 
ATOM      5  C   UNL     1      47.789   6.435  12.905  0.00  0.00    +0.000 A 
ATOM      6  C   UNL     1      47.321   5.473  13.789  0.00  0.00    +0.000 A 
ATOM      7  C   UNL     1      46.104   4.833  13.544  0.00  0.00    +0.000 A 
BRANCH   6   8
ATOM      8  O   UNL     1      47.900   5.077  14.963  0.00  0.00    +0.000 OA
BRANCH   8   9
ATOM      9  C   UNL     1      47.198   4.230  15.886  0.00  0.00    +0.000 C 
ATOM     10  C   UNL     1      47.249   4.588  17.376  0.00  0.00    +0.000 C 
ATOM     11  O   UNL     1      47.853   3.318  17.719  0.00  0.00    +0.000 OA
ATOM     12  C   UNL     1      48.007   2.996  16.319  0.00  0.00    +0.000 C 
ENDBRANCH   8   9
ENDBRANCH   6   8
ENDBRANCH   1   2
BRANCH   1  13
ATOM     13  O   UNL     1      43.874   3.247  12.978  0.00  0.00    +0.000 OA
ATOM     14  H   UNL     1      43.712   3.475  13.912  0.00  0.00    +0.000 HD
ENDBRANCH   1  13
BRANCH   1  15
ATOM     15  C   UNL     1      43.647   4.267  10.762  0.00  0.00    +0.000 C 
BRANCH  15  20
ATOM     16  C   UNL     1      46.605   2.496   7.145  0.00  0.00    +0.000 A 
ATOM     17  C   UNL     1      46.154   1.359   7.810  0.00  0.00    +0.000 A 
ATOM     18  C   UNL     1      45.276   1.509   8.888  0.00  0.00    +0.000 A 
ATOM     19  C   UNL     1      44.866   2.783   9.283  0.00  0.00    +0.000 A 
ATOM     20  N   UNL     1      43.994   2.884  10.381  0.00  0.00    +0.000 N 
ATOM     21  N   UNL     1      45.276   3.884   8.625  0.00  0.00    +0.000 NA
ATOM     22  C   UNL     1      46.141   3.724   7.589  0.00  0.00    +0.000 A 
ATOM     23  H   UNL     1      44.408   2.406  11.179  0.00  0.00    +0.000 HD
BRANCH  16  25
ATOM     24  N   UNL     1      48.900   2.649   6.334  0.00  0.00    +0.000 N 
ATOM     25  C   UNL     1      47.578   2.462   6.030  0.00  0.00    +0.000 C 
ATOM     26  O   UNL     1      47.222   2.252   4.880  0.00  0.00    +0.000 OA
ATOM     27  H   UNL     1      49.553   2.535   5.568  0.00  0.00    +0.000 HD
ATOM     28  H   UNL     1      49.266   2.591   7.272  0.00  0.00    +0.000 HD
ENDBRANCH  16  25
ENDBRANCH  15  20
ENDBRANCH   1  15
BRANCH   1  29
ATOM     29  C   UNL     1      42.760   5.368  12.888  0.00  0.00    +0.000 C 
BRANCH  29  30
ATOM     30  O   UNL     1      42.073   6.110  11.871  0.00  0.00    +0.000 OA
ATOM     31  H   UNL     1      42.736   6.314  11.187  0.00  0.00    +0.000 HD
ENDBRANCH  29  30
ENDBRANCH   1  29
TORSDOF 9
ENDMDL
MODEL 2
REMARK VINA RESULT:    -7.415      1.629      1.989
REMARK INTER + INTRA:         -11.823
REMARK INTER:                 -11.629
REMARK INTRA:                  -0.193
REMARK UNBOUND:                -0.940
REMARK  Name = 
REMARK  9 active torsions:
REMARK  status: ('A' for Active; 'I' for Inactive)
REMARK    1  A    between atoms: C_2  and  C_4
REMARK    2  A    between atoms: N_8  and  C_9
REMARK    3  A    between atoms: C_9  and  C_10
REMARK    4  A    between atoms: C_10  and  O_11
REMARK    5  A    between atoms: C_10  and  C_12
REMARK    6  A    between atoms: C_10  and  C_14
REMARK    7  A    between atoms: C_12  and  O_13
REMARK    8  A    between atoms: C_18  and  O_19
REMARK    9  A    between atoms: O_19  and  C_20
REMARK                            x       y       z     vdW  Elec       q    Type
REMARK                         _______ _______ _______ _____ _____    ______ ____
ROOT
ATOM      1  C   UNL     1      44.311   4.218  12.162  0.00  0.00    +0.000 C 
ENDROOT
BRANCH   1   2
ATOM      2  C   UNL     1      45.240   5.428  12.336  0.00  0.00    +0.000 A 
ATOM      3  C   UNL     1      44.872   6.720  11.935  0.00  0.00    +0.000 A 
ATOM      4  C   UNL     1      45.702   7.822  12.199  0.00  0.00    +0.000 A 
ATOM      5  C   UNL     1      46.907   7.661  12.891  0.00  0.00    +0.000 A 
ATOM      6  C   UNL     1      47.282   6.390  13.301  0.00  0.00    +0.000 A 
ATOM      7  C   UNL     1      46.464   5.295  13.012  0.00  0.00    +0.000 A 
BRANCH   6   8
ATOM      8  O   UNL     1      48.384   6.048  14.034  0.00  0.00    +0.000 OA
BRANCH   8   9
ATOM      9  C   UNL     1      48.623   6.628  15.326  0.00  0.00    +0.000 C 
ATOM     10  C   UNL     1      50.075   6.882  15.746  0.00  0.00    +0.000 C 
ATOM     11  O   UNL     1      49.950   6.024  16.904  0.00  0.00    +0.000 OA
ATOM     12  C   UNL     1      48.642   5.596  16.465  0.00  0.00    +0.000 C 
ENDBRANCH   8   9
ENDBRANCH   6   8
ENDBRANCH   1   2
BRANCH   1  13
ATOM     13  O   UNL     1      45.092   3.000  12.217  0.00  0.00    +0.000 OA
ATOM     14  H   UNL     1      44.436   2.281  12.273  0.00  0.00    +0.000 HD
ENDBRANCH   1  13
BRANCH   1  15
ATOM     15  C   UNL     1      43.629   4.319  10.761  0.00  0.00    +0.000 C 
BRANCH  15  20
ATOM     16  C   UNL     1      46.694   2.220   7.419  0.00  0.00    +0.000 A 
ATOM     17  C   UNL     1      46.835   3.589   7.206  0.00  0.00    +0.000 A 
ATOM     18  C   UNL     1      46.108   4.477   8.006  0.00  0.00    +0.000 A 
ATOM     19  C   UNL     1      45.257   3.988   8.998  0.00  0.00    +0.000 A 
ATOM     20  N   UNL     1      44.539   4.920   9.767  0.00  0.00    +0.000 N 
ATOM     21  N   UNL     1      45.140   2.667   9.229  0.00  0.00    +0.000 NA
ATOM     22  C   UNL     1      45.840   1.815   8.433  0.00  0.00    +0.000 A 
ATOM     23  H   UNL     1      44.007   5.525   9.144  0.00  0.00    +0.000 HD
BRANCH  16  25
ATOM     24  N   UNL     1      48.404   1.587   5.801  0.00  0.00    +0.000 N 
ATOM     25  C   UNL     1      47.366   1.188   6.599  0.00  0.00    +0.000 C 
ATOM     26  O   UNL     1      47.025   0.015   6.647  0.00  0.00    +0.000 OA
ATOM     27  H   UNL     1      48.902   0.850   5.316  0.00  0.00    +0.000 HD
ATOM     28  H   UNL     1      48.868   2.477   5.900  0.00  0.00    +0.000 HD
ENDBRANCH  16  25
ENDBRANCH  15  20
ENDBRANCH   1  15
BRANCH   1  29
ATOM     29  C   UNL     1      43.234   4.085  13.274  0.00  0.00    +0.000 C 
BRANCH  29  30
ATOM     30  O   UNL     1      42.562   5.334  13.494  0.00  0.00    +0.000 OA
ATOM     31  H   UNL     1      42.056   5.518  12.684  0.00  0.00    +0.000 HD
ENDBRANCH  29  30
ENDBRANCH   1  29
TORSDOF 9
ENDMDL
MODEL 3
REMARK VINA RESULT:    -7.318      2.248      3.907
REMARK INTER + INTRA:         -11.681
REMARK INTER:                 -10.930
REMARK INTRA:                  -0.751
REMARK UNBOUND:                -0.940
REMARK  Name = 
REMARK  9 active torsions:
REMARK  status: ('A' for Active; 'I' for Inactive)
REMARK    1  A    between atoms: C_2  and  C_4
REMARK    2  A    between atoms: N_8  and  C_9
REMARK    3  A    between atoms: C_9  and  C_10
REMARK    4  A    between atoms: C_10  and  O_11
REMARK    5  A    between atoms: C_10  and  C_12
REMARK    6  A    between atoms: C_10  and  C_14
REMARK    7  A    between atoms: C_12  and  O_13
REMARK    8  A    between atoms: C_18  and  O_19
REMARK    9  A    between atoms: O_19  and  C_20
REMARK                            x       y       z     vdW  Elec       q    Type
REMARK                         _______ _______ _______ _____ _____    ______ ____
ROOT
ATOM      1  C   UNL     1      43.923   4.786  12.338  0.00  0.00    +0.000 C 
ENDROOT
BRANCH   1   2
ATOM      2  C   UNL     1      45.146   5.659  12.653  0.00  0.00    +0.000 A 
ATOM      3  C   UNL     1      46.446   5.135  12.718  0.00  0.00    +0.000 A 
ATOM      4  C   UNL     1      47.554   5.975  12.910  0.00  0.00    +0.000 A 
ATOM      5  C   UNL     1      47.393   7.361  13.016  0.00  0.00    +0.000 A 
ATOM      6  C   UNL     1      46.114   7.895  12.948  0.00  0.00    +0.000 A 
ATOM      7  C   UNL     1      45.014   7.050  12.784  0.00  0.00    +0.000 A 
BRANCH   6   8
ATOM      8  O   UNL     1      45.768   9.217  12.973  0.00  0.00    +0.000 OA
BRANCH   8   9
ATOM      9  C   UNL     1      45.563   9.952  11.755  0.00  0.00    +0.000 C 
ATOM     10  C   UNL     1      45.985  11.425  11.722  0.00  0.00    +0.000 C 
ATOM     11  O   UNL     1      44.640  11.862  11.416  0.00  0.00    +0.000 OA
ATOM     12  C   UNL     1      44.142  10.521  11.617  0.00  0.00    +0.000 C 
ENDBRANCH   8   9
ENDBRANCH   6   8
ENDBRANCH   1   2
BRANCH   1  13
ATOM     13  O   UNL     1      44.064   3.504  12.997  0.00  0.00    +0.000 OA
ATOM     14  H   UNL     1      44.773   3.633  13.653  0.00  0.00    +0.000 HD
ENDBRANCH   1  13
BRANCH   1  15
ATOM     15  C   UNL     1      43.865   4.559  10.794  0.00  0.00    +0.000 C 
BRANCH  15  20
ATOM     16  C   UNL     1      46.618   2.560   7.135  0.00  0.00    +0.000 A 
ATOM     17  C   UNL     1      46.155   1.464   7.857  0.00  0.00    +0.000 A 
ATOM     18  C   UNL     1      45.326   1.683   8.962  0.00  0.00    +0.000 A 
ATOM     19  C   UNL     1      44.975   2.984   9.326  0.00  0.00    +0.000 A 
ATOM     20  N   UNL     1      44.150   3.153  10.451  0.00  0.00    +0.000 N 
ATOM     21  N   UNL     1      45.395   4.046   8.613  0.00  0.00    +0.000 NA
ATOM     22  C   UNL     1      46.213   3.819   7.551  0.00  0.00    +0.000 A 
ATOM     23  H   UNL     1      44.579   2.689  11.250  0.00  0.00    +0.000 HD
BRANCH  16  25
ATOM     24  N   UNL     1      48.887   2.413   6.253  0.00  0.00    +0.000 N 
ATOM     25  C   UNL     1      47.545   2.454   5.986  0.00  0.00    +0.000 C 
ATOM     26  O   UNL     1      47.131   2.380   4.838  0.00  0.00    +0.000 OA
ATOM     27  H   UNL     1      49.495   2.253   5.459  0.00  0.00    +0.000 HD
ATOM     28  H   UNL     1      49.263   2.236   7.172  0.00  0.00    +0.000 HD
ENDBRANCH  16  25
ENDBRANCH  15  20
ENDBRANCH   1  15
BRANCH   1  29
ATOM     29  C   UNL     1      42.579   5.380  12.842  0.00  0.00    +0.000 C 
BRANCH  29  30
ATOM     30  O   UNL     1      41.917   6.116  11.804  0.00  0.00    +0.000 OA
ATOM     31  H   UNL     1      41.523   6.897  12.232  0.00  0.00    +0.000 HD
ENDBRANCH  29  30
ENDBRANCH   1  29
TORSDOF 9
ENDMDL
MODEL 4
REMARK VINA RESULT:    -7.261      2.161      3.465
REMARK INTER + INTRA:         -11.597
REMARK INTER:                 -10.535
REMARK INTRA:                  -1.062
REMARK UNBOUND:                -0.940
REMARK  Name = 
REMARK  9 active torsions:
REMARK  status: ('A' for Active; 'I' for Inactive)
REMARK    1  A    between atoms: C_2  and  C_4
REMARK    2  A    between atoms: N_8  and  C_9
REMARK    3  A    between atoms: C_9  and  C_10
REMARK    4  A    between atoms: C_10  and  O_11
REMARK    5  A    between atoms: C_10  and  C_12
REMARK    6  A    between atoms: C_10  and  C_14
REMARK    7  A    between atoms: C_12  and  O_13
REMARK    8  A    between atoms: C_18  and  O_19
REMARK    9  A    between atoms: O_19  and  C_20
REMARK                            x       y       z     vdW  Elec       q    Type
REMARK                         _______ _______ _______ _____ _____    ______ ____
ROOT
ATOM      1  C   UNL     1      43.731   5.810  12.081  0.00  0.00    +0.000 C 
ENDROOT
BRANCH   1   2
ATOM      2  C   UNL     1      45.082   5.567  12.768  0.00  0.00    +0.000 A 
ATOM      3  C   UNL     1      45.515   4.286  13.140  0.00  0.00    +0.000 A 
ATOM      4  C   UNL     1      46.797   4.084  13.675  0.00  0.00    +0.000 A 
ATOM      5  C   UNL     1      47.685   5.153  13.829  0.00  0.00    +0.000 A 
ATOM      6  C   UNL     1      47.274   6.426  13.460  0.00  0.00    +0.000 A 
ATOM      7  C   UNL     1      45.988   6.623  12.953  0.00  0.00    +0.000 A 
BRANCH   6   8
ATOM      8  O   UNL     1      48.017   7.573  13.482  0.00  0.00    +0.000 OA
BRANCH   8   9
ATOM      9  C   UNL     1      48.511   8.159  12.266  0.00  0.00    +0.000 C 
ATOM     10  C   UNL     1      49.783   7.568  11.646  0.00  0.00    +0.000 C 
ATOM     11  O   UNL     1      50.483   8.831  11.742  0.00  0.00    +0.000 OA
ATOM     12  C   UNL     1      49.391   9.397  12.499  0.00  0.00    +0.000 C 
ENDBRANCH   8   9
ENDBRANCH   6   8
ENDBRANCH   1   2
BRANCH   1  13
ATOM     13  O   UNL     1      42.661   5.603  13.035  0.00  0.00    +0.000 OA
ATOM     14  H   UNL     1      42.436   4.658  12.962  0.00  0.00    +0.000 HD
ENDBRANCH   1  13
BRANCH   1  15
ATOM     15  C   UNL     1      43.578   4.782  10.917  0.00  0.00    +0.000 C 
BRANCH  15  20
ATOM     16  C   UNL     1      46.375   1.990   7.859  0.00  0.00    +0.000 A 
ATOM     17  C   UNL     1      46.517   3.286   7.371  0.00  0.00    +0.000 A 
ATOM     18  C   UNL     1      45.859   4.332   8.026  0.00  0.00    +0.000 A 
ATOM     19  C   UNL     1      45.075   4.070   9.149  0.00  0.00    +0.000 A 
ATOM     20  N   UNL     1      44.423   5.152   9.765  0.00  0.00    +0.000 N 
ATOM     21  N   UNL     1      44.957   2.823   9.644  0.00  0.00    +0.000 NA
ATOM     22  C   UNL     1      45.589   1.813   8.987  0.00  0.00    +0.000 A 
ATOM     23  H   UNL     1      43.857   5.638   9.071  0.00  0.00    +0.000 HD
BRANCH  16  25
ATOM     24  N   UNL     1      47.682   0.991   6.059  0.00  0.00    +0.000 N 
ATOM     25  C   UNL     1      46.975   0.800   7.215  0.00  0.00    +0.000 C 
ATOM     26  O   UNL     1      46.866  -0.314   7.708  0.00  0.00    +0.000 OA
ATOM     27  H   UNL     1      48.155   0.176   5.686  0.00  0.00    +0.000 HD
ATOM     28  H   UNL     1      47.996   1.897   5.745  0.00  0.00    +0.000 HD
ENDBRANCH  16  25
ENDBRANCH  15  20
ENDBRANCH   1  15
BRANCH   1  29
ATOM     29  C   UNL     1      43.549   7.258  11.544  0.00  0.00    +0.000 C 
BRANCH  29  30
ATOM     30  O   UNL     1      42.229   7.451  11.016  0.00  0.00    +0.000 OA
ATOM     31  H   UNL     1      41.790   6.583  11.056  0.00  0.00    +0.000 HD
ENDBRANCH  29  30
ENDBRANCH   1  29
TORSDOF 9
ENDMDL
MODEL 5
REMARK VINA RESULT:    -7.225      2.881      5.187
REMARK INTER + INTRA:         -11.545
REMARK INTER:                 -10.637
REMARK INTRA:                  -0.907
REMARK UNBOUND:                -0.940
REMARK  Name = 
REMARK  9 active torsions:
REMARK  status: ('A' for Active; 'I' for Inactive)
REMARK    1  A    between atoms: C_2  and  C_4
REMARK    2  A    between atoms: N_8  and  C_9
REMARK    3  A    between atoms: C_9  and  C_10
REMARK    4  A    between atoms: C_10  and  O_11
REMARK    5  A    between atoms: C_10  and  C_12
REMARK    6  A    between atoms: C_10  and  C_14
REMARK    7  A    between atoms: C_12  and  O_13
REMARK    8  A    between atoms: C_18  and  O_19
REMARK    9  A    between atoms: O_19  and  C_20
REMARK                            x       y       z     vdW  Elec       q    Type
REMARK                         _______ _______ _______ _____ _____    ______ ____
ROOT
ATOM      1  C   UNL     1      44.416   5.407  12.082  0.00  0.00    +0.000 C 
ENDROOT
BRANCH   1   2
ATOM      2  C   UNL     1      44.701   6.914  12.143  0.00  0.00    +0.000 A 
ATOM      3  C   UNL     1      45.741   7.450  12.916  0.00  0.00    +0.000 A 
ATOM      4  C   UNL     1      46.041   8.821  12.873  0.00  0.00    +0.000 A 
ATOM      5  C   UNL     1      45.324   9.684  12.039  0.00  0.00    +0.000 A 
ATOM      6  C   UNL     1      44.295   9.169  11.263  0.00  0.00    +0.000 A 
ATOM      7  C   UNL     1      43.987   7.808  11.330  0.00  0.00    +0.000 A 
BRANCH   6   8
ATOM      8  O   UNL     1      43.530   9.841  10.351  0.00  0.00    +0.000 OA
BRANCH   8   9
ATOM      9  C   UNL     1      42.501  10.750  10.774  0.00  0.00    +0.000 C 
ATOM     10  C   UNL     1      41.063  10.225  10.854  0.00  0.00    +0.000 C 
ATOM     11  O   UNL     1      40.593  11.203   9.897  0.00  0.00    +0.000 OA
ATOM     12  C   UNL     1      41.951  11.621   9.634  0.00  0.00    +0.000 C 
ENDBRANCH   8   9
ENDBRANCH   6   8
ENDBRANCH   1   2
BRANCH   1  13
ATOM     13  O   UNL     1      45.621   4.674  12.411  0.00  0.00    +0.000 OA
ATOM     14  H   UNL     1      46.224   5.338  12.793  0.00  0.00    +0.000 HD
ENDBRANCH   1  13
BRANCH   1  15
ATOM     15  C   UNL     1      43.984   5.045  10.626  0.00  0.00    +0.000 C 
BRANCH  15  20
ATOM     16  C   UNL     1      46.618   2.289   7.395  0.00  0.00    +0.000 A 
ATOM     17  C   UNL     1      45.895   1.357   8.136  0.00  0.00    +0.000 A 
ATOM     18  C   UNL     1      45.030   1.812   9.137  0.00  0.00    +0.000 A 
ATOM     19  C   UNL     1      44.900   3.180   9.379  0.00  0.00    +0.000 A 
ATOM     20  N   UNL     1      44.028   3.587  10.403  0.00  0.00    +0.000 N 
ATOM     21  N   UNL     1      45.573   4.087   8.645  0.00  0.00    +0.000 NA
ATOM     22  C   UNL     1      46.423   3.629   7.688  0.00  0.00    +0.000 A 
ATOM     23  H   UNL     1      44.291   3.120  11.269  0.00  0.00    +0.000 HD
BRANCH  16  25
ATOM     24  N   UNL     1      48.723   2.701   6.236  0.00  0.00    +0.000 N 
ATOM     25  C   UNL     1      47.603   1.923   6.354  0.00  0.00    +0.000 C 
ATOM     26  O   UNL     1      47.440   0.945   5.638  0.00  0.00    +0.000 OA
ATOM     27  H   UNL     1      49.422   2.380   5.577  0.00  0.00    +0.000 HD
ATOM     28  H   UNL     1      49.014   3.362   6.941  0.00  0.00    +0.000 HD
ENDBRANCH  16  25
ENDBRANCH  15  20
ENDBRANCH   1  15
BRANCH   1  29
ATOM     29  C   UNL     1      43.337   4.929  13.093  0.00  0.00    +0.000 C 
BRANCH  29  30
ATOM     30  O   UNL     1      43.480   3.530  13.379  0.00  0.00    +0.000 OA
ATOM     31  H   UNL     1      42.719   3.087  12.964  0.00  0.00    +0.000 HD
ENDBRANCH  29  30
ENDBRANCH   1  29
TORSDOF 9
ENDMDL
MODEL 6
REMARK VINA RESULT:    -7.023      2.090      2.475
REMARK INTER + INTRA:         -11.248
REMARK INTER:                 -10.316
REMARK INTRA:                  -0.932
REMARK UNBOUND:                -0.940
REMARK  Name = 
REMARK  9 active torsions:
REMARK  status: ('A' for Active; 'I' for Inactive)
REMARK    1  A    between atoms: C_2  and  C_4
REMARK    2  A    between atoms: N_8  and  C_9
REMARK    3  A    between atoms: C_9  and  C_10
REMARK    4  A    between atoms: C_10  and  O_11
REMARK    5  A    between atoms: C_10  and  C_12
REMARK    6  A    between atoms: C_10  and  C_14
REMARK    7  A    between atoms: C_12  and  O_13
REMARK    8  A    between atoms: C_18  and  O_19
REMARK    9  A    between atoms: O_19  and  C_20
REMARK                            x       y       z     vdW  Elec       q    Type
REMARK                         _______ _______ _______ _____ _____    ______ ____
ROOT
ATOM      1  C   UNL     1      44.398   5.563  12.082  0.00  0.00    +0.000 C 
ENDROOT
BRANCH   1   2
ATOM      2  C   UNL     1      44.994   6.977  12.117  0.00  0.00    +0.000 A 
ATOM      3  C   UNL     1      44.404   8.057  11.445  0.00  0.00    +0.000 A 
ATOM      4  C   UNL     1      44.917   9.357  11.577  0.00  0.00    +0.000 A 
ATOM      5  C   UNL     1      46.016   9.613  12.404  0.00  0.00    +0.000 A 
ATOM      6  C   UNL     1      46.607   8.556  13.081  0.00  0.00    +0.000 A 
ATOM      7  C   UNL     1      46.107   7.260  12.924  0.00  0.00    +0.000 A 
BRANCH   6   8
ATOM      8  O   UNL     1      47.642   8.619  13.972  0.00  0.00    +0.000 OA
BRANCH   8   9
ATOM      9  C   UNL     1      48.398   7.447  14.314  0.00  0.00    +0.000 C 
ATOM     10  C   UNL     1      48.948   7.333  15.740  0.00  0.00    +0.000 C 
ATOM     11  O   UNL     1      50.313   7.250  15.268  0.00  0.00    +0.000 OA
ATOM     12  C   UNL     1      49.881   7.540  13.920  0.00  0.00    +0.000 C 
ENDBRANCH   8   9
ENDBRANCH   6   8
ENDBRANCH   1   2
BRANCH   1  13
ATOM     13  O   UNL     1      45.354   4.623  12.629  0.00  0.00    +0.000 OA
ATOM     14  H   UNL     1      45.029   3.744  12.360  0.00  0.00    +0.000 HD
ENDBRANCH   1  13
BRANCH   1  15
ATOM     15  C   UNL     1      44.110   5.186  10.595  0.00  0.00    +0.000 C 
BRANCH  15  20
ATOM     16  C   UNL     1      46.629   2.598   7.141  0.00  0.00    +0.000 A 
ATOM     17  C   UNL     1      46.056   1.623   7.954  0.00  0.00    +0.000 A 
ATOM     18  C   UNL     1      45.257   2.023   9.030  0.00  0.00    +0.000 A 
ATOM     19  C   UNL     1      45.045   3.381   9.277  0.00  0.00    +0.000 A 
ATOM     20  N   UNL     1      44.245   3.732  10.378  0.00  0.00    +0.000 N 
ATOM     21  N   UNL     1      45.572   4.327   8.476  0.00  0.00    +0.000 NA
ATOM     22  C   UNL     1      46.359   3.924   7.444  0.00  0.00    +0.000 A 
ATOM     23  H   UNL     1      44.626   3.298  11.217  0.00  0.00    +0.000 HD
BRANCH  16  25
ATOM     24  N   UNL     1      48.883   2.399   6.233  0.00  0.00    +0.000 N 
ATOM     25  C   UNL     1      47.537   2.296   6.013  0.00  0.00    +0.000 C 
ATOM     26  O   UNL     1      47.104   1.942   4.925  0.00  0.00    +0.000 OA
ATOM     27  H   UNL     1      49.484   2.104   5.473  0.00  0.00    +0.000 HD
ATOM     28  H   UNL     1      49.290   2.455   7.155  0.00  0.00    +0.000 HD
ENDBRANCH  16  25
ENDBRANCH  15  20
ENDBRANCH   1  15
BRANCH   1  29
ATOM     29  C   UNL     1      43.107   5.402  12.934  0.00  0.00    +0.000 C 
BRANCH  29  30
ATOM     30  O   UNL     1      41.978   5.089  12.107  0.00  0.00    +0.000 OA
ATOM     31  H   UNL     1      42.231   5.326  11.198  0.00  0.00    +0.000 HD
ENDBRANCH  29  30
ENDBRANCH   1  29
TORSDOF 9
ENDMDL
MODEL 7
REMARK VINA RESULT:    -6.680      2.683      3.469
REMARK INTER + INTRA:         -10.744
REMARK INTER:                  -9.890
REMARK INTRA:                  -0.854
REMARK UNBOUND:                -0.940
REMARK  Name = 
REMARK  9 active torsions:
REMARK  status: ('A' for Active; 'I' for Inactive)
REMARK    1  A    between atoms: C_2  and  C_4
REMARK    2  A    between atoms: N_8  and  C_9
REMARK    3  A    between atoms: C_9  and  C_10
REMARK    4  A    between atoms: C_10  and  O_11
REMARK    5  A    between atoms: C_10  and  C_12
REMARK    6  A    between atoms: C_10  and  C_14
REMARK    7  A    between atoms: C_12  and  O_13
REMARK    8  A    between atoms: C_18  and  O_19
REMARK    9  A    between atoms: O_19  and  C_20
REMARK                            x       y       z     vdW  Elec       q    Type
REMARK                         _______ _______ _______ _____ _____    ______ ____
ROOT
ATOM      1  C   UNL     1      44.356   4.814  11.800  0.00  0.00    +0.000 C 
ENDROOT
BRANCH   1   2
ATOM      2  C   UNL     1      45.125   6.140  11.890  0.00  0.00    +0.000 A 
ATOM      3  C   UNL     1      44.479   7.371  12.081  0.00  0.00    +0.000 A 
ATOM      4  C   UNL     1      45.216   8.553  12.259  0.00  0.00    +0.000 A 
ATOM      5  C   UNL     1      46.614   8.529  12.274  0.00  0.00    +0.000 A 
ATOM      6  C   UNL     1      47.268   7.319  12.093  0.00  0.00    +0.000 A 
ATOM      7  C   UNL     1      46.528   6.151  11.890  0.00  0.00    +0.000 A 
BRANCH   6   8
ATOM      8  O   UNL     1      48.615   7.092  12.136  0.00  0.00    +0.000 OA
BRANCH   8   9
ATOM      9  C   UNL     1      49.552   8.177  12.053  0.00  0.00    +0.000 C 
ATOM     10  C   UNL     1      50.902   7.915  11.375  0.00  0.00    +0.000 C 
ATOM     11  O   UNL     1      51.635   8.266  12.572  0.00  0.00    +0.000 OA
ATOM     12  C   UNL     1      50.402   8.348  13.321  0.00  0.00    +0.000 C 
ENDBRANCH   8   9
ENDBRANCH   6   8
ENDBRANCH   1   2
BRANCH   1  13
ATOM     13  O   UNL     1      45.264   3.713  12.042  0.00  0.00    +0.000 OA
ATOM     14  H   UNL     1      45.355   3.266  11.181  0.00  0.00    +0.000 HD
ENDBRANCH   1  13
BRANCH   1  15
ATOM     15  C   UNL     1      43.770   4.681  10.359  0.00  0.00    +0.000 C 
BRANCH  15  20
ATOM     16  C   UNL     1      46.736   2.045   7.322  0.00  0.00    +0.000 A 
ATOM     17  C   UNL     1      46.993   3.372   6.990  0.00  0.00    +0.000 A 
ATOM     18  C   UNL     1      46.321   4.386   7.681  0.00  0.00    +0.000 A 
ATOM     19  C   UNL     1      45.409   4.060   8.686  0.00  0.00    +0.000 A 
ATOM     20  N   UNL     1      44.750   5.113   9.343  0.00  0.00    +0.000 N 
ATOM     21  N   UNL     1      45.180   2.779   9.033  0.00  0.00    +0.000 NA
ATOM     22  C   UNL     1      45.828   1.804   8.341  0.00  0.00    +0.000 A 
ATOM     23  H   UNL     1      44.285   5.697   8.651  0.00  0.00    +0.000 HD
BRANCH  16  25
ATOM     24  N   UNL     1      46.972  -0.363   7.023  0.00  0.00    +0.000 N 
ATOM     25  C   UNL     1      47.343   0.891   6.622  0.00  0.00    +0.000 C 
ATOM     26  O   UNL     1      48.131   1.049   5.700  0.00  0.00    +0.000 OA
ATOM     27  H   UNL     1      47.333  -1.133   6.472  0.00  0.00    +0.000 HD
ATOM     28  H   UNL     1      46.166  -0.544   7.604  0.00  0.00    +0.000 HD
ENDBRANCH  16  25
ENDBRANCH  15  20
ENDBRANCH   1  15
BRANCH   1  29
ATOM     29  C   UNL     1      43.222   4.671  12.853  0.00  0.00    +0.000 C 
BRANCH  29  30
ATOM     30  O   UNL     1      43.493   3.593  13.761  0.00  0.00    +0.000 OA
ATOM     31  H   UNL     1      44.439   3.653  13.981  0.00  0.00    +0.000 HD
ENDBRANCH  29  30
ENDBRANCH   1  29
TORSDOF 9
ENDMDL
MODEL 8
REMARK VINA RESULT:    -6.511      3.654      6.517
REMARK INTER + INTRA:         -10.497
REMARK INTER:                  -9.796
REMARK INTRA:                  -0.701
REMARK UNBOUND:                -0.940
REMARK  Name = 
REMARK  9 active torsions:
REMARK  status: ('A' for Active; 'I' for Inactive)
REMARK    1  A    between atoms: C_2  and  C_4
REMARK    2  A    between atoms: N_8  and  C_9
REMARK    3  A    between atoms: C_9  and  C_10
REMARK    4  A    between atoms: C_10  and  O_11
REMARK    5  A    between atoms: C_10  and  C_12
REMARK    6  A    between atoms: C_10  and  C_14
REMARK    7  A    between atoms: C_12  and  O_13
REMARK    8  A    between atoms: C_18  and  O_19
REMARK    9  A    between atoms: O_19  and  C_20
REMARK                            x       y       z     vdW  Elec       q    Type
REMARK                         _______ _______ _______ _____ _____    ______ ____
ROOT
ATOM      1  C   UNL     1      47.861   3.739  17.356  0.00  0.00    +0.000 C 
ENDROOT
BRANCH   1   2
ATOM      2  C   UNL     1      49.319   3.297  17.548  0.00  0.00    +0.000 A 
ATOM      3  C   UNL     1      49.773   2.025  17.172  0.00  0.00    +0.000 A 
ATOM      4  C   UNL     1      51.132   1.686  17.269  0.00  0.00    +0.000 A 
ATOM      5  C   UNL     1      52.072   2.617  17.721  0.00  0.00    +0.000 A 
ATOM      6  C   UNL     1      51.639   3.883  18.091  0.00  0.00    +0.000 A 
ATOM      7  C   UNL     1      50.282   4.205  18.017  0.00  0.00    +0.000 A 
BRANCH   6   8
ATOM      8  O   UNL     1      52.412   4.935  18.497  0.00  0.00    +0.000 OA
BRANCH   8   9
ATOM      9  C   UNL     1      53.572   5.334  17.750  0.00  0.00    +0.000 C 
ATOM     10  C   UNL     1      54.362   6.553  18.239  0.00  0.00    +0.000 C 
ATOM     11  O   UNL     1      54.153   7.259  16.994  0.00  0.00    +0.000 OA
ATOM     12  C   UNL     1      53.245   6.228  16.545  0.00  0.00    +0.000 C 
ENDBRANCH   8   9
ENDBRANCH   6   8
ENDBRANCH   1   2
BRANCH   1  13
ATOM     13  O   UNL     1      46.997   2.922  18.182  0.00  0.00    +0.000 OA
ATOM     14  H   UNL     1      47.496   2.778  19.006  0.00  0.00    +0.000 HD
ENDBRANCH   1  13
BRANCH   1  15
ATOM     15  C   UNL     1      47.477   3.530  15.857  0.00  0.00    +0.000 C 
BRANCH  15  20
ATOM     16  C   UNL     1      45.107   4.591  11.587  0.00  0.00    +0.000 A 
ATOM     17  C   UNL     1      45.467   5.834  12.101  0.00  0.00    +0.000 A 
ATOM     18  C   UNL     1      46.173   5.889  13.307  0.00  0.00    +0.000 A 
ATOM     19  C   UNL     1      46.506   4.711  13.977  0.00  0.00    +0.000 A 
ATOM     20  N   UNL     1      47.205   4.819  15.192  0.00  0.00    +0.000 N 
ATOM     21  N   UNL     1      46.188   3.505  13.469  0.00  0.00    +0.000 NA
ATOM     22  C   UNL     1      45.487   3.467  12.305  0.00  0.00    +0.000 A 
ATOM     23  H   UNL     1      46.681   5.423  15.823  0.00  0.00    +0.000 HD
BRANCH  16  25
ATOM     24  N   UNL     1      44.831   4.900   9.185  0.00  0.00    +0.000 N 
ATOM     25  C   UNL     1      44.311   4.413  10.353  0.00  0.00    +0.000 C 
ATOM     26  O   UNL     1      43.237   3.830  10.367  0.00  0.00    +0.000 OA
ATOM     27  H   UNL     1      44.309   4.690   8.342  0.00  0.00    +0.000 HD
ATOM     28  H   UNL     1      45.797   5.172   9.079  0.00  0.00    +0.000 HD
ENDBRANCH  16  25
ENDBRANCH  15  20
ENDBRANCH   1  15
BRANCH   1  29
ATOM     29  C   UNL     1      47.588   5.210  17.777  0.00  0.00    +0.000 C 
BRANCH  29  30
ATOM     30  O   UNL     1      46.410   5.305  18.591  0.00  0.00    +0.000 OA
ATOM     31  H   UNL     1      45.874   6.024  18.213  0.00  0.00    +0.000 HD
ENDBRANCH  29  30
ENDBRANCH   1  29
TORSDOF 9
ENDMDL
MODEL 9
REMARK VINA RESULT:    -6.504      3.291      7.400
REMARK INTER + INTRA:         -10.486
REMARK INTER:                 -10.439
REMARK INTRA:                  -0.047
REMARK UNBOUND:                -0.940
REMARK  Name = 
REMARK  9 active torsions:
REMARK  status: ('A' for Active; 'I' for Inactive)
REMARK    1  A    between atoms: C_2  and  C_4
REMARK    2  A    between atoms: N_8  and  C_9
REMARK    3  A    between atoms: C_9  and  C_10
REMARK    4  A    between atoms: C_10  and  O_11
REMARK    5  A    between atoms: C_10  and  C_12
REMARK    6  A    between atoms: C_10  and  C_14
REMARK    7  A    between atoms: C_12  and  O_13
REMARK    8  A    between atoms: C_18  and  O_19
REMARK    9  A    between atoms: O_19  and  C_20
REMARK                            x       y       z     vdW  Elec       q    Type
REMARK                         _______ _______ _______ _____ _____    ______ ____
ROOT
ATOM      1  C   UNL     1      44.018   5.598  11.489  0.00  0.00    +0.000 C 
ENDROOT
BRANCH   1   2
ATOM      2  C   UNL     1      44.369   4.405  10.587  0.00  0.00    +0.000 A 
ATOM      3  C   UNL     1      43.965   3.096  10.884  0.00  0.00    +0.000 A 
ATOM      4  C   UNL     1      44.215   2.043   9.990  0.00  0.00    +0.000 A 
ATOM      5  C   UNL     1      44.853   2.278   8.767  0.00  0.00    +0.000 A 
ATOM      6  C   UNL     1      45.253   3.569   8.456  0.00  0.00    +0.000 A 
ATOM      7  C   UNL     1      45.024   4.607   9.363  0.00  0.00    +0.000 A 
BRANCH   6   8
ATOM      8  O   UNL     1      45.832   3.998   7.295  0.00  0.00    +0.000 OA
BRANCH   8   9
ATOM      9  C   UNL     1      47.046   3.404   6.807  0.00  0.00    +0.000 C 
ATOM     10  C   UNL     1      47.024   2.752   5.420  0.00  0.00    +0.000 C 
ATOM     11  O   UNL     1      47.406   1.464   5.956  0.00  0.00    +0.000 OA
ATOM     12  C   UNL     1      47.263   1.966   7.304  0.00  0.00    +0.000 C 
ENDBRANCH   8   9
ENDBRANCH   6   8
ENDBRANCH   1   2
BRANCH   1  13
ATOM     13  O   UNL     1      44.133   6.825  10.730  0.00  0.00    +0.000 OA
ATOM     14  H   UNL     1      43.253   6.963  10.335  0.00  0.00    +0.000 HD
ENDBRANCH   1  13
BRANCH   1  15
ATOM     15  C   UNL     1      45.035   5.636  12.673  0.00  0.00    +0.000 C 
BRANCH  15  20
ATOM     16  C   UNL     1      47.956   9.662  12.186  0.00  0.00    +0.000 A 
ATOM     17  C   UNL     1      48.758   8.601  11.774  0.00  0.00    +0.000 A 
ATOM     18  C   UNL     1      48.224   7.308  11.776  0.00  0.00    +0.000 A 
ATOM     19  C   UNL     1      46.907   7.096  12.186  0.00  0.00    +0.000 A 
ATOM     20  N   UNL     1      46.420   5.778  12.182  0.00  0.00    +0.000 N 
ATOM     21  N   UNL     1      46.117   8.122  12.556  0.00  0.00    +0.000 NA
ATOM     22  C   UNL     1      46.654   9.371  12.565  0.00  0.00    +0.000 A 
ATOM     23  H   UNL     1      47.039   5.193  12.740  0.00  0.00    +0.000 HD
BRANCH  16  25
ATOM     24  N   UNL     1      47.932  11.833  13.295  0.00  0.00    +0.000 N 
ATOM     25  C   UNL     1      48.430  11.060  12.281  0.00  0.00    +0.000 C 
ATOM     26  O   UNL     1      49.255  11.507  11.498  0.00  0.00    +0.000 OA
ATOM     27  H   UNL     1      48.336  12.757  13.391  0.00  0.00    +0.000 HD
ATOM     28  H   UNL     1      47.441  11.453  14.091  0.00  0.00    +0.000 HD
ENDBRANCH  16  25
ENDBRANCH  15  20
ENDBRANCH   1  15
BRANCH   1  29
ATOM     29  C   UNL     1      42.564   5.568  12.035  0.00  0.00    +0.000 C 
BRANCH  29  30
ATOM     30  O   UNL     1      42.550   5.415  13.461  0.00  0.00    +0.000 OA
ATOM     31  H   UNL     1      42.923   4.535  13.645  0.00  0.00    +0.000 HD
ENDBRANCH  29  30
ENDBRANCH   1  29
TORSDOF 9
ENDMDL
