MODEL 1
REMARK VINA RESULT:    -7.992      0.000      0.000
REMARK INTER + INTRA:         -12.622
REMARK INTER:                 -11.496
REMARK INTRA:                  -1.125
REMARK UNBOUND:                -1.125
REMARK  Name = 
REMARK  9 active torsions:
REMARK  status: ('A' for Active; 'I' for Inactive)
REMARK    1  A    between atoms: C_1  and  C_2
REMARK    2  A    between atoms: C_6  and  C_7
REMARK    3  A    between atoms: C_7  and  N_8
REMARK    4  A    between atoms: N_8  and  C_9
REMARK    5  A    between atoms: C_9  and  C_10
REMARK    6  A    between atoms: C_13  and  C_14
REMARK    7  A    between atoms: C_14  and  N_15
REMARK    8  A    between atoms: C_16  and  C_18
REMARK    9  A    between atoms: C_25  and  O_26
REMARK                            x       y       z     vdW  Elec       q    Type
REMARK                         _______ _______ _______ _____ _____    ______ ____
ROOT
ATOM      1  C   UNL     1      44.779   5.506  12.077  0.00  0.00    +0.000 A 
ATOM      2  C   UNL     1      45.083   4.796  13.247  0.00  0.00    +0.000 A 
ATOM      3  C   UNL     1      46.277   5.031  13.934  0.00  0.00    +0.000 A 
ATOM      4  C   UNL     1      47.190   5.986  13.468  0.00  0.00    +0.000 A 
ATOM      5  C   UNL     1      46.910   6.660  12.272  0.00  0.00    +0.000 A 
ATOM      6  C   UNL     1      45.715   6.426  11.586  0.00  0.00    +0.000 A 
ENDROOT
BRANCH   1   7
ATOM      7  C   UNL     1      43.454   5.306  11.377  0.00  0.00    +0.000 C 
BRANCH   7   8
ATOM      8  N   UNL     1      43.592   4.763  10.024  0.00  0.00    +0.000 NA
ATOM      9  H   UNL     1      42.682   4.789   9.563  0.00  0.00    +0.000 HD
BRANCH   8  10
ATOM     10  C   UNL     1      44.018   3.355  10.036  0.00  0.00    +0.000 C 
BRANCH  10  16
ATOM     11  C   UNL     1      46.795   0.126   7.657  0.00  0.00    +0.000 C 
ATOM     12  C   UNL     1      46.410   1.561   7.856  0.00  0.00    +0.000 A 
ATOM     13  C   UNL     1      47.017   2.573   7.119  0.00  0.00    +0.000 A 
ATOM     14  C   UNL     1      46.629   3.889   7.343  0.00  0.00    +0.000 A 
ATOM     15  C   UNL     1      45.654   4.159   8.296  0.00  0.00    +0.000 A 
ATOM     16  C   UNL     1      45.099   3.098   9.005  0.00  0.00    +0.000 A 
ATOM     17  N   UNL     1      45.457   1.806   8.787  0.00  0.00    +0.000 NA
ENDBRANCH  10  16
ENDBRANCH   8  10
ENDBRANCH   7   8
ENDBRANCH   1   7
BRANCH   4  18
ATOM     18  C   UNL     1      48.467   6.262  14.220  0.00  0.00    +0.000 C 
BRANCH  18  19
ATOM     19  N   UNL     1      48.189   6.633  15.581  0.00  0.00    +0.000 N 
ATOM     20  C   UNL     1      48.672   5.916  16.644  0.00  0.00    +0.000 C 
ATOM     21  O   UNL     1      49.248   4.839  16.504  0.00  0.00    +0.000 OA
ATOM     22  H   UNL     1      47.882   7.586  15.734  0.00  0.00    +0.000 HD
BRANCH  20  23
ATOM     23  C   UNL     1      48.422   6.490  17.971  0.00  0.00    +0.000 A 
ATOM     24  C   UNL     1      48.090   7.832  18.099  0.00  0.00    +0.000 A 
ATOM     25  S   UNL     1      47.856   8.320  19.716  0.00  0.00    +0.000 S 
ATOM     26  C   UNL     1      48.149   6.747  20.287  0.00  0.00    +0.000 A 
ATOM     27  N   UNL     1      48.082   6.478  21.604  0.00  0.00    +0.000 NA
ATOM     28  C   UNL     1      48.332   5.196  21.884  0.00  0.00    +0.000 A 
ATOM     29  N   UNL     1      48.628   4.217  21.020  0.00  0.00    +0.000 NA
ATOM     30  C   UNL     1      48.679   4.551  19.730  0.00  0.00    +0.000 A 
ATOM     31  C   UNL     1      48.445   5.847  19.272  0.00  0.00    +0.000 A 
BRANCH  30  32
ATOM     32  O   UNL     1      49.003   3.514  18.910  0.00  0.00    +0.000 OA
ATOM     33  H   UNL     1      49.185   3.985  18.075  0.00  0.00    +0.000 HD
ENDBRANCH  30  32
ENDBRANCH  20  23
ENDBRANCH  18  19
ENDBRANCH   4  18
TORSDOF 8
ENDMDL
MODEL 2
REMARK VINA RESULT:    -7.964      2.106      2.411
REMARK INTER + INTRA:         -12.581
REMARK INTER:                 -11.570
REMARK INTRA:                  -1.011
REMARK UNBOUND:                -1.125
REMARK  Name = 
REMARK  9 active torsions:
REMARK  status: ('A' for Active; 'I' for Inactive)
REMARK    1  A    between atoms: C_1  and  C_2
REMARK    2  A    between atoms: C_6  and  C_7
REMARK    3  A    between atoms: C_7  and  N_8
REMARK    4  A    between atoms: N_8  and  C_9
REMARK    5  A    between atoms: C_9  and  C_10
REMARK    6  A    between atoms: C_13  and  C_14
REMARK    7  A    between atoms: C_14  and  N_15
REMARK    8  A    between atoms: C_16  and  C_18
REMARK    9  A    between atoms: C_25  and  O_26
REMARK                            x       y       z     vdW  Elec       q    Type
REMARK                         _______ _______ _______ _____ _____    ______ ____
ROOT
ATOM      1  C   UNL     1      44.713   6.047  11.471  0.00  0.00    +0.000 A 
ATOM      2  C   UNL     1      45.712   5.204  11.980  0.00  0.00    +0.000 A 
ATOM      3  C   UNL     1      46.900   5.735  12.491  0.00  0.00    +0.000 A 
ATOM      4  C   UNL     1      47.111   7.120  12.509  0.00  0.00    +0.000 A 
ATOM      5  C   UNL     1      46.134   7.958  11.955  0.00  0.00    +0.000 A 
ATOM      6  C   UNL     1      44.945   7.428  11.446  0.00  0.00    +0.000 A 
ENDROOT
BRANCH   1   7
ATOM      7  C   UNL     1      43.397   5.478  10.990  0.00  0.00    +0.000 C 
BRANCH   7   8
ATOM      8  N   UNL     1      43.504   4.788   9.703  0.00  0.00    +0.000 NA
ATOM      9  H   UNL     1      42.574   4.719   9.287  0.00  0.00    +0.000 HD
BRANCH   8  10
ATOM     10  C   UNL     1      43.999   3.411   9.855  0.00  0.00    +0.000 C 
BRANCH  10  16
ATOM     11  C   UNL     1      46.848   0.107   7.671  0.00  0.00    +0.000 C 
ATOM     12  C   UNL     1      46.476   1.550   7.830  0.00  0.00    +0.000 A 
ATOM     13  C   UNL     1      47.137   2.542   7.113  0.00  0.00    +0.000 A 
ATOM     14  C   UNL     1      46.759   3.867   7.298  0.00  0.00    +0.000 A 
ATOM     15  C   UNL     1      45.739   4.166   8.194  0.00  0.00    +0.000 A 
ATOM     16  C   UNL     1      45.129   3.123   8.887  0.00  0.00    +0.000 A 
ATOM     17  N   UNL     1      45.478   1.823   8.705  0.00  0.00    +0.000 NA
ENDBRANCH  10  16
ENDBRANCH   8  10
ENDBRANCH   7   8
ENDBRANCH   1   7
BRANCH   4  18
ATOM     18  C   UNL     1      48.379   7.698  13.082  0.00  0.00    +0.000 C 
BRANCH  18  19
ATOM     19  N   UNL     1      48.851   6.903  14.184  0.00  0.00    +0.000 N 
ATOM     20  C   UNL     1      48.772   7.337  15.481  0.00  0.00    +0.000 C 
ATOM     21  O   UNL     1      48.428   8.481  15.772  0.00  0.00    +0.000 OA
ATOM     22  H   UNL     1      48.970   5.913  14.006  0.00  0.00    +0.000 HD
BRANCH  20  23
ATOM     23  C   UNL     1      49.167   6.365  16.507  0.00  0.00    +0.000 A 
ATOM     24  C   UNL     1      50.294   6.592  17.285  0.00  0.00    +0.000 A 
ATOM     25  S   UNL     1      50.602   5.346  18.407  0.00  0.00    +0.000 S 
ATOM     26  C   UNL     1      49.220   4.490  17.916  0.00  0.00    +0.000 A 
ATOM     27  N   UNL     1      48.895   3.326  18.507  0.00  0.00    +0.000 NA
ATOM     28  C   UNL     1      47.779   2.787  18.009  0.00  0.00    +0.000 A 
ATOM     29  N   UNL     1      47.006   3.273  17.031  0.00  0.00    +0.000 NA
ATOM     30  C   UNL     1      47.385   4.431  16.488  0.00  0.00    +0.000 A 
ATOM     31  C   UNL     1      48.526   5.121  16.892  0.00  0.00    +0.000 A 
BRANCH  30  32
ATOM     32  O   UNL     1      46.565   4.858  15.488  0.00  0.00    +0.000 OA
ATOM     33  H   UNL     1      45.991   4.078  15.371  0.00  0.00    +0.000 HD
ENDBRANCH  30  32
ENDBRANCH  20  23
ENDBRANCH  18  19
ENDBRANCH   4  18
TORSDOF 8
ENDMDL
MODEL 3
REMARK VINA RESULT:    -7.834      1.444      2.310
REMARK INTER + INTRA:         -12.394
REMARK INTER:                 -11.329
REMARK INTRA:                  -1.065
REMARK UNBOUND:                -1.125
REMARK  Name = 
REMARK  9 active torsions:
REMARK  status: ('A' for Active; 'I' for Inactive)
REMARK    1  A    between atoms: C_1  and  C_2
REMARK    2  A    between atoms: C_6  and  C_7
REMARK    3  A    between atoms: C_7  and  N_8
REMARK    4  A    between atoms: N_8  and  C_9
REMARK    5  A    between atoms: C_9  and  C_10
REMARK    6  A    between atoms: C_13  and  C_14
REMARK    7  A    between atoms: C_14  and  N_15
REMARK    8  A    between atoms: C_16  and  C_18
REMARK    9  A    between atoms: C_25  and  O_26
REMARK                            x       y       z     vdW  Elec       q    Type
REMARK                         _______ _______ _______ _____ _____    ______ ____
ROOT
ATOM      1  C   UNL     1      44.525   5.587  11.876  0.00  0.00    +0.000 A 
ATOM      2  C   UNL     1      45.361   6.646  11.494  0.00  0.00    +0.000 A 
ATOM      3  C   UNL     1      46.540   6.912  12.194  0.00  0.00    +0.000 A 
ATOM      4  C   UNL     1      46.912   6.121  13.289  0.00  0.00    +0.000 A 
ATOM      5  C   UNL     1      46.051   5.095  13.703  0.00  0.00    +0.000 A 
ATOM      6  C   UNL     1      44.872   4.828  13.001  0.00  0.00    +0.000 A 
ENDROOT
BRANCH   1   7
ATOM      7  C   UNL     1      43.289   5.252  11.072  0.00  0.00    +0.000 C 
BRANCH   7   8
ATOM      8  N   UNL     1      43.592   4.658   9.769  0.00  0.00    +0.000 NA
ATOM      9  H   UNL     1      42.732   4.603   9.223  0.00  0.00    +0.000 HD
BRANCH   8  10
ATOM     10  C   UNL     1      44.101   3.283   9.894  0.00  0.00    +0.000 C 
BRANCH  10  16
ATOM     11  C   UNL     1      46.892  -0.004   7.614  0.00  0.00    +0.000 C 
ATOM     12  C   UNL     1      46.494   1.433   7.763  0.00  0.00    +0.000 A 
ATOM     13  C   UNL     1      47.086   2.423   6.984  0.00  0.00    +0.000 A 
ATOM     14  C   UNL     1      46.687   3.742   7.163  0.00  0.00    +0.000 A 
ATOM     15  C   UNL     1      45.717   4.038   8.113  0.00  0.00    +0.000 A 
ATOM     16  C   UNL     1      45.176   2.999   8.865  0.00  0.00    +0.000 A 
ATOM     17  N   UNL     1      45.545   1.703   8.692  0.00  0.00    +0.000 NA
ENDBRANCH  10  16
ENDBRANCH   8  10
ENDBRANCH   7   8
ENDBRANCH   1   7
BRANCH   4  18
ATOM     18  C   UNL     1      48.195   6.389  14.032  0.00  0.00    +0.000 C 
BRANCH  18  19
ATOM     19  N   UNL     1      47.990   6.307  15.454  0.00  0.00    +0.000 N 
ATOM     20  C   UNL     1      49.033   6.192  16.334  0.00  0.00    +0.000 C 
ATOM     21  O   UNL     1      50.190   6.009  15.963  0.00  0.00    +0.000 OA
ATOM     22  H   UNL     1      47.093   6.628  15.799  0.00  0.00    +0.000 HD
BRANCH  20  23
ATOM     23  C   UNL     1      48.681   6.257  17.757  0.00  0.00    +0.000 A 
ATOM     24  C   UNL     1      48.887   5.157  18.578  0.00  0.00    +0.000 A 
ATOM     25  S   UNL     1      48.400   5.414  20.191  0.00  0.00    +0.000 S 
ATOM     26  C   UNL     1      47.940   7.013  19.851  0.00  0.00    +0.000 A 
ATOM     27  N   UNL     1      47.451   7.802  20.826  0.00  0.00    +0.000 NA
ATOM     28  C   UNL     1      47.144   9.028  20.393  0.00  0.00    +0.000 A 
ATOM     29  N   UNL     1      47.270   9.509  19.150  0.00  0.00    +0.000 NA
ATOM     30  C   UNL     1      47.761   8.675  18.233  0.00  0.00    +0.000 A 
ATOM     31  C   UNL     1      48.128   7.362  18.520  0.00  0.00    +0.000 A 
BRANCH  30  32
ATOM     32  O   UNL     1      47.845   9.222  16.988  0.00  0.00    +0.000 OA
ATOM     33  H   UNL     1      46.912   9.184  16.705  0.00  0.00    +0.000 HD
ENDBRANCH  30  32
ENDBRANCH  20  23
ENDBRANCH  18  19
ENDBRANCH   4  18
TORSDOF 8
ENDMDL
MODEL 4
REMARK VINA RESULT:    -7.175      2.382      2.920
REMARK INTER + INTRA:         -11.446
REMARK INTER:                 -10.230
REMARK INTRA:                  -1.217
REMARK UNBOUND:                -1.125
REMARK  Name = 
REMARK  9 active torsions:
REMARK  status: ('A' for Active; 'I' for Inactive)
REMARK    1  A    between atoms: C_1  and  C_2
REMARK    2  A    between atoms: C_6  and  C_7
REMARK    3  A    between atoms: C_7  and  N_8
REMARK    4  A    between atoms: N_8  and  C_9
REMARK    5  A    between atoms: C_9  and  C_10
REMARK    6  A    between atoms: C_13  and  C_14
REMARK    7  A    between atoms: C_14  and  N_15
REMARK    8  A    between atoms: C_16  and  C_18
REMARK    9  A    between atoms: C_25  and  O_26
REMARK                            x       y       z     vdW  Elec       q    Type
REMARK                         _______ _______ _______ _____ _____    ______ ____
ROOT
ATOM      1  C   UNL     1      45.079   5.113  12.879  0.00  0.00    +0.000 A 
ATOM      2  C   UNL     1      44.757   6.475  12.787  0.00  0.00    +0.000 A 
ATOM      3  C   UNL     1      45.758   7.449  12.830  0.00  0.00    +0.000 A 
ATOM      4  C   UNL     1      47.104   7.081  12.962  0.00  0.00    +0.000 A 
ATOM      5  C   UNL     1      47.421   5.724  13.105  0.00  0.00    +0.000 A 
ATOM      6  C   UNL     1      46.420   4.749  13.059  0.00  0.00    +0.000 A 
ENDROOT
BRANCH   1   7
ATOM      7  C   UNL     1      44.004   4.057  12.755  0.00  0.00    +0.000 C 
BRANCH   7   8
ATOM      8  N   UNL     1      44.444   2.871  12.019  0.00  0.00    +0.000 NA
ATOM      9  H   UNL     1      45.447   2.942  11.845  0.00  0.00    +0.000 HD
BRANCH   8  10
ATOM     10  C   UNL     1      43.796   2.767  10.702  0.00  0.00    +0.000 C 
BRANCH  10  16
ATOM     11  C   UNL     1      46.901   0.827   7.478  0.00  0.00    +0.000 C 
ATOM     12  C   UNL     1      46.257   2.063   8.030  0.00  0.00    +0.000 A 
ATOM     13  C   UNL     1      46.566   3.319   7.517  0.00  0.00    +0.000 A 
ATOM     14  C   UNL     1      45.947   4.436   8.066  0.00  0.00    +0.000 A 
ATOM     15  C   UNL     1      45.044   4.271   9.109  0.00  0.00    +0.000 A 
ATOM     16  C   UNL     1      44.792   2.985   9.580  0.00  0.00    +0.000 A 
ATOM     17  N   UNL     1      45.378   1.883   9.045  0.00  0.00    +0.000 NA
ENDBRANCH  10  16
ENDBRANCH   8  10
ENDBRANCH   7   8
ENDBRANCH   1   7
BRANCH   4  18
ATOM     18  C   UNL     1      48.189   8.127  12.984  0.00  0.00    +0.000 C 
BRANCH  18  19
ATOM     19  N   UNL     1      49.328   7.666  13.732  0.00  0.00    +0.000 N 
ATOM     20  C   UNL     1      49.369   7.719  15.100  0.00  0.00    +0.000 C 
ATOM     21  O   UNL     1      48.505   8.289  15.763  0.00  0.00    +0.000 OA
ATOM     22  H   UNL     1      49.962   7.042  13.248  0.00  0.00    +0.000 HD
BRANCH  20  23
ATOM     23  C   UNL     1      50.535   7.089  15.731  0.00  0.00    +0.000 A 
ATOM     24  C   UNL     1      51.815   7.529  15.427  0.00  0.00    +0.000 A 
ATOM     25  S   UNL     1      53.039   6.666  16.241  0.00  0.00    +0.000 S 
ATOM     26  C   UNL     1      51.895   5.709  17.054  0.00  0.00    +0.000 A 
ATOM     27  N   UNL     1      52.294   4.771  17.932  0.00  0.00    +0.000 NA
ATOM     28  C   UNL     1      51.272   4.114  18.487  0.00  0.00    +0.000 A 
ATOM     29  N   UNL     1      49.966   4.295  18.256  0.00  0.00    +0.000 NA
ATOM     30  C   UNL     1      49.639   5.241  17.375  0.00  0.00    +0.000 A 
ATOM     31  C   UNL     1      50.586   6.015  16.706  0.00  0.00    +0.000 A 
BRANCH  30  32
ATOM     32  O   UNL     1      48.298   5.359  17.174  0.00  0.00    +0.000 OA
ATOM     33  H   UNL     1      47.968   5.325  18.092  0.00  0.00    +0.000 HD
ENDBRANCH  30  32
ENDBRANCH  20  23
ENDBRANCH  18  19
ENDBRANCH   4  18
TORSDOF 8
ENDMDL
MODEL 5
REMARK VINA RESULT:    -7.165      3.526      8.933
REMARK INTER + INTRA:         -11.432
REMARK INTER:                  -9.777
REMARK INTRA:                  -1.655
REMARK UNBOUND:                -1.125
REMARK  Name = 
REMARK  9 active torsions:
REMARK  status: ('A' for Active; 'I' for Inactive)
REMARK    1  A    between atoms: C_1  and  C_2
REMARK    2  A    between atoms: C_6  and  C_7
REMARK    3  A    between atoms: C_7  and  N_8
REMARK    4  A    between atoms: N_8  and  C_9
REMARK    5  A    between atoms: C_9  and  C_10
REMARK    6  A    between atoms: C_13  and  C_14
REMARK    7  A    between atoms: C_14  and  N_15
REMARK    8  A    between atoms: C_16  and  C_18
REMARK    9  A    between atoms: C_25  and  O_26
REMARK                            x       y       z     vdW  Elec       q    Type
REMARK                         _______ _______ _______ _____ _____    ______ ____
ROOT
ATOM      1  C   UNL     1      49.831   8.271  15.435  0.00  0.00    +0.000 A 
ATOM      2  C   UNL     1      48.487   8.669  15.396  0.00  0.00    +0.000 A 
ATOM      3  C   UNL     1      47.752   8.584  14.210  0.00  0.00    +0.000 A 
ATOM      4  C   UNL     1      48.346   8.094  13.039  0.00  0.00    +0.000 A 
ATOM      5  C   UNL     1      49.702   7.744  13.066  0.00  0.00    +0.000 A 
ATOM      6  C   UNL     1      50.437   7.827  14.252  0.00  0.00    +0.000 A 
ENDROOT
BRANCH   1   7
ATOM      7  C   UNL     1      50.603   8.291  16.735  0.00  0.00    +0.000 C 
BRANCH   7   8
ATOM      8  N   UNL     1      50.025   7.422  17.762  0.00  0.00    +0.000 NA
ATOM      9  H   UNL     1      50.285   7.780  18.682  0.00  0.00    +0.000 HD
BRANCH   8  10
ATOM     10  C   UNL     1      50.550   6.050  17.682  0.00  0.00    +0.000 C 
BRANCH  10  16
ATOM     11  C   UNL     1      46.931   4.422  14.845  0.00  0.00    +0.000 C 
ATOM     12  C   UNL     1      47.722   4.256  16.107  0.00  0.00    +0.000 A 
ATOM     13  C   UNL     1      47.435   3.230  17.000  0.00  0.00    +0.000 A 
ATOM     14  C   UNL     1      48.194   3.120  18.160  0.00  0.00    +0.000 A 
ATOM     15  C   UNL     1      49.212   4.037  18.397  0.00  0.00    +0.000 A 
ATOM     16  C   UNL     1      49.435   5.047  17.465  0.00  0.00    +0.000 A 
ATOM     17  N   UNL     1      48.711   5.158  16.321  0.00  0.00    +0.000 NA
ENDBRANCH  10  16
ENDBRANCH   8  10
ENDBRANCH   7   8
ENDBRANCH   1   7
BRANCH   4  18
ATOM     18  C   UNL     1      47.551   7.977  11.764  0.00  0.00    +0.000 C 
BRANCH  18  19
ATOM     19  N   UNL     1      46.849   6.722  11.713  0.00  0.00    +0.000 N 
ATOM     20  C   UNL     1      45.500   6.634  11.940  0.00  0.00    +0.000 C 
ATOM     21  O   UNL     1      44.836   7.588  12.338  0.00  0.00    +0.000 OA
ATOM     22  H   UNL     1      47.312   5.966  11.225  0.00  0.00    +0.000 HD
BRANCH  20  23
ATOM     23  C   UNL     1      44.899   5.313  11.721  0.00  0.00    +0.000 A 
ATOM     24  C   UNL     1      44.197   4.688  12.742  0.00  0.00    +0.000 A 
ATOM     25  S   UNL     1      43.589   3.156  12.307  0.00  0.00    +0.000 S 
ATOM     26  C   UNL     1      44.209   3.300  10.732  0.00  0.00    +0.000 A 
ATOM     27  N   UNL     1      44.014   2.319   9.832  0.00  0.00    +0.000 NA
ATOM     28  C   UNL     1      44.559   2.592   8.643  0.00  0.00    +0.000 A 
ATOM     29  N   UNL     1      45.243   3.689   8.293  0.00  0.00    +0.000 NA
ATOM     30  C   UNL     1      45.400   4.622   9.233  0.00  0.00    +0.000 A 
ATOM     31  C   UNL     1      44.895   4.490  10.525  0.00  0.00    +0.000 A 
BRANCH  30  32
ATOM     32  O   UNL     1      46.120   5.700   8.816  0.00  0.00    +0.000 OA
ATOM     33  H   UNL     1      46.868   5.262   8.368  0.00  0.00    +0.000 HD
ENDBRANCH  30  32
ENDBRANCH  20  23
ENDBRANCH  18  19
ENDBRANCH   4  18
TORSDOF 8
ENDMDL
MODEL 6
REMARK VINA RESULT:    -7.067      2.530      3.392
REMARK INTER + INTRA:         -11.291
REMARK INTER:                  -9.892
REMARK INTRA:                  -1.399
REMARK UNBOUND:                -1.125
REMARK  Name = 
REMARK  9 active torsions:
REMARK  status: ('A' for Active; 'I' for Inactive)
REMARK    1  A    between atoms: C_1  and  C_2
REMARK    2  A    between atoms: C_6  and  C_7
REMARK    3  A    between atoms: C_7  and  N_8
REMARK    4  A    between atoms: N_8  and  C_9
REMARK    5  A    between atoms: C_9  and  C_10
REMARK    6  A    between atoms: C_13  and  C_14
REMARK    7  A    between atoms: C_14  and  N_15
REMARK    8  A    between atoms: C_16  and  C_18
REMARK    9  A    between atoms: C_25  and  O_26
REMARK                            x       y       z     vdW  Elec       q    Type
REMARK                         _______ _______ _______ _____ _____    ______ ____
ROOT
ATOM      1  C   UNL     1      45.753   7.743  11.923  0.00  0.00    +0.000 A 
ATOM      2  C   UNL     1      46.705   6.770  11.589  0.00  0.00    +0.000 A 
ATOM      3  C   UNL     1      47.997   6.824  12.119  0.00  0.00    +0.000 A 
ATOM      4  C   UNL     1      48.362   7.852  12.999  0.00  0.00    +0.000 A 
ATOM      5  C   UNL     1      47.426   8.852  13.293  0.00  0.00    +0.000 A 
ATOM      6  C   UNL     1      46.133   8.797  12.765  0.00  0.00    +0.000 A 
ENDROOT
BRANCH   1   7
ATOM      7  C   UNL     1      44.334   7.641  11.410  0.00  0.00    +0.000 C 
BRANCH   7   8
ATOM      8  N   UNL     1      43.486   6.775  12.231  0.00  0.00    +0.000 NA
ATOM      9  H   UNL     1      44.079   6.121  12.744  0.00  0.00    +0.000 HD
BRANCH   8  10
ATOM     10  C   UNL     1      42.573   5.961  11.413  0.00  0.00    +0.000 C 
BRANCH  10  16
ATOM     11  C   UNL     1      45.118   3.606   7.981  0.00  0.00    +0.000 C 
ATOM     12  C   UNL     1      44.469   3.559   9.331  0.00  0.00    +0.000 A 
ATOM     13  C   UNL     1      44.501   2.400  10.099  0.00  0.00    +0.000 A 
ATOM     14  C   UNL     1      43.880   2.404  11.343  0.00  0.00    +0.000 A 
ATOM     15  C   UNL     1      43.243   3.558  11.783  0.00  0.00    +0.000 A 
ATOM     16  C   UNL     1      43.240   4.679  10.955  0.00  0.00    +0.000 A 
ATOM     17  N   UNL     1      43.854   4.694   9.744  0.00  0.00    +0.000 NA
ENDBRANCH  10  16
ENDBRANCH   8  10
ENDBRANCH   7   8
ENDBRANCH   1   7
BRANCH   4  18
ATOM     18  C   UNL     1      49.746   7.901  13.593  0.00  0.00    +0.000 C 
BRANCH  18  19
ATOM     19  N   UNL     1      49.869   6.970  14.683  0.00  0.00    +0.000 N 
ATOM     20  C   UNL     1      49.594   7.325  15.977  0.00  0.00    +0.000 C 
ATOM     21  O   UNL     1      49.366   8.487  16.306  0.00  0.00    +0.000 OA
ATOM     22  H   UNL     1      49.877   5.988  14.437  0.00  0.00    +0.000 HD
BRANCH  20  23
ATOM     23  C   UNL     1      49.630   6.237  16.961  0.00  0.00    +0.000 A 
ATOM     24  C   UNL     1      50.573   6.250  17.980  0.00  0.00    +0.000 A 
ATOM     25  S   UNL     1      50.473   4.897  19.012  0.00  0.00    +0.000 S 
ATOM     26  C   UNL     1      49.144   4.277  18.155  0.00  0.00    +0.000 A 
ATOM     27  N   UNL     1      48.560   3.129  18.544  0.00  0.00    +0.000 NA
ATOM     28  C   UNL     1      47.528   2.785  17.768  0.00  0.00    +0.000 A 
ATOM     29  N   UNL     1      47.056   3.442  16.702  0.00  0.00    +0.000 NA
ATOM     30  C   UNL     1      47.682   4.573  16.370  0.00  0.00    +0.000 A 
ATOM     31  C   UNL     1      48.777   5.068  17.075  0.00  0.00    +0.000 A 
BRANCH  30  32
ATOM     32  O   UNL     1      47.164   5.179  15.266  0.00  0.00    +0.000 OA
ATOM     33  H   UNL     1      46.218   5.224  15.505  0.00  0.00    +0.000 HD
ENDBRANCH  30  32
ENDBRANCH  20  23
ENDBRANCH  18  19
ENDBRANCH   4  18
TORSDOF 8
ENDMDL
MODEL 7
REMARK VINA RESULT:    -7.023      3.484      8.286
REMARK INTER + INTRA:         -11.228
REMARK INTER:                  -9.422
REMARK INTRA:                  -1.805
REMARK UNBOUND:                -1.125
REMARK  Name = 
REMARK  9 active torsions:
REMARK  status: ('A' for Active; 'I' for Inactive)
REMARK    1  A    between atoms: C_1  and  C_2
REMARK    2  A    between atoms: C_6  and  C_7
REMARK    3  A    between atoms: C_7  and  N_8
REMARK    4  A    between atoms: N_8  and  C_9
REMARK    5  A    between atoms: C_9  and  C_10
REMARK    6  A    between atoms: C_13  and  C_14
REMARK    7  A    between atoms: C_14  and  N_15
REMARK    8  A    between atoms: C_16  and  C_18
REMARK    9  A    between atoms: C_25  and  O_26
REMARK                            x       y       z     vdW  Elec       q    Type
REMARK                         _______ _______ _______ _____ _____    ______ ____
ROOT
ATOM      1  C   UNL     1      49.361   7.697  17.929  0.00  0.00    +0.000 A 
ATOM      2  C   UNL     1      48.479   8.454  17.145  0.00  0.00    +0.000 A 
ATOM      3  C   UNL     1      48.577   8.447  15.751  0.00  0.00    +0.000 A 
ATOM      4  C   UNL     1      49.556   7.675  15.111  0.00  0.00    +0.000 A 
ATOM      5  C   UNL     1      50.469   6.958  15.895  0.00  0.00    +0.000 A 
ATOM      6  C   UNL     1      50.370   6.964  17.289  0.00  0.00    +0.000 A 
ENDROOT
BRANCH   1   7
ATOM      7  C   UNL     1      49.207   7.646  19.432  0.00  0.00    +0.000 C 
BRANCH   7   8
ATOM      8  N   UNL     1      49.455   6.316  19.992  0.00  0.00    +0.000 NA
ATOM      9  H   UNL     1      50.167   5.848  19.430  0.00  0.00    +0.000 HD
BRANCH   8  10
ATOM     10  C   UNL     1      48.255   5.465  19.945  0.00  0.00    +0.000 C 
BRANCH  10  16
ATOM     11  C   UNL     1      50.428   2.019  17.262  0.00  0.00    +0.000 C 
ATOM     12  C   UNL     1      49.263   2.947  17.428  0.00  0.00    +0.000 A 
ATOM     13  C   UNL     1      48.241   2.986  16.485  0.00  0.00    +0.000 A 
ATOM     14  C   UNL     1      47.184   3.868  16.680  0.00  0.00    +0.000 A 
ATOM     15  C   UNL     1      47.178   4.686  17.803  0.00  0.00    +0.000 A 
ATOM     16  C   UNL     1      48.241   4.603  18.699  0.00  0.00    +0.000 A 
ATOM     17  N   UNL     1      49.273   3.736  18.530  0.00  0.00    +0.000 NA
ENDBRANCH  10  16
ENDBRANCH   8  10
ENDBRANCH   7   8
ENDBRANCH   1   7
BRANCH   4  18
ATOM     18  C   UNL     1      49.650   7.643  13.607  0.00  0.00    +0.000 C 
BRANCH  18  19
ATOM     19  N   UNL     1      48.347   7.487  13.017  0.00  0.00    +0.000 N 
ATOM     20  C   UNL     1      47.709   6.275  12.973  0.00  0.00    +0.000 C 
ATOM     21  O   UNL     1      48.261   5.228  13.302  0.00  0.00    +0.000 OA
ATOM     22  H   UNL     1      47.799   8.332  12.903  0.00  0.00    +0.000 HD
BRANCH  20  23
ATOM     23  C   UNL     1      46.332   6.294  12.466  0.00  0.00    +0.000 A 
ATOM     24  C   UNL     1      45.797   7.464  11.943  0.00  0.00    +0.000 A 
ATOM     25  S   UNL     1      44.182   7.296  11.423  0.00  0.00    +0.000 S 
ATOM     26  C   UNL     1      44.164   5.650  11.841  0.00  0.00    +0.000 A 
ATOM     27  N   UNL     1      43.063   4.907  11.627  0.00  0.00    +0.000 NA
ATOM     28  C   UNL     1      43.217   3.634  12.004  0.00  0.00    +0.000 A 
ATOM     29  N   UNL     1      44.304   3.071  12.547  0.00  0.00    +0.000 NA
ATOM     30  C   UNL     1      45.360   3.865  12.732  0.00  0.00    +0.000 A 
ATOM     31  C   UNL     1      45.362   5.217  12.393  0.00  0.00    +0.000 A 
BRANCH  30  32
ATOM     32  O   UNL     1      46.423   3.233  13.303  0.00  0.00    +0.000 OA
ATOM     33  H   UNL     1      47.056   3.225  12.560  0.00  0.00    +0.000 HD
ENDBRANCH  30  32
ENDBRANCH  20  23
ENDBRANCH  18  19
ENDBRANCH   4  18
TORSDOF 8
ENDMDL
MODEL 8
REMARK VINA RESULT:    -6.941      4.323      6.517
REMARK INTER + INTRA:         -11.109
REMARK INTER:                 -10.368
REMARK INTRA:                  -0.741
REMARK UNBOUND:                -1.125
REMARK  Name = 
REMARK  9 active torsions:
REMARK  status: ('A' for Active; 'I' for Inactive)
REMARK    1  A    between atoms: C_1  and  C_2
REMARK    2  A    between atoms: C_6  and  C_7
REMARK    3  A    between atoms: C_7  and  N_8
REMARK    4  A    between atoms: N_8  and  C_9
REMARK    5  A    between atoms: C_9  and  C_10
REMARK    6  A    between atoms: C_13  and  C_14
REMARK    7  A    between atoms: C_14  and  N_15
REMARK    8  A    between atoms: C_16  and  C_18
REMARK    9  A    between atoms: C_25  and  O_26
REMARK                            x       y       z     vdW  Elec       q    Type
REMARK                         _______ _______ _______ _____ _____    ______ ____
ROOT
ATOM      1  C   UNL     1      45.036   7.697  11.952  0.00  0.00    +0.000 A 
ATOM      2  C   UNL     1      44.263   6.527  11.958  0.00  0.00    +0.000 A 
ATOM      3  C   UNL     1      44.683   5.398  12.665  0.00  0.00    +0.000 A 
ATOM      4  C   UNL     1      45.884   5.417  13.388  0.00  0.00    +0.000 A 
ATOM      5  C   UNL     1      46.681   6.569  13.341  0.00  0.00    +0.000 A 
ATOM      6  C   UNL     1      46.259   7.699  12.635  0.00  0.00    +0.000 A 
ENDROOT
BRANCH   1   7
ATOM      7  C   UNL     1      44.543   8.943  11.250  0.00  0.00    +0.000 C 
BRANCH   7   8
ATOM      8  N   UNL     1      44.096   9.986  12.174  0.00  0.00    +0.000 NA
ATOM      9  H   UNL     1      43.382   9.598  12.791  0.00  0.00    +0.000 HD
BRANCH   8  10
ATOM     10  C   UNL     1      43.473  11.117  11.469  0.00  0.00    +0.000 C 
BRANCH  10  16
ATOM     11  C   UNL     1      39.534  12.299  14.092  0.00  0.00    +0.000 C 
ATOM     12  C   UNL     1      40.084  11.669  12.849  0.00  0.00    +0.000 A 
ATOM     13  C   UNL     1      39.238  11.110  11.896  0.00  0.00    +0.000 A 
ATOM     14  C   UNL     1      39.796  10.533  10.761  0.00  0.00    +0.000 A 
ATOM     15  C   UNL     1      41.178  10.524  10.611  0.00  0.00    +0.000 A 
ATOM     16  C   UNL     1      41.964  11.090  11.611  0.00  0.00    +0.000 A 
ATOM     17  N   UNL     1      41.433  11.671  12.718  0.00  0.00    +0.000 NA
ENDBRANCH  10  16
ENDBRANCH   8  10
ENDBRANCH   7   8
ENDBRANCH   1   7
BRANCH   4  18
ATOM     18  C   UNL     1      46.330   4.210  14.173  0.00  0.00    +0.000 C 
BRANCH  18  19
ATOM     19  N   UNL     1      47.381   4.558  15.091  0.00  0.00    +0.000 N 
ATOM     20  C   UNL     1      47.414   4.077  16.374  0.00  0.00    +0.000 C 
ATOM     21  O   UNL     1      46.484   3.440  16.862  0.00  0.00    +0.000 OA
ATOM     22  H   UNL     1      48.234   4.921  14.684  0.00  0.00    +0.000 HD
BRANCH  20  23
ATOM     23  C   UNL     1      48.615   4.406  17.151  0.00  0.00    +0.000 A 
ATOM     24  C   UNL     1      48.694   5.611  17.836  0.00  0.00    +0.000 A 
ATOM     25  S   UNL     1      50.170   5.824  18.663  0.00  0.00    +0.000 S 
ATOM     26  C   UNL     1      50.728   4.299  18.165  0.00  0.00    +0.000 A 
ATOM     27  N   UNL     1      51.938   3.857  18.556  0.00  0.00    +0.000 NA
ATOM     28  C   UNL     1      52.221   2.639  18.084  0.00  0.00    +0.000 A 
ATOM     29  N   UNL     1      51.453   1.870  17.302  0.00  0.00    +0.000 NA
ATOM     30  C   UNL     1      50.267   2.368  16.951  0.00  0.00    +0.000 A 
ATOM     31  C   UNL     1      49.821   3.625  17.358  0.00  0.00    +0.000 A 
BRANCH  30  32
ATOM     32  O   UNL     1      49.547   1.544  16.142  0.00  0.00    +0.000 OA
ATOM     33  H   UNL     1      50.178   1.402  15.411  0.00  0.00    +0.000 HD
ENDBRANCH  30  32
ENDBRANCH  20  23
ENDBRANCH  18  19
ENDBRANCH   4  18
TORSDOF 8
ENDMDL
MODEL 9
REMARK VINA RESULT:    -6.821      5.071      9.889
REMARK INTER + INTRA:         -10.937
REMARK INTER:                  -9.925
REMARK INTRA:                  -1.013
REMARK UNBOUND:                -1.125
REMARK  Name = 
REMARK  9 active torsions:
REMARK  status: ('A' for Active; 'I' for Inactive)
REMARK    1  A    between atoms: C_1  and  C_2
REMARK    2  A    between atoms: C_6  and  C_7
REMARK    3  A    between atoms: C_7  and  N_8
REMARK    4  A    between atoms: N_8  and  C_9
REMARK    5  A    between atoms: C_9  and  C_10
REMARK    6  A    between atoms: C_13  and  C_14
REMARK    7  A    between atoms: C_14  and  N_15
REMARK    8  A    between atoms: C_16  and  C_18
REMARK    9  A    between atoms: C_25  and  O_26
REMARK                            x       y       z     vdW  Elec       q    Type
REMARK                         _______ _______ _______ _____ _____    ______ ____
ROOT
ATOM      1  C   UNL     1      51.519   3.925  17.803  0.00  0.00    +0.000 A 
ATOM      2  C   UNL     1      50.616   4.998  17.768  0.00  0.00    +0.000 A 
ATOM      3  C   UNL     1      49.277   4.792  17.427  0.00  0.00    +0.000 A 
ATOM      4  C   UNL     1      48.811   3.507  17.117  0.00  0.00    +0.000 A 
ATOM      5  C   UNL     1      49.723   2.444  17.102  0.00  0.00    +0.000 A 
ATOM      6  C   UNL     1      51.062   2.649  17.446  0.00  0.00    +0.000 A 
ENDROOT
BRANCH   1   7
ATOM      7  C   UNL     1      52.949   4.136  18.247  0.00  0.00    +0.000 C 
BRANCH   7   8
ATOM      8  N   UNL     1      53.867   3.118  17.734  0.00  0.00    +0.000 NA
ATOM      9  H   UNL     1      53.358   2.503  17.098  0.00  0.00    +0.000 HD
BRANCH   8  10
ATOM     10  C   UNL     1      54.400   2.264  18.807  0.00  0.00    +0.000 C 
BRANCH  10  16
ATOM     11  C   UNL     1      54.585  -2.465  19.988  0.00  0.00    +0.000 C 
ATOM     12  C   UNL     1      54.609  -1.429  18.906  0.00  0.00    +0.000 A 
ATOM     13  C   UNL     1      54.741  -1.794  17.570  0.00  0.00    +0.000 A 
ATOM     14  C   UNL     1      54.762  -0.796  16.602  0.00  0.00    +0.000 A 
ATOM     15  C   UNL     1      54.657   0.533  16.992  0.00  0.00    +0.000 A 
ATOM     16  C   UNL     1      54.540   0.826  18.349  0.00  0.00    +0.000 A 
ATOM     17  N   UNL     1      54.502  -0.138  19.304  0.00  0.00    +0.000 NA
ENDBRANCH  10  16
ENDBRANCH   8  10
ENDBRANCH   7   8
ENDBRANCH   1   7
BRANCH   4  18
ATOM     18  C   UNL     1      47.362   3.276  16.773  0.00  0.00    +0.000 C 
BRANCH  18  19
ATOM     19  N   UNL     1      46.900   4.252  15.822  0.00  0.00    +0.000 N 
ATOM     20  C   UNL     1      46.819   3.980  14.481  0.00  0.00    +0.000 C 
ATOM     21  O   UNL     1      47.265   2.945  13.992  0.00  0.00    +0.000 OA
ATOM     22  H   UNL     1      46.369   5.029  16.195  0.00  0.00    +0.000 HD
BRANCH  20  23
ATOM     23  C   UNL     1      46.204   5.022  13.652  0.00  0.00    +0.000 A 
ATOM     24  C   UNL     1      46.734   6.305  13.637  0.00  0.00    +0.000 A 
ATOM     25  S   UNL     1      45.875   7.381  12.632  0.00  0.00    +0.000 S 
ATOM     26  C   UNL     1      44.798   6.158  12.156  0.00  0.00    +0.000 A 
ATOM     27  N   UNL     1      43.815   6.421  11.275  0.00  0.00    +0.000 NA
ATOM     28  C   UNL     1      43.063   5.351  11.003  0.00  0.00    +0.000 A 
ATOM     29  N   UNL     1      43.193   4.116  11.503  0.00  0.00    +0.000 NA
ATOM     30  C   UNL     1      44.187   3.923  12.371  0.00  0.00    +0.000 A 
ATOM     31  C   UNL     1      45.060   4.936  12.762  0.00  0.00    +0.000 A 
BRANCH  30  32
ATOM     32  O   UNL     1      44.250   2.651  12.854  0.00  0.00    +0.000 OA
ATOM     33  H   UNL     1      44.426   2.150  12.035  0.00  0.00    +0.000 HD
ENDBRANCH  30  32
ENDBRANCH  20  23
ENDBRANCH  18  19
ENDBRANCH   4  18
TORSDOF 8
ENDMDL
