MODEL 1
REMARK VINA RESULT:    -7.004      0.000      0.000
REMARK INTER + INTRA:          -9.874
REMARK INTER:                  -9.051
REMARK INTRA:                  -0.822
REMARK UNBOUND:                -0.822
REMARK  Name = 
REMARK  6 active torsions:
REMARK  status: ('A' for Active; 'I' for Inactive)
REMARK    1  A    between atoms: C_1  and  C_2
REMARK    2  A    between atoms: C_7  and  C_8
REMARK    3  A    between atoms: C_8  and  O_9
REMARK    4  A    between atoms: O_9  and  C_10
REMARK    5  A    between atoms: C_13  and  C_14
REMARK    6  A    between atoms: C_16  and  C_17
REMARK                            x       y       z     vdW  Elec       q    Type
REMARK                         _______ _______ _______ _____ _____    ______ ____
ROOT
ATOM      1  C   UNL     1      45.300   3.974   8.589  0.00  0.00    +0.000 A 
ATOM      2  C   UNL     1      44.518   2.913   9.048  0.00  0.00    +0.000 A 
ATOM      3  C   UNL     1      44.045   2.907  10.364  0.00  0.00    +0.000 A 
ATOM      4  C   UNL     1      44.360   3.958  11.237  0.00  0.00    +0.000 A 
ATOM      5  C   UNL     1      45.177   5.007  10.791  0.00  0.00    +0.000 A 
ATOM      6  C   UNL     1      45.653   4.996   9.470  0.00  0.00    +0.000 A 
ENDROOT
BRANCH   5   7
ATOM      7  C   UNL     1      45.535   6.165  11.623  0.00  0.00    +0.000 C 
ATOM      8  C   UNL     1      44.879   7.331  11.489  0.00  0.00    +0.000 C 
ATOM      9  C   UNL     1      45.228   8.559  12.281  0.00  0.00    +0.000 C 
ATOM     10  N   UNL     1      46.169   8.321  13.379  0.00  0.00    +0.000 NA
ATOM     11  C   UNL     1      47.249   7.419  12.961  0.00  0.00    +0.000 C 
ATOM     12  C   UNL     1      46.712   6.037  12.554  0.00  0.00    +0.000 C 
ATOM     13  H   UNL     1      45.654   7.881  14.143  0.00  0.00    +0.000 HD
ENDBRANCH   5   7
BRANCH   4  14
ATOM     14  C   UNL     1      43.833   3.935  12.570  0.00  0.00    +0.000 C 
ATOM     15  N   UNL     1      43.422   3.913  13.657  0.00  0.00    +0.000 NA
ENDBRANCH   4  14
BRANCH   1  16
ATOM     16  O   UNL     1      45.664   3.925   7.269  0.00  0.00    +0.000 OA
BRANCH  16  17
ATOM     17  C   UNL     1      47.005   3.482   7.037  0.00  0.00    +0.000 C 
BRANCH  17  24
ATOM     18  C   UNL     1      46.959   0.591   7.910  0.00  0.00    +0.000 C 
ATOM     19  C   UNL     1      47.000   0.994   6.464  0.00  0.00    +0.000 A 
ATOM     20  N   UNL     1      46.978  -0.032   5.574  0.00  0.00    +0.000 NA
ATOM     21  C   UNL     1      46.982   0.270   4.260  0.00  0.00    +0.000 A 
ATOM     22  C   UNL     1      46.999   1.560   3.770  0.00  0.00    +0.000 A 
ATOM     23  C   UNL     1      47.024   2.604   4.685  0.00  0.00    +0.000 A 
ATOM     24  C   UNL     1      47.035   2.335   6.062  0.00  0.00    +0.000 A 
ENDBRANCH  17  24
ENDBRANCH  16  17
ENDBRANCH   1  16
TORSDOF 5
ENDMDL
MODEL 2
REMARK VINA RESULT:    -6.745      2.142      3.121
REMARK INTER + INTRA:          -9.539
REMARK INTER:                  -9.257
REMARK INTRA:                  -0.283
REMARK UNBOUND:                -0.822
REMARK  Name = 
REMARK  6 active torsions:
REMARK  status: ('A' for Active; 'I' for Inactive)
REMARK    1  A    between atoms: C_1  and  C_2
REMARK    2  A    between atoms: C_7  and  C_8
REMARK    3  A    between atoms: C_8  and  O_9
REMARK    4  A    between atoms: O_9  and  C_10
REMARK    5  A    between atoms: C_13  and  C_14
REMARK    6  A    between atoms: C_16  and  C_17
REMARK                            x       y       z     vdW  Elec       q    Type
REMARK                         _______ _______ _______ _____ _____    ______ ____
ROOT
ATOM      1  C   UNL     1      45.025   4.472  10.865  0.00  0.00    +0.000 A 
ATOM      2  C   UNL     1      45.198   3.582  11.926  0.00  0.00    +0.000 A 
ATOM      3  C   UNL     1      46.013   3.930  13.007  0.00  0.00    +0.000 A 
ATOM      4  C   UNL     1      46.673   5.167  13.032  0.00  0.00    +0.000 A 
ATOM      5  C   UNL     1      46.532   6.048  11.949  0.00  0.00    +0.000 A 
ATOM      6  C   UNL     1      45.717   5.683  10.866  0.00  0.00    +0.000 A 
ENDROOT
BRANCH   5   7
ATOM      7  C   UNL     1      47.159   7.376  11.900  0.00  0.00    +0.000 C 
ATOM      8  C   UNL     1      48.470   7.504  11.630  0.00  0.00    +0.000 C 
ATOM      9  C   UNL     1      49.174   8.831  11.609  0.00  0.00    +0.000 C 
ATOM     10  N   UNL     1      48.277   9.989  11.661  0.00  0.00    +0.000 NA
ATOM     11  C   UNL     1      47.199   9.776  12.634  0.00  0.00    +0.000 C 
ATOM     12  C   UNL     1      46.318   8.575  12.255  0.00  0.00    +0.000 C 
ATOM     13  H   UNL     1      47.864  10.107  10.736  0.00  0.00    +0.000 HD
ENDBRANCH   5   7
BRANCH   4  14
ATOM     14  C   UNL     1      47.476   5.504  14.170  0.00  0.00    +0.000 C 
ATOM     15  N   UNL     1      48.123   5.794  15.091  0.00  0.00    +0.000 NA
ENDBRANCH   4  14
BRANCH   1  16
ATOM     16  O   UNL     1      44.159   4.072   9.881  0.00  0.00    +0.000 OA
BRANCH  16  17
ATOM     17  C   UNL     1      44.618   4.314   8.548  0.00  0.00    +0.000 C 
BRANCH  17  24
ATOM     18  C   UNL     1      44.332   1.378   9.200  0.00  0.00    +0.000 C 
ATOM     19  C   UNL     1      45.495   1.919   8.420  0.00  0.00    +0.000 A 
ATOM     20  N   UNL     1      46.392   0.992   7.996  0.00  0.00    +0.000 NA
ATOM     21  C   UNL     1      47.444   1.415   7.264  0.00  0.00    +0.000 A 
ATOM     22  C   UNL     1      47.653   2.734   6.917  0.00  0.00    +0.000 A 
ATOM     23  C   UNL     1      46.734   3.678   7.356  0.00  0.00    +0.000 A 
ATOM     24  C   UNL     1      45.633   3.283   8.131  0.00  0.00    +0.000 A 
ENDBRANCH  17  24
ENDBRANCH  16  17
ENDBRANCH   1  16
TORSDOF 5
ENDMDL
MODEL 3
REMARK VINA RESULT:    -6.334      4.408      8.431
REMARK INTER + INTRA:          -9.008
REMARK INTER:                  -8.161
REMARK INTRA:                  -0.847
REMARK UNBOUND:                -0.822
REMARK  Name = 
REMARK  6 active torsions:
REMARK  status: ('A' for Active; 'I' for Inactive)
REMARK    1  A    between atoms: C_1  and  C_2
REMARK    2  A    between atoms: C_7  and  C_8
REMARK    3  A    between atoms: C_8  and  O_9
REMARK    4  A    between atoms: O_9  and  C_10
REMARK    5  A    between atoms: C_13  and  C_14
REMARK    6  A    between atoms: C_16  and  C_17
REMARK                            x       y       z     vdW  Elec       q    Type
REMARK                         _______ _______ _______ _____ _____    ______ ____
ROOT
ATOM      1  C   UNL     1      48.037   6.848  13.799  0.00  0.00    +0.000 A 
ATOM      2  C   UNL     1      48.032   8.222  13.557  0.00  0.00    +0.000 A 
ATOM      3  C   UNL     1      46.997   8.801  12.817  0.00  0.00    +0.000 A 
ATOM      4  C   UNL     1      45.962   8.008  12.300  0.00  0.00    +0.000 A 
ATOM      5  C   UNL     1      45.984   6.621  12.508  0.00  0.00    +0.000 A 
ATOM      6  C   UNL     1      47.034   6.051  13.246  0.00  0.00    +0.000 A 
ENDROOT
BRANCH   5   7
ATOM      7  C   UNL     1      44.929   5.714  12.033  0.00  0.00    +0.000 C 
ATOM      8  C   UNL     1      45.063   5.064  10.864  0.00  0.00    +0.000 C 
ATOM      9  C   UNL     1      44.001   4.159  10.306  0.00  0.00    +0.000 C 
ATOM     10  N   UNL     1      42.920   3.849  11.246  0.00  0.00    +0.000 NA
ATOM     11  C   UNL     1      42.510   5.046  11.991  0.00  0.00    +0.000 C 
ATOM     12  C   UNL     1      43.661   5.611  12.839  0.00  0.00    +0.000 C 
ATOM     13  H   UNL     1      43.270   3.157  11.909  0.00  0.00    +0.000 HD
ENDBRANCH   5   7
BRANCH   4  14
ATOM     14  C   UNL     1      44.900   8.638  11.572  0.00  0.00    +0.000 C 
ATOM     15  N   UNL     1      44.032   9.152  10.995  0.00  0.00    +0.000 NA
ENDBRANCH   4  14
BRANCH   1  16
ATOM     16  O   UNL     1      49.056   6.380  14.587  0.00  0.00    +0.000 OA
BRANCH  16  17
ATOM     17  C   UNL     1      48.856   6.566  15.991  0.00  0.00    +0.000 C 
BRANCH  17  24
ATOM     18  C   UNL     1      51.115   5.274  17.525  0.00  0.00    +0.000 C 
ATOM     19  C   UNL     1      49.753   4.650  17.420  0.00  0.00    +0.000 A 
ATOM     20  N   UNL     1      49.597   3.481  18.094  0.00  0.00    +0.000 NA
ATOM     21  C   UNL     1      48.385   2.888  18.061  0.00  0.00    +0.000 A 
ATOM     22  C   UNL     1      47.297   3.407  17.389  0.00  0.00    +0.000 A 
ATOM     23  C   UNL     1      47.464   4.601  16.701  0.00  0.00    +0.000 A 
ATOM     24  C   UNL     1      48.711   5.244  16.697  0.00  0.00    +0.000 A 
ENDBRANCH  17  24
ENDBRANCH  16  17
ENDBRANCH   1  16
TORSDOF 5
ENDMDL
MODEL 4
REMARK VINA RESULT:    -6.026      4.397      7.633
REMARK INTER + INTRA:          -8.609
REMARK INTER:                  -7.696
REMARK INTRA:                  -0.914
REMARK UNBOUND:                -0.822
REMARK  Name = 
REMARK  6 active torsions:
REMARK  status: ('A' for Active; 'I' for Inactive)
REMARK    1  A    between atoms: C_1  and  C_2
REMARK    2  A    between atoms: C_7  and  C_8
REMARK    3  A    between atoms: C_8  and  O_9
REMARK    4  A    between atoms: O_9  and  C_10
REMARK    5  A    between atoms: C_13  and  C_14
REMARK    6  A    between atoms: C_16  and  C_17
REMARK                            x       y       z     vdW  Elec       q    Type
REMARK                         _______ _______ _______ _____ _____    ______ ____
ROOT
ATOM      1  C   UNL     1      46.945   8.581  12.295  0.00  0.00    +0.000 A 
ATOM      2  C   UNL     1      48.003   8.178  13.109  0.00  0.00    +0.000 A 
ATOM      3  C   UNL     1      48.067   6.862  13.578  0.00  0.00    +0.000 A 
ATOM      4  C   UNL     1      47.065   5.939  13.246  0.00  0.00    +0.000 A 
ATOM      5  C   UNL     1      45.979   6.351  12.459  0.00  0.00    +0.000 A 
ATOM      6  C   UNL     1      45.923   7.677  12.002  0.00  0.00    +0.000 A 
ENDROOT
BRANCH   5   7
ATOM      7  C   UNL     1      44.899   5.449  12.035  0.00  0.00    +0.000 C 
ATOM      8  C   UNL     1      45.039   4.682  10.940  0.00  0.00    +0.000 C 
ATOM      9  C   UNL     1      43.954   3.774  10.434  0.00  0.00    +0.000 C 
ATOM     10  N   UNL     1      42.831   3.604  11.360  0.00  0.00    +0.000 NA
ATOM     11  C   UNL     1      42.454   4.885  11.970  0.00  0.00    +0.000 C 
ATOM     12  C   UNL     1      43.602   5.480  12.801  0.00  0.00    +0.000 C 
ATOM     13  H   UNL     1      43.127   2.966  12.098  0.00  0.00    +0.000 HD
ENDBRANCH   5   7
BRANCH   4  14
ATOM     14  C   UNL     1      47.177   4.590  13.718  0.00  0.00    +0.000 C 
ATOM     15  N   UNL     1      47.260   3.492  14.087  0.00  0.00    +0.000 NA
ENDBRANCH   4  14
BRANCH   1  16
ATOM     16  O   UNL     1      47.000   9.869  11.831  0.00  0.00    +0.000 OA
BRANCH  16  17
ATOM     17  C   UNL     1      45.777  10.601  11.959  0.00  0.00    +0.000 C 
BRANCH  17  24
ATOM     18  C   UNL     1      43.174   9.680  10.732  0.00  0.00    +0.000 C 
ATOM     19  C   UNL     1      44.079  10.667  10.052  0.00  0.00    +0.000 A 
ATOM     20  N   UNL     1      43.629  11.146   8.864  0.00  0.00    +0.000 NA
ATOM     21  C   UNL     1      44.385  12.060   8.221  0.00  0.00    +0.000 A 
ATOM     22  C   UNL     1      45.585  12.539   8.707  0.00  0.00    +0.000 A 
ATOM     23  C   UNL     1      46.041  12.044   9.922  0.00  0.00    +0.000 A 
ATOM     24  C   UNL     1      45.293  11.083  10.617  0.00  0.00    +0.000 A 
ENDBRANCH  17  24
ENDBRANCH  16  17
ENDBRANCH   1  16
TORSDOF 5
ENDMDL
MODEL 5
REMARK VINA RESULT:    -6.010      3.827      8.281
REMARK INTER + INTRA:          -8.589
REMARK INTER:                  -7.830
REMARK INTRA:                  -0.759
REMARK UNBOUND:                -0.822
REMARK  Name = 
REMARK  6 active torsions:
REMARK  status: ('A' for Active; 'I' for Inactive)
REMARK    1  A    between atoms: C_1  and  C_2
REMARK    2  A    between atoms: C_7  and  C_8
REMARK    3  A    between atoms: C_8  and  O_9
REMARK    4  A    between atoms: O_9  and  C_10
REMARK    5  A    between atoms: C_13  and  C_14
REMARK    6  A    between atoms: C_16  and  C_17
REMARK                            x       y       z     vdW  Elec       q    Type
REMARK                         _______ _______ _______ _____ _____    ______ ____
ROOT
ATOM      1  C   UNL     1      44.914   8.926  11.782  0.00  0.00    +0.000 A 
ATOM      2  C   UNL     1      45.953   9.118  12.692  0.00  0.00    +0.000 A 
ATOM      3  C   UNL     1      46.650   8.019  13.204  0.00  0.00    +0.000 A 
ATOM      4  C   UNL     1      46.306   6.716  12.818  0.00  0.00    +0.000 A 
ATOM      5  C   UNL     1      45.235   6.517  11.932  0.00  0.00    +0.000 A 
ATOM      6  C   UNL     1      44.539   7.629  11.433  0.00  0.00    +0.000 A 
ENDROOT
BRANCH   5   7
ATOM      7  C   UNL     1      44.822   5.192  11.447  0.00  0.00    +0.000 C 
ATOM      8  C   UNL     1      45.100   4.807  10.190  0.00  0.00    +0.000 C 
ATOM      9  C   UNL     1      44.665   3.484   9.626  0.00  0.00    +0.000 C 
ATOM     10  N   UNL     1      44.133   2.551  10.622  0.00  0.00    +0.000 NA
ATOM     11  C   UNL     1      43.249   3.240  11.570  0.00  0.00    +0.000 C 
ATOM     12  C   UNL     1      43.997   4.324  12.362  0.00  0.00    +0.000 C 
ATOM     13  H   UNL     1      44.921   2.159  11.138  0.00  0.00    +0.000 HD
ENDBRANCH   5   7
BRANCH   4  14
ATOM     14  C   UNL     1      47.060   5.613  13.337  0.00  0.00    +0.000 C 
ATOM     15  N   UNL     1      47.685   4.730  13.761  0.00  0.00    +0.000 NA
ENDBRANCH   4  14
BRANCH   1  16
ATOM     16  O   UNL     1      44.331  10.064  11.287  0.00  0.00    +0.000 OA
BRANCH  16  17
ATOM     17  C   UNL     1      43.599   9.877  10.072  0.00  0.00    +0.000 C 
BRANCH  17  24
ATOM     18  C   UNL     1      42.747  12.252   8.410  0.00  0.00    +0.000 C 
ATOM     19  C   UNL     1      41.826  11.582   9.388  0.00  0.00    +0.000 A 
ATOM     20  N   UNL     1      40.569  12.095   9.448  0.00  0.00    +0.000 NA
ATOM     21  C   UNL     1      39.687  11.515  10.288  0.00  0.00    +0.000 A 
ATOM     22  C   UNL     1      39.987  10.426  11.081  0.00  0.00    +0.000 A 
ATOM     23  C   UNL     1      41.274   9.908  11.017  0.00  0.00    +0.000 A 
ATOM     24  C   UNL     1      42.227  10.490  10.168  0.00  0.00    +0.000 A 
ENDBRANCH  17  24
ENDBRANCH  16  17
ENDBRANCH   1  16
TORSDOF 5
ENDMDL
MODEL 6
REMARK VINA RESULT:    -5.843      3.770      7.779
REMARK INTER + INTRA:          -8.373
REMARK INTER:                  -7.793
REMARK INTRA:                  -0.580
REMARK UNBOUND:                -0.822
REMARK  Name = 
REMARK  6 active torsions:
REMARK  status: ('A' for Active; 'I' for Inactive)
REMARK    1  A    between atoms: C_1  and  C_2
REMARK    2  A    between atoms: C_7  and  C_8
REMARK    3  A    between atoms: C_8  and  O_9
REMARK    4  A    between atoms: O_9  and  C_10
REMARK    5  A    between atoms: C_13  and  C_14
REMARK    6  A    between atoms: C_16  and  C_17
REMARK                            x       y       z     vdW  Elec       q    Type
REMARK                         _______ _______ _______ _____ _____    ______ ____
ROOT
ATOM      1  C   UNL     1      45.920   8.291  12.154  0.00  0.00    +0.000 A 
ATOM      2  C   UNL     1      46.855   8.198  13.186  0.00  0.00    +0.000 A 
ATOM      3  C   UNL     1      47.214   6.947  13.698  0.00  0.00    +0.000 A 
ATOM      4  C   UNL     1      46.633   5.777  13.189  0.00  0.00    +0.000 A 
ATOM      5  C   UNL     1      45.664   5.869  12.177  0.00  0.00    +0.000 A 
ATOM      6  C   UNL     1      45.307   7.132  11.679  0.00  0.00    +0.000 A 
ENDROOT
BRANCH   5   7
ATOM      7  C   UNL     1      45.023   4.698  11.562  0.00  0.00    +0.000 C 
ATOM      8  C   UNL     1      45.089   4.503  10.233  0.00  0.00    +0.000 C 
ATOM      9  C   UNL     1      44.417   3.349   9.544  0.00  0.00    +0.000 C 
ATOM     10  N   UNL     1      43.897   2.325  10.453  0.00  0.00    +0.000 NA
ATOM     11  C   UNL     1      43.237   2.936  11.613  0.00  0.00    +0.000 C 
ATOM     12  C   UNL     1      44.214   3.783  12.443  0.00  0.00    +0.000 C 
ATOM     13  H   UNL     1      44.686   1.768  10.782  0.00  0.00    +0.000 HD
ENDBRANCH   5   7
BRANCH   4  14
ATOM     14  C   UNL     1      47.046   4.509  13.715  0.00  0.00    +0.000 C 
ATOM     15  N   UNL     1      47.392   3.489  14.151  0.00  0.00    +0.000 NA
ENDBRANCH   4  14
BRANCH   1  16
ATOM     16  O   UNL     1      45.679   9.551  11.674  0.00  0.00    +0.000 OA
BRANCH  16  17
ATOM     17  C   UNL     1      46.586  10.552  12.146  0.00  0.00    +0.000 C 
BRANCH  17  24
ATOM     18  C   UNL     1      49.530  10.293  11.522  0.00  0.00    +0.000 C 
ATOM     19  C   UNL     1      48.605  11.142  10.698  0.00  0.00    +0.000 A 
ATOM     20  N   UNL     1      49.176  11.757   9.631  0.00  0.00    +0.000 NA
ATOM     21  C   UNL     1      48.388  12.510   8.836  0.00  0.00    +0.000 A 
ATOM     22  C   UNL     1      47.034  12.682   9.042  0.00  0.00    +0.000 A 
ATOM     23  C   UNL     1      46.456  12.052  10.137  0.00  0.00    +0.000 A 
ATOM     24  C   UNL     1      47.242  11.272  10.998  0.00  0.00    +0.000 A 
ENDBRANCH  17  24
ENDBRANCH  16  17
ENDBRANCH   1  16
TORSDOF 5
ENDMDL
MODEL 7
REMARK VINA RESULT:    -5.811      3.750      7.643
REMARK INTER + INTRA:          -8.331
REMARK INTER:                  -7.516
REMARK INTRA:                  -0.815
REMARK UNBOUND:                -0.822
REMARK  Name = 
REMARK  6 active torsions:
REMARK  status: ('A' for Active; 'I' for Inactive)
REMARK    1  A    between atoms: C_1  and  C_2
REMARK    2  A    between atoms: C_7  and  C_8
REMARK    3  A    between atoms: C_8  and  O_9
REMARK    4  A    between atoms: O_9  and  C_10
REMARK    5  A    between atoms: C_13  and  C_14
REMARK    6  A    between atoms: C_16  and  C_17
REMARK                            x       y       z     vdW  Elec       q    Type
REMARK                         _______ _______ _______ _____ _____    ______ ____
ROOT
ATOM      1  C   UNL     1      44.620   8.911  11.670  0.00  0.00    +0.000 A 
ATOM      2  C   UNL     1      45.688   9.211  12.516  0.00  0.00    +0.000 A 
ATOM      3  C   UNL     1      46.483   8.184  13.034  0.00  0.00    +0.000 A 
ATOM      4  C   UNL     1      46.209   6.845  12.720  0.00  0.00    +0.000 A 
ATOM      5  C   UNL     1      45.112   6.537  11.901  0.00  0.00    +0.000 A 
ATOM      6  C   UNL     1      44.317   7.578  11.394  0.00  0.00    +0.000 A 
ENDROOT
BRANCH   5   7
ATOM      7  C   UNL     1      44.765   5.168  11.493  0.00  0.00    +0.000 C 
ATOM      8  C   UNL     1      45.083   4.720  10.266  0.00  0.00    +0.000 C 
ATOM      9  C   UNL     1      44.717   3.346   9.779  0.00  0.00    +0.000 C 
ATOM     10  N   UNL     1      44.208   2.453  10.824  0.00  0.00    +0.000 NA
ATOM     11  C   UNL     1      43.278   3.158  11.713  0.00  0.00    +0.000 C 
ATOM     12  C   UNL     1      43.964   4.322  12.447  0.00  0.00    +0.000 C 
ATOM     13  H   UNL     1      45.004   2.129  11.374  0.00  0.00    +0.000 HD
ENDBRANCH   5   7
BRANCH   4  14
ATOM     14  C   UNL     1      47.062   5.819  13.244  0.00  0.00    +0.000 C 
ATOM     15  N   UNL     1      47.741   4.976  13.666  0.00  0.00    +0.000 NA
ENDBRANCH   4  14
BRANCH   1  16
ATOM     16  O   UNL     1      43.937   9.985  11.160  0.00  0.00    +0.000 OA
BRANCH  16  17
ATOM     17  C   UNL     1      44.757  11.113  10.838  0.00  0.00    +0.000 C 
BRANCH  17  24
ATOM     18  C   UNL     1      46.869  12.780   9.465  0.00  0.00    +0.000 C 
ATOM     19  C   UNL     1      45.733  12.144   8.716  0.00  0.00    +0.000 A 
ATOM     20  N   UNL     1      45.742  12.341   7.372  0.00  0.00    +0.000 NA
ATOM     21  C   UNL     1      44.762  11.768   6.642  0.00  0.00    +0.000 A 
ATOM     22  C   UNL     1      43.760  10.989   7.183  0.00  0.00    +0.000 A 
ATOM     23  C   UNL     1      43.756  10.794   8.558  0.00  0.00    +0.000 A 
ATOM     24  C   UNL     1      44.747  11.383   9.357  0.00  0.00    +0.000 A 
ENDBRANCH  17  24
ENDBRANCH  16  17
ENDBRANCH   1  16
TORSDOF 5
ENDMDL
MODEL 8
REMARK VINA RESULT:    -5.795      4.282      9.249
REMARK INTER + INTRA:          -8.311
REMARK INTER:                  -7.446
REMARK INTRA:                  -0.865
REMARK UNBOUND:                -0.822
REMARK  Name = 
REMARK  6 active torsions:
REMARK  status: ('A' for Active; 'I' for Inactive)
REMARK    1  A    between atoms: C_1  and  C_2
REMARK    2  A    between atoms: C_7  and  C_8
REMARK    3  A    between atoms: C_8  and  O_9
REMARK    4  A    between atoms: O_9  and  C_10
REMARK    5  A    between atoms: C_13  and  C_14
REMARK    6  A    between atoms: C_16  and  C_17
REMARK                            x       y       z     vdW  Elec       q    Type
REMARK                         _______ _______ _______ _____ _____    ______ ____
ROOT
ATOM      1  C   UNL     1      48.132   6.686  14.276  0.00  0.00    +0.000 A 
ATOM      2  C   UNL     1      48.156   8.072  14.437  0.00  0.00    +0.000 A 
ATOM      3  C   UNL     1      47.226   8.873  13.767  0.00  0.00    +0.000 A 
ATOM      4  C   UNL     1      46.270   8.295  12.920  0.00  0.00    +0.000 A 
ATOM      5  C   UNL     1      46.267   6.905  12.726  0.00  0.00    +0.000 A 
ATOM      6  C   UNL     1      47.211   6.114  13.398  0.00  0.00    +0.000 A 
ENDROOT
BRANCH   5   7
ATOM      7  C   UNL     1      45.286   6.208  11.882  0.00  0.00    +0.000 C 
ATOM      8  C   UNL     1      44.085   5.860  12.376  0.00  0.00    +0.000 C 
ATOM      9  C   UNL     1      43.059   5.109  11.575  0.00  0.00    +0.000 C 
ATOM     10  N   UNL     1      43.370   5.003  10.147  0.00  0.00    +0.000 NA
ATOM     11  C   UNL     1      44.790   4.699   9.938  0.00  0.00    +0.000 C 
ATOM     12  C   UNL     1      45.698   5.811  10.488  0.00  0.00    +0.000 C 
ATOM     13  H   UNL     1      43.162   5.902   9.713  0.00  0.00    +0.000 HD
ENDBRANCH   5   7
BRANCH   4  14
ATOM     14  C   UNL     1      45.312   9.142  12.272  0.00  0.00    +0.000 C 
ATOM     15  N   UNL     1      44.543   9.842  11.753  0.00  0.00    +0.000 NA
ENDBRANCH   4  14
BRANCH   1  16
ATOM     16  O   UNL     1      49.039   5.979  15.022  0.00  0.00    +0.000 OA
BRANCH  16  17
ATOM     17  C   UNL     1      49.621   6.712  16.104  0.00  0.00    +0.000 C 
BRANCH  17  24
ATOM     18  C   UNL     1      48.128   8.313  18.185  0.00  0.00    +0.000 C 
ATOM     19  C   UNL     1      48.501   6.873  18.393  0.00  0.00    +0.000 A 
ATOM     20  N   UNL     1      48.089   6.329  19.567  0.00  0.00    +0.000 NA
ATOM     21  C   UNL     1      48.369   5.030  19.797  0.00  0.00    +0.000 A 
ATOM     22  C   UNL     1      49.043   4.222  18.903  0.00  0.00    +0.000 A 
ATOM     23  C   UNL     1      49.464   4.785  17.705  0.00  0.00    +0.000 A 
ATOM     24  C   UNL     1      49.206   6.136  17.432  0.00  0.00    +0.000 A 
ENDBRANCH  17  24
ENDBRANCH  16  17
ENDBRANCH   1  16
TORSDOF 5
ENDMDL
MODEL 9
REMARK VINA RESULT:    -5.729      3.587      5.934
REMARK INTER + INTRA:          -8.226
REMARK INTER:                  -7.456
REMARK INTRA:                  -0.770
REMARK UNBOUND:                -0.822
REMARK  Name = 
REMARK  6 active torsions:
REMARK  status: ('A' for Active; 'I' for Inactive)
REMARK    1  A    between atoms: C_1  and  C_2
REMARK    2  A    between atoms: C_7  and  C_8
REMARK    3  A    between atoms: C_8  and  O_9
REMARK    4  A    between atoms: O_9  and  C_10
REMARK    5  A    between atoms: C_13  and  C_14
REMARK    6  A    between atoms: C_16  and  C_17
REMARK                            x       y       z     vdW  Elec       q    Type
REMARK                         _______ _______ _______ _____ _____    ______ ____
ROOT
ATOM      1  C   UNL     1      46.759   4.748  14.266  0.00  0.00    +0.000 A 
ATOM      2  C   UNL     1      47.165   4.298  15.523  0.00  0.00    +0.000 A 
ATOM      3  C   UNL     1      48.115   5.019  16.254  0.00  0.00    +0.000 A 
ATOM      4  C   UNL     1      48.675   6.193  15.729  0.00  0.00    +0.000 A 
ATOM      5  C   UNL     1      48.296   6.627  14.449  0.00  0.00    +0.000 A 
ATOM      6  C   UNL     1      47.349   5.889  13.723  0.00  0.00    +0.000 A 
ENDROOT
BRANCH   5   7
ATOM      7  C   UNL     1      48.805   7.860  13.830  0.00  0.00    +0.000 C 
ATOM      8  C   UNL     1      48.303   9.057  14.178  0.00  0.00    +0.000 C 
ATOM      9  C   UNL     1      48.753  10.345  13.549  0.00  0.00    +0.000 C 
ATOM     10  N   UNL     1      49.948  10.220  12.709  0.00  0.00    +0.000 NA
ATOM     11  C   UNL     1      49.883   9.012  11.878  0.00  0.00    +0.000 C 
ATOM     12  C   UNL     1      49.829   7.735  12.732  0.00  0.00    +0.000 C 
ATOM     13  H   UNL     1      50.758  10.149  13.325  0.00  0.00    +0.000 HD
ENDBRANCH   5   7
BRANCH   4  14
ATOM     14  C   UNL     1      49.622   6.925  16.517  0.00  0.00    +0.000 C 
ATOM     15  N   UNL     1      50.384   7.532  17.150  0.00  0.00    +0.000 NA
ENDBRANCH   4  14
BRANCH   1  16
ATOM     16  O   UNL     1      45.779   4.012  13.653  0.00  0.00    +0.000 OA
BRANCH  16  17
ATOM     17  C   UNL     1      44.817   4.786  12.930  0.00  0.00    +0.000 C 
BRANCH  17  24
ATOM     18  C   UNL     1      43.308   2.424  11.803  0.00  0.00    +0.000 C 
ATOM     19  C   UNL     1      44.119   3.347  10.940  0.00  0.00    +0.000 A 
ATOM     20  N   UNL     1      44.097   3.067   9.611  0.00  0.00    +0.000 NA
ATOM     21  C   UNL     1      44.783   3.880   8.781  0.00  0.00    +0.000 A 
ATOM     22  C   UNL     1      45.497   4.982   9.206  0.00  0.00    +0.000 A 
ATOM     23  C   UNL     1      45.517   5.261  10.567  0.00  0.00    +0.000 A 
ATOM     24  C   UNL     1      44.829   4.433  11.466  0.00  0.00    +0.000 A 
ENDBRANCH  17  24
ENDBRANCH  16  17
ENDBRANCH   1  16
TORSDOF 5
ENDMDL
