MODEL 1
REMARK VINA RESULT:    -9.321      0.000      0.000
REMARK INTER + INTRA:         -14.275
REMARK INTER:                 -13.135
REMARK INTRA:                  -1.140
REMARK UNBOUND:                -1.140
REMARK  Name = 
REMARK  7 active torsions:
REMARK  status: ('A' for Active; 'I' for Inactive)
REMARK    1  A    between atoms: C_2  and  C_4
REMARK    2  A    between atoms: C_7  and  C_8
REMARK    3  A    between atoms: C_8  and  N_9
REMARK    4  A    between atoms: C_10  and  C_12
REMARK    5  A    between atoms: C_23  and  C_24
REMARK    6  A    between atoms: C_24  and  N_25
REMARK    7  A    between atoms: C_26  and  C_28
REMARK                            x       y       z     vdW  Elec       q    Type
REMARK                         _______ _______ _______ _____ _____    ______ ____
ROOT
ATOM      1  C   UNL     1      44.330   5.241  12.210  0.00  0.00    +0.000 A 
ATOM      2  C   UNL     1      45.072   6.019  13.116  0.00  0.00    +0.000 A 
ATOM      3  C   UNL     1      46.107   5.461  13.859  0.00  0.00    +0.000 A 
ATOM      4  C   UNL     1      46.388   4.099  13.758  0.00  0.00    +0.000 A 
ATOM      5  C   UNL     1      45.658   3.317  12.848  0.00  0.00    +0.000 A 
ATOM      6  C   UNL     1      44.643   3.876  12.043  0.00  0.00    +0.000 A 
ENDROOT
BRANCH   1   8
ATOM      7  N   UNL     1      43.432   7.140  10.969  0.00  0.00    +0.000 N 
ATOM      8  C   UNL     1      43.196   5.895  11.493  0.00  0.00    +0.000 C 
ATOM      9  O   UNL     1      42.098   5.365  11.383  0.00  0.00    +0.000 OA
ATOM     10  H   UNL     1      42.682   7.593  10.464  0.00  0.00    +0.000 HD
ATOM     11  H   UNL     1      44.350   7.558  10.917  0.00  0.00    +0.000 HD
ENDBRANCH   1   8
BRANCH   4  12
ATOM     12  C   UNL     1      47.481   3.501  14.600  0.00  0.00    +0.000 C 
BRANCH  12  13
ATOM     13  N   UNL     1      47.749   4.312  15.758  0.00  0.00    +0.000 N 
ATOM     14  C   UNL     1      47.273   4.045  17.014  0.00  0.00    +0.000 C 
ATOM     15  O   UNL     1      46.552   3.084  17.265  0.00  0.00    +0.000 OA
ATOM     16  H   UNL     1      48.099   5.240  15.559  0.00  0.00    +0.000 HD
BRANCH  14  17
ATOM     17  C   UNL     1      47.757   4.948  18.070  0.00  0.00    +0.000 A 
ATOM     18  C   UNL     1      46.860   5.677  18.838  0.00  0.00    +0.000 A 
ATOM     19  S   UNL     1      47.605   6.601  20.066  0.00  0.00    +0.000 S 
ATOM     20  C   UNL     1      49.159   6.103  19.575  0.00  0.00    +0.000 A 
ATOM     21  N   UNL     1      50.275   6.546  20.213  0.00  0.00    +0.000 NA
ATOM     22  C   UNL     1      51.384   6.103  19.718  0.00  0.00    +0.000 A 
ATOM     23  N   UNL     1      51.476   5.256  18.645  0.00  0.00    +0.000 N 
ATOM     24  C   UNL     1      50.378   4.751  18.000  0.00  0.00    +0.000 A 
ATOM     25  O   UNL     1      50.499   3.938  17.090  0.00  0.00    +0.000 OA
ATOM     26  C   UNL     1      49.104   5.230  18.506  0.00  0.00    +0.000 A 
ATOM     27  H   UNL     1      52.372   4.930  18.311  0.00  0.00    +0.000 HD
ENDBRANCH  14  17
ENDBRANCH  12  13
ENDBRANCH   4  12
BRANCH   6  28
ATOM     28  C   UNL     1      43.959   2.973  11.046  0.00  0.00    +0.000 C 
BRANCH  28  29
ATOM     29  N   UNL     1      44.846   2.570   9.983  0.00  0.00    +0.000 N 
ATOM     30  C   UNL     1      44.954   3.242   8.781  0.00  0.00    +0.000 C 
ATOM     31  O   UNL     1      44.376   4.288   8.524  0.00  0.00    +0.000 OA
ATOM     32  H   UNL     1      45.532   1.866  10.224  0.00  0.00    +0.000 HD
BRANCH  30  33
ATOM     33  C   UNL     1      45.851   2.599   7.781  0.00  0.00    +0.000 A 
ATOM     34  C   UNL     1      46.269   3.285   6.630  0.00  0.00    +0.000 A 
ATOM     35  C   UNL     1      47.144   2.679   5.725  0.00  0.00    +0.000 A 
ATOM     36  C   UNL     1      47.609   1.386   5.967  0.00  0.00    +0.000 A 
ATOM     37  C   UNL     1      47.200   0.699   7.110  0.00  0.00    +0.000 A 
ATOM     38  C   UNL     1      46.330   1.304   8.022  0.00  0.00    +0.000 A 
ENDBRANCH  30  33
ENDBRANCH  28  29
ENDBRANCH   6  28
TORSDOF 7
ENDMDL
MODEL 2
REMARK VINA RESULT:    -8.870      2.637      3.345
REMARK INTER + INTRA:         -13.640
REMARK INTER:                 -12.152
REMARK INTRA:                  -1.488
REMARK UNBOUND:                -1.140
REMARK  Name = 
REMARK  7 active torsions:
REMARK  status: ('A' for Active; 'I' for Inactive)
REMARK    1  A    between atoms: C_2  and  C_4
REMARK    2  A    between atoms: C_7  and  C_8
REMARK    3  A    between atoms: C_8  and  N_9
REMARK    4  A    between atoms: C_10  and  C_12
REMARK    5  A    between atoms: C_23  and  C_24
REMARK    6  A    between atoms: C_24  and  N_25
REMARK    7  A    between atoms: C_26  and  C_28
REMARK                            x       y       z     vdW  Elec       q    Type
REMARK                         _______ _______ _______ _____ _____    ______ ____
ROOT
ATOM      1  C   UNL     1      45.458   4.998  12.713  0.00  0.00    +0.000 A 
ATOM      2  C   UNL     1      46.293   5.191  13.827  0.00  0.00    +0.000 A 
ATOM      3  C   UNL     1      47.373   6.066  13.770  0.00  0.00    +0.000 A 
ATOM      4  C   UNL     1      47.679   6.726  12.581  0.00  0.00    +0.000 A 
ATOM      5  C   UNL     1      46.844   6.547  11.466  0.00  0.00    +0.000 A 
ATOM      6  C   UNL     1      45.710   5.708  11.520  0.00  0.00    +0.000 A 
ENDROOT
BRANCH   1   8
ATOM      7  N   UNL     1      44.660   2.702  12.508  0.00  0.00    +0.000 N 
ATOM      8  C   UNL     1      44.355   3.998  12.831  0.00  0.00    +0.000 C 
ATOM      9  O   UNL     1      43.225   4.308  13.183  0.00  0.00    +0.000 OA
ATOM     10  H   UNL     1      43.932   2.006  12.598  0.00  0.00    +0.000 HD
ATOM     11  H   UNL     1      45.602   2.375  12.344  0.00  0.00    +0.000 HD
ENDBRANCH   1   8
BRANCH   4  12
ATOM     12  C   UNL     1      48.875   7.635  12.521  0.00  0.00    +0.000 C 
BRANCH  12  13
ATOM     13  N   UNL     1      49.882   7.233  13.468  0.00  0.00    +0.000 N 
ATOM     14  C   UNL     1      50.101   7.853  14.669  0.00  0.00    +0.000 C 
ATOM     15  O   UNL     1      49.460   8.830  15.045  0.00  0.00    +0.000 OA
ATOM     16  H   UNL     1      50.600   6.625  13.097  0.00  0.00    +0.000 HD
BRANCH  14  17
ATOM     17  C   UNL     1      51.111   7.212  15.526  0.00  0.00    +0.000 A 
ATOM     18  C   UNL     1      52.461   7.479  15.343  0.00  0.00    +0.000 A 
ATOM     19  S   UNL     1      53.471   6.709  16.486  0.00  0.00    +0.000 S 
ATOM     20  C   UNL     1      52.141   5.946  17.229  0.00  0.00    +0.000 A 
ATOM     21  N   UNL     1      52.310   5.115  18.293  0.00  0.00    +0.000 NA
ATOM     22  C   UNL     1      51.216   4.591  18.740  0.00  0.00    +0.000 A 
ATOM     23  N   UNL     1      49.970   4.825  18.220  0.00  0.00    +0.000 N 
ATOM     24  C   UNL     1      49.748   5.686  17.178  0.00  0.00    +0.000 A 
ATOM     25  O   UNL     1      48.611   5.926  16.788  0.00  0.00    +0.000 OA
ATOM     26  C   UNL     1      50.947   6.292  16.627  0.00  0.00    +0.000 A 
ATOM     27  H   UNL     1      49.147   4.398  18.620  0.00  0.00    +0.000 HD
ENDBRANCH  14  17
ENDBRANCH  12  13
ENDBRANCH   4  12
BRANCH   6  28
ATOM     28  C   UNL     1      44.833   5.630  10.295  0.00  0.00    +0.000 C 
BRANCH  28  29
ATOM     29  N   UNL     1      45.422   4.820   9.257  0.00  0.00    +0.000 N 
ATOM     30  C   UNL     1      45.046   3.518   8.998  0.00  0.00    +0.000 C 
ATOM     31  O   UNL     1      44.123   2.944   9.559  0.00  0.00    +0.000 OA
ATOM     32  H   UNL     1      46.010   5.311   8.596  0.00  0.00    +0.000 HD
BRANCH  30  33
ATOM     33  C   UNL     1      45.853   2.828   7.954  0.00  0.00    +0.000 A 
ATOM     34  C   UNL     1      46.249   3.491   6.782  0.00  0.00    +0.000 A 
ATOM     35  C   UNL     1      47.042   2.840   5.834  0.00  0.00    +0.000 A 
ATOM     36  C   UNL     1      47.446   1.522   6.053  0.00  0.00    +0.000 A 
ATOM     37  C   UNL     1      47.058   0.857   7.216  0.00  0.00    +0.000 A 
ATOM     38  C   UNL     1      46.271   1.508   8.171  0.00  0.00    +0.000 A 
ENDBRANCH  30  33
ENDBRANCH  28  29
ENDBRANCH   6  28
TORSDOF 7
ENDMDL
MODEL 3
REMARK VINA RESULT:    -8.785      4.604      6.599
REMARK INTER + INTRA:         -13.520
REMARK INTER:                 -11.783
REMARK INTRA:                  -1.737
REMARK UNBOUND:                -1.140
REMARK  Name = 
REMARK  7 active torsions:
REMARK  status: ('A' for Active; 'I' for Inactive)
REMARK    1  A    between atoms: C_2  and  C_4
REMARK    2  A    between atoms: C_7  and  C_8
REMARK    3  A    between atoms: C_8  and  N_9
REMARK    4  A    between atoms: C_10  and  C_12
REMARK    5  A    between atoms: C_23  and  C_24
REMARK    6  A    between atoms: C_24  and  N_25
REMARK    7  A    between atoms: C_26  and  C_28
REMARK                            x       y       z     vdW  Elec       q    Type
REMARK                         _______ _______ _______ _____ _____    ______ ____
ROOT
ATOM      1  C   UNL     1      45.151   4.788  12.854  0.00  0.00    +0.000 A 
ATOM      2  C   UNL     1      45.956   4.857  14.004  0.00  0.00    +0.000 A 
ATOM      3  C   UNL     1      47.150   5.572  14.001  0.00  0.00    +0.000 A 
ATOM      4  C   UNL     1      47.596   6.186  12.833  0.00  0.00    +0.000 A 
ATOM      5  C   UNL     1      46.793   6.131  11.682  0.00  0.00    +0.000 A 
ATOM      6  C   UNL     1      45.552   5.460  11.680  0.00  0.00    +0.000 A 
ENDROOT
BRANCH   1   8
ATOM      7  N   UNL     1      44.039   2.638  12.547  0.00  0.00    +0.000 N 
ATOM      8  C   UNL     1      43.915   3.953  12.915  0.00  0.00    +0.000 C 
ATOM      9  O   UNL     1      42.833   4.409  13.261  0.00  0.00    +0.000 OA
ATOM     10  H   UNL     1      43.217   2.051  12.598  0.00  0.00    +0.000 HD
ATOM     11  H   UNL     1      44.928   2.186  12.386  0.00  0.00    +0.000 HD
ENDBRANCH   1   8
BRANCH   4  12
ATOM     12  C   UNL     1      48.910   6.918  12.833  0.00  0.00    +0.000 C 
BRANCH  12  13
ATOM     13  N   UNL     1      48.828   8.136  12.072  0.00  0.00    +0.000 N 
ATOM     14  C   UNL     1      49.522   9.279  12.367  0.00  0.00    +0.000 C 
ATOM     15  O   UNL     1      50.276   9.373  13.331  0.00  0.00    +0.000 OA
ATOM     16  H   UNL     1      48.034   8.198  11.447  0.00  0.00    +0.000 HD
BRANCH  14  17
ATOM     17  C   UNL     1      49.368  10.372  11.394  0.00  0.00    +0.000 A 
ATOM     18  C   UNL     1      50.477  10.899  10.746  0.00  0.00    +0.000 A 
ATOM     19  S   UNL     1      50.088  12.098   9.594  0.00  0.00    +0.000 S 
ATOM     20  C   UNL     1      48.428  11.994   9.963  0.00  0.00    +0.000 A 
ATOM     21  N   UNL     1      47.515  12.778   9.330  0.00  0.00    +0.000 NA
ATOM     22  C   UNL     1      46.297  12.607   9.727  0.00  0.00    +0.000 A 
ATOM     23  N   UNL     1      45.911  11.722  10.699  0.00  0.00    +0.000 N 
ATOM     24  C   UNL     1      46.789  10.883  11.332  0.00  0.00    +0.000 A 
ATOM     25  O   UNL     1      46.396  10.053  12.145  0.00  0.00    +0.000 OA
ATOM     26  C   UNL     1      48.176  11.045  10.934  0.00  0.00    +0.000 A 
ATOM     27  H   UNL     1      44.940  11.620  10.959  0.00  0.00    +0.000 HD
ENDBRANCH  14  17
ENDBRANCH  12  13
ENDBRANCH   4  12
BRANCH   6  28
ATOM     28  C   UNL     1      44.726   5.511  10.417  0.00  0.00    +0.000 C 
BRANCH  28  29
ATOM     29  N   UNL     1      45.318   4.740   9.352  0.00  0.00    +0.000 N 
ATOM     30  C   UNL     1      44.966   3.436   9.066  0.00  0.00    +0.000 C 
ATOM     31  O   UNL     1      44.065   2.828   9.625  0.00  0.00    +0.000 OA
ATOM     32  H   UNL     1      45.885   5.260   8.695  0.00  0.00    +0.000 HD
BRANCH  30  33
ATOM     33  C   UNL     1      45.773   2.790   7.993  0.00  0.00    +0.000 A 
ATOM     34  C   UNL     1      46.117   3.483   6.822  0.00  0.00    +0.000 A 
ATOM     35  C   UNL     1      46.910   2.874   5.847  0.00  0.00    +0.000 A 
ATOM     36  C   UNL     1      47.366   1.569   6.038  0.00  0.00    +0.000 A 
ATOM     37  C   UNL     1      47.032   0.875   7.201  0.00  0.00    +0.000 A 
ATOM     38  C   UNL     1      46.244   1.484   8.182  0.00  0.00    +0.000 A 
ENDBRANCH  30  33
ENDBRANCH  28  29
ENDBRANCH   6  28
TORSDOF 7
ENDMDL
MODEL 4
REMARK VINA RESULT:    -8.626      1.585      2.057
REMARK INTER + INTRA:         -13.295
REMARK INTER:                 -12.572
REMARK INTRA:                  -0.723
REMARK UNBOUND:                -1.140
REMARK  Name = 
REMARK  7 active torsions:
REMARK  status: ('A' for Active; 'I' for Inactive)
REMARK    1  A    between atoms: C_2  and  C_4
REMARK    2  A    between atoms: C_7  and  C_8
REMARK    3  A    between atoms: C_8  and  N_9
REMARK    4  A    between atoms: C_10  and  C_12
REMARK    5  A    between atoms: C_23  and  C_24
REMARK    6  A    between atoms: C_24  and  N_25
REMARK    7  A    between atoms: C_26  and  C_28
REMARK                            x       y       z     vdW  Elec       q    Type
REMARK                         _______ _______ _______ _____ _____    ______ ____
ROOT
ATOM      1  C   UNL     1      44.318   5.790  12.106  0.00  0.00    +0.000 A 
ATOM      2  C   UNL     1      44.974   6.870  12.721  0.00  0.00    +0.000 A 
ATOM      3  C   UNL     1      46.159   6.682  13.425  0.00  0.00    +0.000 A 
ATOM      4  C   UNL     1      46.688   5.401  13.579  0.00  0.00    +0.000 A 
ATOM      5  C   UNL     1      46.044   4.318  12.959  0.00  0.00    +0.000 A 
ATOM      6  C   UNL     1      44.873   4.495  12.193  0.00  0.00    +0.000 A 
ENDROOT
BRANCH   1   8
ATOM      7  N   UNL     1      42.836   7.321  10.918  0.00  0.00    +0.000 N 
ATOM      8  C   UNL     1      43.020   6.059  11.420  0.00  0.00    +0.000 C 
ATOM      9  O   UNL     1      42.145   5.209  11.316  0.00  0.00    +0.000 OA
ATOM     10  H   UNL     1      41.971   7.519  10.435  0.00  0.00    +0.000 HD
ATOM     11  H   UNL     1      43.573   8.011  10.861  0.00  0.00    +0.000 HD
ENDBRANCH   1   8
BRANCH   4  12
ATOM     12  C   UNL     1      47.946   5.208  14.379  0.00  0.00    +0.000 C 
BRANCH  12  13
ATOM     13  N   UNL     1      47.806   5.743  15.707  0.00  0.00    +0.000 N 
ATOM     14  C   UNL     1      48.855   6.008  16.547  0.00  0.00    +0.000 C 
ATOM     15  O   UNL     1      50.026   5.794  16.243  0.00  0.00    +0.000 OA
ATOM     16  H   UNL     1      46.875   5.679  16.098  0.00  0.00    +0.000 HD
BRANCH  14  17
ATOM     17  C   UNL     1      48.490   6.650  17.819  0.00  0.00    +0.000 A 
ATOM     18  C   UNL     1      48.266   8.019  17.878  0.00  0.00    +0.000 A 
ATOM     19  S   UNL     1      47.769   8.563  19.418  0.00  0.00    +0.000 S 
ATOM     20  C   UNL     1      47.893   6.996  20.075  0.00  0.00    +0.000 A 
ATOM     21  N   UNL     1      47.613   6.756  21.384  0.00  0.00    +0.000 NA
ATOM     22  C   UNL     1      47.771   5.525  21.747  0.00  0.00    +0.000 A 
ATOM     23  N   UNL     1      48.182   4.515  20.918  0.00  0.00    +0.000 N 
ATOM     24  C   UNL     1      48.433   4.702  19.585  0.00  0.00    +0.000 A 
ATOM     25  O   UNL     1      48.728   3.758  18.859  0.00  0.00    +0.000 OA
ATOM     26  C   UNL     1      48.286   6.072  19.126  0.00  0.00    +0.000 A 
ATOM     27  H   UNL     1      48.274   3.567  21.254  0.00  0.00    +0.000 HD
ENDBRANCH  14  17
ENDBRANCH  12  13
ENDBRANCH   4  12
BRANCH   6  28
ATOM     28  C   UNL     1      44.290   3.283  11.507  0.00  0.00    +0.000 C 
BRANCH  28  29
ATOM     29  N   UNL     1      45.100   2.848  10.397  0.00  0.00    +0.000 N 
ATOM     30  C   UNL     1      44.951   3.324   9.109  0.00  0.00    +0.000 C 
ATOM     31  O   UNL     1      44.180   4.218   8.792  0.00  0.00    +0.000 OA
ATOM     32  H   UNL     1      45.916   2.301  10.635  0.00  0.00    +0.000 HD
BRANCH  30  33
ATOM     33  C   UNL     1      45.818   2.665   8.093  0.00  0.00    +0.000 A 
ATOM     34  C   UNL     1      46.220   1.328   8.235  0.00  0.00    +0.000 A 
ATOM     35  C   UNL     1      46.999   0.716   7.250  0.00  0.00    +0.000 A 
ATOM     36  C   UNL     1      47.378   1.435   6.116  0.00  0.00    +0.000 A 
ATOM     37  C   UNL     1      46.979   2.764   5.967  0.00  0.00    +0.000 A 
ATOM     38  C   UNL     1      46.194   3.378   6.947  0.00  0.00    +0.000 A 
ENDBRANCH  30  33
ENDBRANCH  28  29
ENDBRANCH   6  28
TORSDOF 7
ENDMDL
MODEL 5
REMARK VINA RESULT:    -8.608      1.842      2.629
REMARK INTER + INTRA:         -13.270
REMARK INTER:                 -11.764
REMARK INTRA:                  -1.506
REMARK UNBOUND:                -1.140
REMARK  Name = 
REMARK  7 active torsions:
REMARK  status: ('A' for Active; 'I' for Inactive)
REMARK    1  A    between atoms: C_2  and  C_4
REMARK    2  A    between atoms: C_7  and  C_8
REMARK    3  A    between atoms: C_8  and  N_9
REMARK    4  A    between atoms: C_10  and  C_12
REMARK    5  A    between atoms: C_23  and  C_24
REMARK    6  A    between atoms: C_24  and  N_25
REMARK    7  A    between atoms: C_26  and  C_28
REMARK                            x       y       z     vdW  Elec       q    Type
REMARK                         _______ _______ _______ _____ _____    ______ ____
ROOT
ATOM      1  C   UNL     1      44.959   4.717  12.312  0.00  0.00    +0.000 A 
ATOM      2  C   UNL     1      45.436   4.589  13.628  0.00  0.00    +0.000 A 
ATOM      3  C   UNL     1      46.580   5.262  14.044  0.00  0.00    +0.000 A 
ATOM      4  C   UNL     1      47.308   6.034  13.140  0.00  0.00    +0.000 A 
ATOM      5  C   UNL     1      46.834   6.175  11.826  0.00  0.00    +0.000 A 
ATOM      6  C   UNL     1      45.644   5.548  11.399  0.00  0.00    +0.000 A 
ENDROOT
BRANCH   1   8
ATOM      7  N   UNL     1      43.954   2.577  11.714  0.00  0.00    +0.000 N 
ATOM      8  C   UNL     1      43.761   3.918  11.921  0.00  0.00    +0.000 C 
ATOM      9  O   UNL     1      42.655   4.423  11.775  0.00  0.00    +0.000 OA
ATOM     10  H   UNL     1      43.152   2.014  11.465  0.00  0.00    +0.000 HD
ATOM     11  H   UNL     1      44.809   2.093  11.950  0.00  0.00    +0.000 HD
ENDBRANCH   1   8
BRANCH   4  12
ATOM     12  C   UNL     1      48.567   6.720  13.594  0.00  0.00    +0.000 C 
BRANCH  12  13
ATOM     13  N   UNL     1      48.676   6.713  15.029  0.00  0.00    +0.000 N 
ATOM     14  C   UNL     1      49.804   7.071  15.718  0.00  0.00    +0.000 C 
ATOM     15  O   UNL     1      50.843   7.421  15.166  0.00  0.00    +0.000 OA
ATOM     16  H   UNL     1      47.961   6.183  15.509  0.00  0.00    +0.000 HD
BRANCH  14  17
ATOM     17  C   UNL     1      49.660   7.089  17.182  0.00  0.00    +0.000 A 
ATOM     18  C   UNL     1      49.777   8.280  17.886  0.00  0.00    +0.000 A 
ATOM     19  S   UNL     1      49.495   8.113  19.562  0.00  0.00    +0.000 S 
ATOM     20  C   UNL     1      49.264   6.432  19.413  0.00  0.00    +0.000 A 
ATOM     21  N   UNL     1      48.993   5.659  20.498  0.00  0.00    +0.000 NA
ATOM     22  C   UNL     1      48.864   4.399  20.237  0.00  0.00    +0.000 A 
ATOM     23  N   UNL     1      48.982   3.844  18.990  0.00  0.00    +0.000 N 
ATOM     24  C   UNL     1      49.212   4.589  17.864  0.00  0.00    +0.000 A 
ATOM     25  O   UNL     1      49.238   4.066  16.754  0.00  0.00    +0.000 OA
ATOM     26  C   UNL     1      49.380   6.012  18.102  0.00  0.00    +0.000 A 
ATOM     27  H   UNL     1      48.857   2.853  18.844  0.00  0.00    +0.000 HD
ENDBRANCH  14  17
ENDBRANCH  12  13
ENDBRANCH   4  12
BRANCH   6  28
ATOM     28  C   UNL     1      45.176   5.812   9.989  0.00  0.00    +0.000 C 
BRANCH  28  29
ATOM     29  N   UNL     1      45.804   4.931   9.036  0.00  0.00    +0.000 N 
ATOM     30  C   UNL     1      45.191   3.812   8.509  0.00  0.00    +0.000 C 
ATOM     31  O   UNL     1      44.030   3.497   8.729  0.00  0.00    +0.000 OA
ATOM     32  H   UNL     1      46.663   5.270   8.623  0.00  0.00    +0.000 HD
BRANCH  30  33
ATOM     33  C   UNL     1      46.053   2.983   7.622  0.00  0.00    +0.000 A 
ATOM     34  C   UNL     1      46.437   1.683   7.988  0.00  0.00    +0.000 A 
ATOM     35  C   UNL     1      47.211   0.905   7.124  0.00  0.00    +0.000 A 
ATOM     36  C   UNL     1      47.604   1.421   5.888  0.00  0.00    +0.000 A 
ATOM     37  C   UNL     1      47.224   2.711   5.517  0.00  0.00    +0.000 A 
ATOM     38  C   UNL     1      46.443   3.490   6.376  0.00  0.00    +0.000 A 
ENDBRANCH  30  33
ENDBRANCH  28  29
ENDBRANCH   6  28
TORSDOF 7
ENDMDL
MODEL 6
REMARK VINA RESULT:    -8.368      4.997      8.426
REMARK INTER + INTRA:         -12.932
REMARK INTER:                 -11.430
REMARK INTRA:                  -1.502
REMARK UNBOUND:                -1.140
REMARK  Name = 
REMARK  7 active torsions:
REMARK  status: ('A' for Active; 'I' for Inactive)
REMARK    1  A    between atoms: C_2  and  C_4
REMARK    2  A    between atoms: C_7  and  C_8
REMARK    3  A    between atoms: C_8  and  N_9
REMARK    4  A    between atoms: C_10  and  C_12
REMARK    5  A    between atoms: C_23  and  C_24
REMARK    6  A    between atoms: C_24  and  N_25
REMARK    7  A    between atoms: C_26  and  C_28
REMARK                            x       y       z     vdW  Elec       q    Type
REMARK                         _______ _______ _______ _____ _____    ______ ____
ROOT
ATOM      1  C   UNL     1      44.904   5.051  12.462  0.00  0.00    +0.000 A 
ATOM      2  C   UNL     1      45.590   5.780  13.449  0.00  0.00    +0.000 A 
ATOM      3  C   UNL     1      45.895   7.125  13.264  0.00  0.00    +0.000 A 
ATOM      4  C   UNL     1      45.573   7.759  12.065  0.00  0.00    +0.000 A 
ATOM      5  C   UNL     1      44.879   7.041  11.078  0.00  0.00    +0.000 A 
ATOM      6  C   UNL     1      44.510   5.692  11.269  0.00  0.00    +0.000 A 
ENDROOT
BRANCH   1   8
ATOM      7  N   UNL     1      45.749   2.767  12.591  0.00  0.00    +0.000 N 
ATOM      8  C   UNL     1      44.666   3.598  12.706  0.00  0.00    +0.000 C 
ATOM      9  O   UNL     1      43.559   3.153  12.982  0.00  0.00    +0.000 OA
ATOM     10  H   UNL     1      45.613   1.781  12.769  0.00  0.00    +0.000 HD
ATOM     11  H   UNL     1      46.699   3.098  12.499  0.00  0.00    +0.000 HD
ENDBRANCH   1   8
BRANCH   4  12
ATOM     12  C   UNL     1      45.948   9.201  11.863  0.00  0.00    +0.000 C 
BRANCH  12  13
ATOM     13  N   UNL     1      44.943   9.899  11.105  0.00  0.00    +0.000 N 
ATOM     14  C   UNL     1      45.035  11.213  10.729  0.00  0.00    +0.000 C 
ATOM     15  O   UNL     1      45.988  11.928  11.023  0.00  0.00    +0.000 OA
ATOM     16  H   UNL     1      44.038   9.447  11.076  0.00  0.00    +0.000 HD
BRANCH  14  17
ATOM     17  C   UNL     1      43.941  11.693   9.869  0.00  0.00    +0.000 A 
ATOM     18  C   UNL     1      44.189  12.056   8.552  0.00  0.00    +0.000 A 
ATOM     19  S   UNL     1      42.784  12.505   7.692  0.00  0.00    +0.000 S 
ATOM     20  C   UNL     1      41.804  12.284   9.067  0.00  0.00    +0.000 A 
ATOM     21  N   UNL     1      40.464  12.514   9.022  0.00  0.00    +0.000 NA
ATOM     22  C   UNL     1      39.851  12.326  10.145  0.00  0.00    +0.000 A 
ATOM     23  N   UNL     1      40.458  11.930  11.307  0.00  0.00    +0.000 N 
ATOM     24  C   UNL     1      41.796  11.646  11.389  0.00  0.00    +0.000 A 
ATOM     25  O   UNL     1      42.290  11.222  12.428  0.00  0.00    +0.000 OA
ATOM     26  C   UNL     1      42.536  11.855  10.157  0.00  0.00    +0.000 A 
ATOM     27  H   UNL     1      39.925  11.785  12.153  0.00  0.00    +0.000 HD
ENDBRANCH  14  17
ENDBRANCH  12  13
ENDBRANCH   4  12
BRANCH   6  28
ATOM     28  C   UNL     1      43.706   5.022  10.181  0.00  0.00    +0.000 C 
BRANCH  28  29
ATOM     29  N   UNL     1      44.549   4.407   9.186  0.00  0.00    +0.000 N 
ATOM     30  C   UNL     1      44.767   3.047   9.103  0.00  0.00    +0.000 C 
ATOM     31  O   UNL     1      44.208   2.217   9.806  0.00  0.00    +0.000 OA
ATOM     32  H   UNL     1      44.840   5.006   8.424  0.00  0.00    +0.000 HD
BRANCH  30  33
ATOM     33  C   UNL     1      45.755   2.631   8.068  0.00  0.00    +0.000 A 
ATOM     34  C   UNL     1      46.331   1.351   8.084  0.00  0.00    +0.000 A 
ATOM     35  C   UNL     1      47.223   0.965   7.081  0.00  0.00    +0.000 A 
ATOM     36  C   UNL     1      47.543   1.855   6.055  0.00  0.00    +0.000 A 
ATOM     37  C   UNL     1      46.972   3.128   6.031  0.00  0.00    +0.000 A 
ATOM     38  C   UNL     1      46.073   3.515   7.030  0.00  0.00    +0.000 A 
ENDBRANCH  30  33
ENDBRANCH  28  29
ENDBRANCH   6  28
TORSDOF 7
ENDMDL
MODEL 7
REMARK VINA RESULT:    -8.237      2.915      3.826
REMARK INTER + INTRA:         -12.748
REMARK INTER:                 -11.604
REMARK INTRA:                  -1.145
REMARK UNBOUND:                -1.140
REMARK  Name = 
REMARK  7 active torsions:
REMARK  status: ('A' for Active; 'I' for Inactive)
REMARK    1  A    between atoms: C_2  and  C_4
REMARK    2  A    between atoms: C_7  and  C_8
REMARK    3  A    between atoms: C_8  and  N_9
REMARK    4  A    between atoms: C_10  and  C_12
REMARK    5  A    between atoms: C_23  and  C_24
REMARK    6  A    between atoms: C_24  and  N_25
REMARK    7  A    between atoms: C_26  and  C_28
REMARK                            x       y       z     vdW  Elec       q    Type
REMARK                         _______ _______ _______ _____ _____    ______ ____
ROOT
ATOM      1  C   UNL     1      45.871   9.179  11.796  0.00  0.00    +0.000 A 
ATOM      2  C   UNL     1      46.954  10.061  11.954  0.00  0.00    +0.000 A 
ATOM      3  C   UNL     1      48.219   9.589  12.289  0.00  0.00    +0.000 A 
ATOM      4  C   UNL     1      48.420   8.231  12.530  0.00  0.00    +0.000 A 
ATOM      5  C   UNL     1      47.346   7.342  12.365  0.00  0.00    +0.000 A 
ATOM      6  C   UNL     1      46.068   7.793  11.970  0.00  0.00    +0.000 A 
ENDROOT
BRANCH   1   8
ATOM      7  N   UNL     1      43.843  10.306  12.551  0.00  0.00    +0.000 N 
ATOM      8  C   UNL     1      44.531   9.765  11.496  0.00  0.00    +0.000 C 
ATOM      9  O   UNL     1      44.049   9.756  10.371  0.00  0.00    +0.000 OA
ATOM     10  H   UNL     1      42.941  10.723  12.366  0.00  0.00    +0.000 HD
ATOM     11  H   UNL     1      44.250  10.457  13.464  0.00  0.00    +0.000 HD
ENDBRANCH   1   8
BRANCH   4  12
ATOM     12  C   UNL     1      49.783   7.742  12.934  0.00  0.00    +0.000 C 
BRANCH  12  13
ATOM     13  N   UNL     1      49.730   7.018  14.176  0.00  0.00    +0.000 N 
ATOM     14  C   UNL     1      49.435   7.585  15.387  0.00  0.00    +0.000 C 
ATOM     15  O   UNL     1      49.202   8.782  15.527  0.00  0.00    +0.000 OA
ATOM     16  H   UNL     1      50.173   6.108  14.160  0.00  0.00    +0.000 HD
BRANCH  14  17
ATOM     17  C   UNL     1      49.334   6.639  16.510  0.00  0.00    +0.000 A 
ATOM     18  C   UNL     1      50.023   6.874  17.692  0.00  0.00    +0.000 A 
ATOM     19  S   UNL     1      49.712   5.713  18.906  0.00  0.00    +0.000 S 
ATOM     20  C   UNL     1      48.691   4.824  17.872  0.00  0.00    +0.000 A 
ATOM     21  N   UNL     1      48.087   3.679  18.292  0.00  0.00    +0.000 NA
ATOM     22  C   UNL     1      47.358   3.100  17.394  0.00  0.00    +0.000 A 
ATOM     23  N   UNL     1      47.179   3.564  16.117  0.00  0.00    +0.000 N 
ATOM     24  C   UNL     1      47.731   4.733  15.666  0.00  0.00    +0.000 A 
ATOM     25  O   UNL     1      47.488   5.154  14.540  0.00  0.00    +0.000 OA
ATOM     26  C   UNL     1      48.574   5.418  16.630  0.00  0.00    +0.000 A 
ATOM     27  H   UNL     1      46.585   3.076  15.462  0.00  0.00    +0.000 HD
ENDBRANCH  14  17
ENDBRANCH  12  13
ENDBRANCH   4  12
BRANCH   6  28
ATOM     28  C   UNL     1      44.992   6.757  11.752  0.00  0.00    +0.000 C 
BRANCH  28  29
ATOM     29  N   UNL     1      45.375   5.779  10.764  0.00  0.00    +0.000 N 
ATOM     30  C   UNL     1      44.482   4.930  10.143  0.00  0.00    +0.000 C 
ATOM     31  O   UNL     1      43.270   4.971  10.301  0.00  0.00    +0.000 OA
ATOM     32  H   UNL     1      46.318   5.862  10.404  0.00  0.00    +0.000 HD
BRANCH  30  33
ATOM     33  C   UNL     1      45.100   3.926   9.233  0.00  0.00    +0.000 A 
ATOM     34  C   UNL     1      45.864   4.321   8.123  0.00  0.00    +0.000 A 
ATOM     35  C   UNL     1      46.471   3.364   7.305  0.00  0.00    +0.000 A 
ATOM     36  C   UNL     1      46.319   2.008   7.593  0.00  0.00    +0.000 A 
ATOM     37  C   UNL     1      45.564   1.607   8.695  0.00  0.00    +0.000 A 
ATOM     38  C   UNL     1      44.961   2.562   9.520  0.00  0.00    +0.000 A 
ENDBRANCH  30  33
ENDBRANCH  28  29
ENDBRANCH   6  28
TORSDOF 7
ENDMDL
MODEL 8
REMARK VINA RESULT:    -8.187      3.211      6.711
REMARK INTER + INTRA:         -12.678
REMARK INTER:                 -10.217
REMARK INTRA:                  -2.461
REMARK UNBOUND:                -1.140
REMARK  Name = 
REMARK  7 active torsions:
REMARK  status: ('A' for Active; 'I' for Inactive)
REMARK    1  A    between atoms: C_2  and  C_4
REMARK    2  A    between atoms: C_7  and  C_8
REMARK    3  A    between atoms: C_8  and  N_9
REMARK    4  A    between atoms: C_10  and  C_12
REMARK    5  A    between atoms: C_23  and  C_24
REMARK    6  A    between atoms: C_24  and  N_25
REMARK    7  A    between atoms: C_26  and  C_28
REMARK                            x       y       z     vdW  Elec       q    Type
REMARK                         _______ _______ _______ _____ _____    ______ ____
ROOT
ATOM      1  C   UNL     1      44.868   4.677  12.086  0.00  0.00    +0.000 A 
ATOM      2  C   UNL     1      44.258   5.747  11.410  0.00  0.00    +0.000 A 
ATOM      3  C   UNL     1      44.636   7.063  11.661  0.00  0.00    +0.000 A 
ATOM      4  C   UNL     1      45.590   7.343  12.637  0.00  0.00    +0.000 A 
ATOM      5  C   UNL     1      46.211   6.279  13.311  0.00  0.00    +0.000 A 
ATOM      6  C   UNL     1      45.884   4.936  13.030  0.00  0.00    +0.000 A 
ENDROOT
BRANCH   1   8
ATOM      7  N   UNL     1      44.764   2.725  10.627  0.00  0.00    +0.000 N 
ATOM      8  C   UNL     1      44.368   3.298  11.808  0.00  0.00    +0.000 C 
ATOM      9  O   UNL     1      43.629   2.701  12.579  0.00  0.00    +0.000 OA
ATOM     10  H   UNL     1      44.451   1.784  10.427  0.00  0.00    +0.000 HD
ATOM     11  H   UNL     1      45.474   3.119  10.026  0.00  0.00    +0.000 HD
ENDBRANCH   1   8
BRANCH   4  12
ATOM     12  C   UNL     1      45.957   8.772  12.929  0.00  0.00    +0.000 C 
BRANCH  12  13
ATOM     13  N   UNL     1      46.810   8.866  14.084  0.00  0.00    +0.000 N 
ATOM     14  C   UNL     1      48.138   9.194  14.037  0.00  0.00    +0.000 C 
ATOM     15  O   UNL     1      48.734   9.426  12.988  0.00  0.00    +0.000 OA
ATOM     16  H   UNL     1      46.447   8.427  14.920  0.00  0.00    +0.000 HD
BRANCH  14  17
ATOM     17  C   UNL     1      48.793   9.334  15.347  0.00  0.00    +0.000 A 
ATOM     18  C   UNL     1      48.799  10.557  16.004  0.00  0.00    +0.000 A 
ATOM     19  S   UNL     1      49.530  10.499  17.546  0.00  0.00    +0.000 S 
ATOM     20  C   UNL     1      49.916   8.850  17.364  0.00  0.00    +0.000 A 
ATOM     21  N   UNL     1      50.575   8.169  18.339  0.00  0.00    +0.000 NA
ATOM     22  C   UNL     1      50.820   6.931  18.054  0.00  0.00    +0.000 A 
ATOM     23  N   UNL     1      50.463   6.316  16.883  0.00  0.00    +0.000 N 
ATOM     24  C   UNL     1      49.762   6.951  15.893  0.00  0.00    +0.000 A 
ATOM     25  O   UNL     1      49.397   6.346  14.890  0.00  0.00    +0.000 OA
ATOM     26  C   UNL     1      49.474   8.350  16.155  0.00  0.00    +0.000 A 
ATOM     27  H   UNL     1      50.669   5.341  16.721  0.00  0.00    +0.000 HD
ENDBRANCH  14  17
ENDBRANCH  12  13
ENDBRANCH   4  12
BRANCH   6  28
ATOM     28  C   UNL     1      46.652   3.858  13.755  0.00  0.00    +0.000 C 
BRANCH  28  29
ATOM     29  N   UNL     1      46.974   4.239  15.108  0.00  0.00    +0.000 N 
ATOM     30  C   UNL     1      47.756   3.477  15.952  0.00  0.00    +0.000 C 
ATOM     31  O   UNL     1      48.324   2.446  15.619  0.00  0.00    +0.000 OA
ATOM     32  H   UNL     1      46.748   5.192  15.362  0.00  0.00    +0.000 HD
BRANCH  30  33
ATOM     33  C   UNL     1      47.878   4.002  17.340  0.00  0.00    +0.000 A 
ATOM     34  C   UNL     1      48.757   3.417  18.266  0.00  0.00    +0.000 A 
ATOM     35  C   UNL     1      48.888   3.950  19.550  0.00  0.00    +0.000 A 
ATOM     36  C   UNL     1      48.144   5.072  19.916  0.00  0.00    +0.000 A 
ATOM     37  C   UNL     1      47.271   5.660  19.001  0.00  0.00    +0.000 A 
ATOM     38  C   UNL     1      47.142   5.134  17.712  0.00  0.00    +0.000 A 
ENDBRANCH  30  33
ENDBRANCH  28  29
ENDBRANCH   6  28
TORSDOF 7
ENDMDL
MODEL 9
REMARK VINA RESULT:    -7.848      2.505      2.981
REMARK INTER + INTRA:         -12.199
REMARK INTER:                 -11.378
REMARK INTRA:                  -0.821
REMARK UNBOUND:                -1.140
REMARK  Name = 
REMARK  7 active torsions:
REMARK  status: ('A' for Active; 'I' for Inactive)
REMARK    1  A    between atoms: C_2  and  C_4
REMARK    2  A    between atoms: C_7  and  C_8
REMARK    3  A    between atoms: C_8  and  N_9
REMARK    4  A    between atoms: C_10  and  C_12
REMARK    5  A    between atoms: C_23  and  C_24
REMARK    6  A    between atoms: C_24  and  N_25
REMARK    7  A    between atoms: C_26  and  C_28
REMARK                            x       y       z     vdW  Elec       q    Type
REMARK                         _______ _______ _______ _____ _____    ______ ____
ROOT
ATOM      1  C   UNL     1      45.587   9.103  11.865  0.00  0.00    +0.000 A 
ATOM      2  C   UNL     1      46.702   9.854  12.277  0.00  0.00    +0.000 A 
ATOM      3  C   UNL     1      47.858   9.229  12.734  0.00  0.00    +0.000 A 
ATOM      4  C   UNL     1      47.907   7.841  12.847  0.00  0.00    +0.000 A 
ATOM      5  C   UNL     1      46.801   7.082  12.429  0.00  0.00    +0.000 A 
ATOM      6  C   UNL     1      45.641   7.693  11.908  0.00  0.00    +0.000 A 
ENDROOT
BRANCH   1   8
ATOM      7  N   UNL     1      43.911   9.617  10.169  0.00  0.00    +0.000 N 
ATOM      8  C   UNL     1      44.362   9.844  11.444  0.00  0.00    +0.000 C 
ATOM      9  O   UNL     1      43.785  10.630  12.183  0.00  0.00    +0.000 OA
ATOM     10  H   UNL     1      43.073  10.096   9.870  0.00  0.00    +0.000 HD
ATOM     11  H   UNL     1      44.270   8.885   9.573  0.00  0.00    +0.000 HD
ENDBRANCH   1   8
BRANCH   4  12
ATOM     12  C   UNL     1      49.147   7.182  13.385  0.00  0.00    +0.000 C 
BRANCH  12  13
ATOM     13  N   UNL     1      49.239   7.331  14.813  0.00  0.00    +0.000 N 
ATOM     14  C   UNL     1      48.743   6.430  15.716  0.00  0.00    +0.000 C 
ATOM     15  O   UNL     1      48.153   5.406  15.384  0.00  0.00    +0.000 OA
ATOM     16  H   UNL     1      49.463   8.265  15.132  0.00  0.00    +0.000 HD
BRANCH  14  17
ATOM     17  C   UNL     1      49.040   6.731  17.125  0.00  0.00    +0.000 A 
ATOM     18  C   UNL     1      48.600   7.916  17.700  0.00  0.00    +0.000 A 
ATOM     19  S   UNL     1      48.968   8.046  19.363  0.00  0.00    +0.000 S 
ATOM     20  C   UNL     1      49.778   6.548  19.358  0.00  0.00    +0.000 A 
ATOM     21  N   UNL     1      50.355   6.055  20.487  0.00  0.00    +0.000 NA
ATOM     22  C   UNL     1      50.953   4.920  20.330  0.00  0.00    +0.000 A 
ATOM     23  N   UNL     1      51.025   4.234  19.146  0.00  0.00    +0.000 N 
ATOM     24  C   UNL     1      50.423   4.670  17.995  0.00  0.00    +0.000 A 
ATOM     25  O   UNL     1      50.446   3.993  16.973  0.00  0.00    +0.000 OA
ATOM     26  C   UNL     1      49.749   5.951  18.112  0.00  0.00    +0.000 A 
ATOM     27  H   UNL     1      51.494   3.342  19.085  0.00  0.00    +0.000 HD
ENDBRANCH  14  17
ENDBRANCH  12  13
ENDBRANCH   4  12
BRANCH   6  28
ATOM     28  C   UNL     1      44.531   6.795  11.421  0.00  0.00    +0.000 C 
BRANCH  28  29
ATOM     29  N   UNL     1      44.988   5.862  10.421  0.00  0.00    +0.000 N 
ATOM     30  C   UNL     1      44.454   4.601  10.251  0.00  0.00    +0.000 C 
ATOM     31  O   UNL     1      43.488   4.174  10.868  0.00  0.00    +0.000 OA
ATOM     32  H   UNL     1      45.609   6.240   9.717  0.00  0.00    +0.000 HD
BRANCH  30  33
ATOM     33  C   UNL     1      45.142   3.760   9.232  0.00  0.00    +0.000 A 
ATOM     34  C   UNL     1      45.852   4.339   8.169  0.00  0.00    +0.000 A 
ATOM     35  C   UNL     1      46.526   3.534   7.247  0.00  0.00    +0.000 A 
ATOM     36  C   UNL     1      46.496   2.146   7.384  0.00  0.00    +0.000 A 
ATOM     37  C   UNL     1      45.794   1.563   8.440  0.00  0.00    +0.000 A 
ATOM     38  C   UNL     1      45.124   2.366   9.368  0.00  0.00    +0.000 A 
ENDBRANCH  30  33
ENDBRANCH  28  29
ENDBRANCH   6  28
TORSDOF 7
ENDMDL
