MODEL 1
REMARK VINA RESULT:    -8.618      0.000      0.000
REMARK INTER + INTRA:         -12.690
REMARK INTER:                 -11.641
REMARK INTRA:                  -1.049
REMARK UNBOUND:                -1.049
REMARK  Name = 
REMARK  7 active torsions:
REMARK  status: ('A' for Active; 'I' for Inactive)
REMARK    1  A    between atoms: C_1  and  C_2
REMARK    2  A    between atoms: C_5  and  C_6
REMARK    3  A    between atoms: C_6  and  N_7
REMARK    4  A    between atoms: C_8  and  C_10
REMARK    5  A    between atoms: C_21  and  C_22
REMARK    6  A    between atoms: C_22  and  N_23
REMARK    7  A    between atoms: C_24  and  C_26
REMARK                            x       y       z     vdW  Elec       q    Type
REMARK                         _______ _______ _______ _____ _____    ______ ____
ROOT
ATOM      1  C   UNL     1      45.034   7.960  11.258  0.00  0.00    +0.000 C 
ATOM      2  C   UNL     1      45.531   6.748  11.996  0.00  0.00    +0.000 A 
ATOM      3  C   UNL     1      46.316   6.975  13.143  0.00  0.00    +0.000 A 
ATOM      4  C   UNL     1      46.798   5.923  13.914  0.00  0.00    +0.000 A 
ATOM      5  C   UNL     1      46.499   4.606  13.565  0.00  0.00    +0.000 A 
ATOM      6  C   UNL     1      45.737   4.365  12.406  0.00  0.00    +0.000 A 
ATOM      7  C   UNL     1      45.229   5.422  11.612  0.00  0.00    +0.000 A 
ENDROOT
BRANCH   5   8
ATOM      8  C   UNL     1      47.003   3.488  14.441  0.00  0.00    +0.000 C 
BRANCH   8   9
ATOM      9  N   UNL     1      47.833   3.974  15.513  0.00  0.00    +0.000 N 
ATOM     10  C   UNL     1      47.547   3.774  16.839  0.00  0.00    +0.000 C 
ATOM     11  O   UNL     1      46.544   3.172  17.216  0.00  0.00    +0.000 OA
ATOM     12  H   UNL     1      48.544   4.650  15.255  0.00  0.00    +0.000 HD
BRANCH  10  13
ATOM     13  C   UNL     1      48.555   4.251  17.798  0.00  0.00    +0.000 A 
ATOM     14  C   UNL     1      48.255   5.309  18.647  0.00  0.00    +0.000 A 
ATOM     15  S   UNL     1      49.522   5.709  19.718  0.00  0.00    +0.000 S 
ATOM     16  C   UNL     1      50.533   4.511  19.055  0.00  0.00    +0.000 A 
ATOM     17  N   UNL     1      51.803   4.335  19.511  0.00  0.00    +0.000 NA
ATOM     18  C   UNL     1      52.467   3.413  18.895  0.00  0.00    +0.000 A 
ATOM     19  N   UNL     1      51.973   2.644  17.875  0.00  0.00    +0.000 N 
ATOM     20  C   UNL     1      50.678   2.743  17.427  0.00  0.00    +0.000 A 
ATOM     21  O   UNL     1      50.234   1.959  16.594  0.00  0.00    +0.000 OA
ATOM     22  C   UNL     1      49.901   3.797  18.053  0.00  0.00    +0.000 A 
ATOM     23  H   UNL     1      52.531   1.915  17.461  0.00  0.00    +0.000 HD
ENDBRANCH  10  13
ENDBRANCH   8   9
ENDBRANCH   5   8
BRANCH   7  24
ATOM     24  C   UNL     1      44.365   5.078  10.407  0.00  0.00    +0.000 C 
BRANCH  24  25
ATOM     25  N   UNL     1      45.093   4.407   9.349  0.00  0.00    +0.000 N 
ATOM     26  C   UNL     1      45.008   3.046   9.117  0.00  0.00    +0.000 C 
ATOM     27  O   UNL     1      44.304   2.288   9.764  0.00  0.00    +0.000 OA
ATOM     28  H   UNL     1      45.629   4.952   8.680  0.00  0.00    +0.000 HD
BRANCH  26  29
ATOM     29  C   UNL     1      45.882   2.555   7.983  0.00  0.00    +0.000 A 
ATOM     30  C   UNL     1      46.086   3.329   6.845  0.00  0.00    +0.000 A 
ATOM     31  C   UNL     1      46.880   2.809   5.820  0.00  0.00    +0.000 A 
ATOM     32  C   UNL     1      47.433   1.541   5.961  0.00  0.00    +0.000 A 
ATOM     33  C   UNL     1      47.178   0.842   7.130  0.00  0.00    +0.000 A 
ATOM     34  N   UNL     1      46.426   1.313   8.150  0.00  0.00    +0.000 NA
ENDBRANCH  26  29
ENDBRANCH  24  25
ENDBRANCH   7  24
TORSDOF 6
ENDMDL
MODEL 2
REMARK VINA RESULT:    -8.613      1.987      2.816
REMARK INTER + INTRA:         -12.683
REMARK INTER:                 -11.417
REMARK INTRA:                  -1.267
REMARK UNBOUND:                -1.049
REMARK  Name = 
REMARK  7 active torsions:
REMARK  status: ('A' for Active; 'I' for Inactive)
REMARK    1  A    between atoms: C_1  and  C_2
REMARK    2  A    between atoms: C_5  and  C_6
REMARK    3  A    between atoms: C_6  and  N_7
REMARK    4  A    between atoms: C_8  and  C_10
REMARK    5  A    between atoms: C_21  and  C_22
REMARK    6  A    between atoms: C_22  and  N_23
REMARK    7  A    between atoms: C_24  and  C_26
REMARK                            x       y       z     vdW  Elec       q    Type
REMARK                         _______ _______ _______ _____ _____    ______ ____
ROOT
ATOM      1  C   UNL     1      42.469   5.808  11.488  0.00  0.00    +0.000 C 
ATOM      2  C   UNL     1      43.943   6.039  11.678  0.00  0.00    +0.000 A 
ATOM      3  C   UNL     1      44.355   7.362  11.933  0.00  0.00    +0.000 A 
ATOM      4  C   UNL     1      45.691   7.676  12.154  0.00  0.00    +0.000 A 
ATOM      5  C   UNL     1      46.658   6.672  12.139  0.00  0.00    +0.000 A 
ATOM      6  C   UNL     1      46.262   5.350  11.861  0.00  0.00    +0.000 A 
ATOM      7  C   UNL     1      44.906   5.006  11.641  0.00  0.00    +0.000 A 
ENDROOT
BRANCH   5   8
ATOM      8  C   UNL     1      48.092   7.037  12.421  0.00  0.00    +0.000 C 
BRANCH   8   9
ATOM      9  N   UNL     1      48.552   6.494  13.674  0.00  0.00    +0.000 N 
ATOM     10  C   UNL     1      48.525   7.191  14.854  0.00  0.00    +0.000 C 
ATOM     11  O   UNL     1      48.117   8.348  14.930  0.00  0.00    +0.000 OA
ATOM     12  H   UNL     1      49.089   5.635  13.616  0.00  0.00    +0.000 HD
BRANCH  10  13
ATOM     13  C   UNL     1      48.941   6.449  16.054  0.00  0.00    +0.000 A 
ATOM     14  C   UNL     1      49.951   6.953  16.863  0.00  0.00    +0.000 A 
ATOM     15  S   UNL     1      50.281   5.985  18.230  0.00  0.00    +0.000 S 
ATOM     16  C   UNL     1      49.115   4.836  17.765  0.00  0.00    +0.000 A 
ATOM     17  N   UNL     1      48.904   3.714  18.504  0.00  0.00    +0.000 NA
ATOM     18  C   UNL     1      48.014   2.913  18.016  0.00  0.00    +0.000 A 
ATOM     19  N   UNL     1      47.307   3.141  16.865  0.00  0.00    +0.000 N 
ATOM     20  C   UNL     1      47.440   4.289  16.124  0.00  0.00    +0.000 A 
ATOM     21  O   UNL     1      46.707   4.513  15.165  0.00  0.00    +0.000 OA
ATOM     22  C   UNL     1      48.463   5.201  16.601  0.00  0.00    +0.000 A 
ATOM     23  H   UNL     1      46.598   2.495  16.557  0.00  0.00    +0.000 HD
ENDBRANCH  10  13
ENDBRANCH   8   9
ENDBRANCH   5   8
BRANCH   7  24
ATOM     24  C   UNL     1      44.554   3.544  11.403  0.00  0.00    +0.000 C 
BRANCH  24  25
ATOM     25  N   UNL     1      45.271   2.952  10.292  0.00  0.00    +0.000 N 
ATOM     26  C   UNL     1      45.068   3.322   8.974  0.00  0.00    +0.000 C 
ATOM     27  O   UNL     1      44.282   4.188   8.625  0.00  0.00    +0.000 OA
ATOM     28  H   UNL     1      46.026   2.296  10.471  0.00  0.00    +0.000 HD
BRANCH  26  29
ATOM     29  C   UNL     1      45.901   2.547   7.977  0.00  0.00    +0.000 A 
ATOM     30  C   UNL     1      46.287   3.115   6.767  0.00  0.00    +0.000 A 
ATOM     31  C   UNL     1      47.032   2.339   5.876  0.00  0.00    +0.000 A 
ATOM     32  C   UNL     1      47.356   1.031   6.215  0.00  0.00    +0.000 A 
ATOM     33  C   UNL     1      46.931   0.548   7.443  0.00  0.00    +0.000 A 
ATOM     34  N   UNL     1      46.220   1.269   8.338  0.00  0.00    +0.000 NA
ENDBRANCH  26  29
ENDBRANCH  24  25
ENDBRANCH   7  24
TORSDOF 6
ENDMDL
MODEL 3
REMARK VINA RESULT:    -8.127      2.308      3.423
REMARK INTER + INTRA:         -12.027
REMARK INTER:                 -10.885
REMARK INTRA:                  -1.141
REMARK UNBOUND:                -1.049
REMARK  Name = 
REMARK  7 active torsions:
REMARK  status: ('A' for Active; 'I' for Inactive)
REMARK    1  A    between atoms: C_1  and  C_2
REMARK    2  A    between atoms: C_5  and  C_6
REMARK    3  A    between atoms: C_6  and  N_7
REMARK    4  A    between atoms: C_8  and  C_10
REMARK    5  A    between atoms: C_21  and  C_22
REMARK    6  A    between atoms: C_22  and  N_23
REMARK    7  A    between atoms: C_24  and  C_26
REMARK                            x       y       z     vdW  Elec       q    Type
REMARK                         _______ _______ _______ _____ _____    ______ ____
ROOT
ATOM      1  C   UNL     1      44.240   9.721  11.579  0.00  0.00    +0.000 C 
ATOM      2  C   UNL     1      45.591   9.117  11.851  0.00  0.00    +0.000 A 
ATOM      3  C   UNL     1      46.616   9.997  12.246  0.00  0.00    +0.000 A 
ATOM      4  C   UNL     1      47.892   9.535  12.551  0.00  0.00    +0.000 A 
ATOM      5  C   UNL     1      48.179   8.172  12.480  0.00  0.00    +0.000 A 
ATOM      6  C   UNL     1      47.168   7.286  12.061  0.00  0.00    +0.000 A 
ATOM      7  C   UNL     1      45.860   7.733  11.754  0.00  0.00    +0.000 A 
ENDROOT
BRANCH   5   8
ATOM      8  C   UNL     1      49.559   7.697  12.853  0.00  0.00    +0.000 C 
BRANCH   8   9
ATOM      9  N   UNL     1      49.552   6.912  14.061  0.00  0.00    +0.000 N 
ATOM     10  C   UNL     1      49.433   7.455  15.314  0.00  0.00    +0.000 C 
ATOM     11  O   UNL     1      49.338   8.665  15.504  0.00  0.00    +0.000 OA
ATOM     12  H   UNL     1      49.840   5.944  13.964  0.00  0.00    +0.000 HD
BRANCH  10  13
ATOM     13  C   UNL     1      49.344   6.499  16.428  0.00  0.00    +0.000 A 
ATOM     14  C   UNL     1      50.143   6.670  17.552  0.00  0.00    +0.000 A 
ATOM     15  S   UNL     1      49.886   5.494  18.761  0.00  0.00    +0.000 S 
ATOM     16  C   UNL     1      48.728   4.689  17.808  0.00  0.00    +0.000 A 
ATOM     17  N   UNL     1      48.121   3.556  18.253  0.00  0.00    +0.000 NA
ATOM     18  C   UNL     1      47.289   3.032  17.413  0.00  0.00    +0.000 A 
ATOM     19  N   UNL     1      47.001   3.546  16.176  0.00  0.00    +0.000 N 
ATOM     20  C   UNL     1      47.541   4.721  15.713  0.00  0.00    +0.000 A 
ATOM     21  O   UNL     1      47.172   5.213  14.652  0.00  0.00    +0.000 OA
ATOM     22  C   UNL     1      48.520   5.326  16.598  0.00  0.00    +0.000 A 
ATOM     23  H   UNL     1      46.314   3.111  15.582  0.00  0.00    +0.000 HD
ENDBRANCH  10  13
ENDBRANCH   8   9
ENDBRANCH   5   8
BRANCH   7  24
ATOM     24  C   UNL     1      44.810   6.703  11.364  0.00  0.00    +0.000 C 
BRANCH  24  25
ATOM     25  N   UNL     1      45.281   5.740  10.390  0.00  0.00    +0.000 N 
ATOM     26  C   UNL     1      44.598   4.577  10.082  0.00  0.00    +0.000 C 
ATOM     27  O   UNL     1      43.532   4.260  10.585  0.00  0.00    +0.000 OA
ATOM     28  H   UNL     1      46.104   5.948   9.831  0.00  0.00    +0.000 HD
BRANCH  26  29
ATOM     29  C   UNL     1      45.293   3.702   9.062  0.00  0.00    +0.000 A 
ATOM     30  C   UNL     1      45.292   2.315   9.184  0.00  0.00    +0.000 A 
ATOM     31  C   UNL     1      45.975   1.563   8.224  0.00  0.00    +0.000 A 
ATOM     32  C   UNL     1      46.636   2.214   7.190  0.00  0.00    +0.000 A 
ATOM     33  C   UNL     1      46.582   3.598   7.146  0.00  0.00    +0.000 A 
ATOM     34  N   UNL     1      45.924   4.362   8.046  0.00  0.00    +0.000 NA
ENDBRANCH  26  29
ENDBRANCH  24  25
ENDBRANCH   7  24
TORSDOF 6
ENDMDL
MODEL 4
REMARK VINA RESULT:    -7.946      2.243      2.590
REMARK INTER + INTRA:         -11.782
REMARK INTER:                 -10.701
REMARK INTRA:                  -1.081
REMARK UNBOUND:                -1.049
REMARK  Name = 
REMARK  7 active torsions:
REMARK  status: ('A' for Active; 'I' for Inactive)
REMARK    1  A    between atoms: C_1  and  C_2
REMARK    2  A    between atoms: C_5  and  C_6
REMARK    3  A    between atoms: C_6  and  N_7
REMARK    4  A    between atoms: C_8  and  C_10
REMARK    5  A    between atoms: C_21  and  C_22
REMARK    6  A    between atoms: C_22  and  N_23
REMARK    7  A    between atoms: C_24  and  C_26
REMARK                            x       y       z     vdW  Elec       q    Type
REMARK                         _______ _______ _______ _____ _____    ______ ____
ROOT
ATOM      1  C   UNL     1      42.489   5.701  11.671  0.00  0.00    +0.000 C 
ATOM      2  C   UNL     1      43.938   5.703  12.076  0.00  0.00    +0.000 A 
ATOM      3  C   UNL     1      44.459   6.911  12.577  0.00  0.00    +0.000 A 
ATOM      4  C   UNL     1      45.778   7.009  13.008  0.00  0.00    +0.000 A 
ATOM      5  C   UNL     1      46.615   5.895  12.961  0.00  0.00    +0.000 A 
ATOM      6  C   UNL     1      46.112   4.688  12.438  0.00  0.00    +0.000 A 
ATOM      7  C   UNL     1      44.770   4.563  12.001  0.00  0.00    +0.000 A 
ENDROOT
BRANCH   5   8
ATOM      8  C   UNL     1      48.027   6.022  13.470  0.00  0.00    +0.000 C 
BRANCH   8   9
ATOM      9  N   UNL     1      48.070   6.254  14.891  0.00  0.00    +0.000 N 
ATOM     10  C   UNL     1      48.076   5.247  15.821  0.00  0.00    +0.000 C 
ATOM     11  O   UNL     1      48.030   4.059  15.510  0.00  0.00    +0.000 OA
ATOM     12  H   UNL     1      47.893   7.207  15.192  0.00  0.00    +0.000 HD
BRANCH  10  13
ATOM     13  C   UNL     1      48.224   5.662  17.224  0.00  0.00    +0.000 A 
ATOM     14  C   UNL     1      47.360   5.157  18.189  0.00  0.00    +0.000 A 
ATOM     15  S   UNL     1      47.695   5.714  19.767  0.00  0.00    +0.000 S 
ATOM     16  C   UNL     1      48.979   6.683  19.211  0.00  0.00    +0.000 A 
ATOM     17  N   UNL     1      49.691   7.462  20.069  0.00  0.00    +0.000 NA
ATOM     18  C   UNL     1      50.614   8.171  19.506  0.00  0.00    +0.000 A 
ATOM     19  N   UNL     1      50.896   8.160  18.165  0.00  0.00    +0.000 N 
ATOM     20  C   UNL     1      50.247   7.342  17.273  0.00  0.00    +0.000 A 
ATOM     21  O   UNL     1      50.606   7.272  16.102  0.00  0.00    +0.000 OA
ATOM     22  C   UNL     1      49.168   6.560  17.846  0.00  0.00    +0.000 A 
ATOM     23  H   UNL     1      51.655   8.708  17.793  0.00  0.00    +0.000 HD
ENDBRANCH  10  13
ENDBRANCH   8   9
ENDBRANCH   5   8
BRANCH   7  24
ATOM     24  C   UNL     1      44.289   3.208  11.502  0.00  0.00    +0.000 C 
BRANCH  24  25
ATOM     25  N   UNL     1      45.046   2.708  10.373  0.00  0.00    +0.000 N 
ATOM     26  C   UNL     1      44.975   3.262   9.107  0.00  0.00    +0.000 C 
ATOM     27  O   UNL     1      44.285   4.228   8.826  0.00  0.00    +0.000 OA
ATOM     28  H   UNL     1      45.734   1.973  10.512  0.00  0.00    +0.000 HD
BRANCH  26  29
ATOM     29  C   UNL     1      45.824   2.556   8.073  0.00  0.00    +0.000 A 
ATOM     30  C   UNL     1      46.201   3.194   6.895  0.00  0.00    +0.000 A 
ATOM     31  C   UNL     1      46.963   2.481   5.966  0.00  0.00    +0.000 A 
ATOM     32  C   UNL     1      47.312   1.163   6.238  0.00  0.00    +0.000 A 
ATOM     33  C   UNL     1      46.895   0.609   7.438  0.00  0.00    +0.000 A 
ATOM     34  N   UNL     1      46.168   1.268   8.368  0.00  0.00    +0.000 NA
ENDBRANCH  26  29
ENDBRANCH  24  25
ENDBRANCH   7  24
TORSDOF 6
ENDMDL
MODEL 5
REMARK VINA RESULT:    -7.898      2.057      2.725
REMARK INTER + INTRA:         -11.717
REMARK INTER:                 -10.882
REMARK INTRA:                  -0.835
REMARK UNBOUND:                -1.049
REMARK  Name = 
REMARK  7 active torsions:
REMARK  status: ('A' for Active; 'I' for Inactive)
REMARK    1  A    between atoms: C_1  and  C_2
REMARK    2  A    between atoms: C_5  and  C_6
REMARK    3  A    between atoms: C_6  and  N_7
REMARK    4  A    between atoms: C_8  and  C_10
REMARK    5  A    between atoms: C_21  and  C_22
REMARK    6  A    between atoms: C_22  and  N_23
REMARK    7  A    between atoms: C_24  and  C_26
REMARK                            x       y       z     vdW  Elec       q    Type
REMARK                         _______ _______ _______ _____ _____    ______ ____
ROOT
ATOM      1  C   UNL     1      44.022   9.221  11.292  0.00  0.00    +0.000 C 
ATOM      2  C   UNL     1      45.095   8.375  11.919  0.00  0.00    +0.000 A 
ATOM      3  C   UNL     1      46.026   9.033  12.747  0.00  0.00    +0.000 A 
ATOM      4  C   UNL     1      47.038   8.336  13.398  0.00  0.00    +0.000 A 
ATOM      5  C   UNL     1      47.144   6.954  13.250  0.00  0.00    +0.000 A 
ATOM      6  C   UNL     1      46.234   6.289  12.405  0.00  0.00    +0.000 A 
ATOM      7  C   UNL     1      45.191   6.976  11.739  0.00  0.00    +0.000 A 
ENDROOT
BRANCH   5   8
ATOM      8  C   UNL     1      48.227   6.221  13.999  0.00  0.00    +0.000 C 
BRANCH   8   9
ATOM      9  N   UNL     1      48.109   6.392  15.424  0.00  0.00    +0.000 N 
ATOM     10  C   UNL     1      49.187   6.524  16.260  0.00  0.00    +0.000 C 
ATOM     11  O   UNL     1      50.347   6.491  15.855  0.00  0.00    +0.000 OA
ATOM     12  H   UNL     1      47.193   6.211  15.820  0.00  0.00    +0.000 HD
BRANCH  10  13
ATOM     13  C   UNL     1      48.881   6.790  17.674  0.00  0.00    +0.000 A 
ATOM     14  C   UNL     1      48.694   8.097  18.108  0.00  0.00    +0.000 A 
ATOM     15  S   UNL     1      48.312   8.220  19.766  0.00  0.00    +0.000 S 
ATOM     16  C   UNL     1      48.426   6.535  19.974  0.00  0.00    +0.000 A 
ATOM     17  N   UNL     1      48.236   5.965  21.195  0.00  0.00    +0.000 NA
ATOM     18  C   UNL     1      48.386   4.682  21.213  0.00  0.00    +0.000 A 
ATOM     19  N   UNL     1      48.696   3.916  20.119  0.00  0.00    +0.000 N 
ATOM     20  C   UNL     1      48.832   4.441  18.857  0.00  0.00    +0.000 A 
ATOM     21  O   UNL     1      48.992   3.712  17.883  0.00  0.00    +0.000 OA
ATOM     22  C   UNL     1      48.722   5.886  18.788  0.00  0.00    +0.000 A 
ATOM     23  H   UNL     1      48.761   2.914  20.192  0.00  0.00    +0.000 HD
ENDBRANCH  10  13
ENDBRANCH   8   9
ENDBRANCH   5   8
BRANCH   7  24
ATOM     24  C   UNL     1      44.215   6.175  10.889  0.00  0.00    +0.000 C 
BRANCH  24  25
ATOM     25  N   UNL     1      44.866   5.318   9.919  0.00  0.00    +0.000 N 
ATOM     26  C   UNL     1      44.505   3.999   9.711  0.00  0.00    +0.000 C 
ATOM     27  O   UNL     1      43.600   3.439  10.307  0.00  0.00    +0.000 OA
ATOM     28  H   UNL     1      45.563   5.706   9.290  0.00  0.00    +0.000 HD
BRANCH  26  29
ATOM     29  C   UNL     1      45.343   3.283   8.674  0.00  0.00    +0.000 A 
ATOM     30  C   UNL     1      45.628   1.926   8.791  0.00  0.00    +0.000 A 
ATOM     31  C   UNL     1      46.430   1.328   7.816  0.00  0.00    +0.000 A 
ATOM     32  C   UNL     1      46.924   2.100   6.771  0.00  0.00    +0.000 A 
ATOM     33  C   UNL     1      46.588   3.444   6.733  0.00  0.00    +0.000 A 
ATOM     34  N   UNL     1      45.806   4.058   7.648  0.00  0.00    +0.000 NA
ENDBRANCH  26  29
ENDBRANCH  24  25
ENDBRANCH   7  24
TORSDOF 6
ENDMDL
MODEL 6
REMARK VINA RESULT:    -7.769      2.560      3.479
REMARK INTER + INTRA:         -11.542
REMARK INTER:                 -10.658
REMARK INTRA:                  -0.884
REMARK UNBOUND:                -1.049
REMARK  Name = 
REMARK  7 active torsions:
REMARK  status: ('A' for Active; 'I' for Inactive)
REMARK    1  A    between atoms: C_1  and  C_2
REMARK    2  A    between atoms: C_5  and  C_6
REMARK    3  A    between atoms: C_6  and  N_7
REMARK    4  A    between atoms: C_8  and  C_10
REMARK    5  A    between atoms: C_21  and  C_22
REMARK    6  A    between atoms: C_22  and  N_23
REMARK    7  A    between atoms: C_24  and  C_26
REMARK                            x       y       z     vdW  Elec       q    Type
REMARK                         _______ _______ _______ _____ _____    ______ ____
ROOT
ATOM      1  C   UNL     1      43.349   9.785  10.693  0.00  0.00    +0.000 C 
ATOM      2  C   UNL     1      44.612   9.363  11.392  0.00  0.00    +0.000 A 
ATOM      3  C   UNL     1      45.494  10.385  11.790  0.00  0.00    +0.000 A 
ATOM      4  C   UNL     1      46.673  10.102  12.471  0.00  0.00    +0.000 A 
ATOM      5  C   UNL     1      47.002   8.784  12.785  0.00  0.00    +0.000 A 
ATOM      6  C   UNL     1      46.139   7.751  12.370  0.00  0.00    +0.000 A 
ATOM      7  C   UNL     1      44.930   8.016  11.684  0.00  0.00    +0.000 A 
ENDROOT
BRANCH   5   8
ATOM      8  C   UNL     1      48.266   8.512  13.557  0.00  0.00    +0.000 C 
BRANCH   8   9
ATOM      9  N   UNL     1      48.046   7.603  14.653  0.00  0.00    +0.000 N 
ATOM     10  C   UNL     1      48.178   6.243  14.543  0.00  0.00    +0.000 C 
ATOM     11  O   UNL     1      48.483   5.690  13.489  0.00  0.00    +0.000 OA
ATOM     12  H   UNL     1      47.590   7.994  15.470  0.00  0.00    +0.000 HD
BRANCH  10  13
ATOM     13  C   UNL     1      48.013   5.474  15.786  0.00  0.00    +0.000 A 
ATOM     14  C   UNL     1      47.271   4.299  15.779  0.00  0.00    +0.000 A 
ATOM     15  S   UNL     1      47.213   3.517  17.295  0.00  0.00    +0.000 S 
ATOM     16  C   UNL     1      48.139   4.744  18.025  0.00  0.00    +0.000 A 
ATOM     17  N   UNL     1      48.438   4.701  19.351  0.00  0.00    +0.000 NA
ATOM     18  C   UNL     1      49.118   5.714  19.778  0.00  0.00    +0.000 A 
ATOM     19  N   UNL     1      49.538   6.757  18.995  0.00  0.00    +0.000 N 
ATOM     20  C   UNL     1      49.316   6.809  17.641  0.00  0.00    +0.000 A 
ATOM     21  O   UNL     1      49.808   7.698  16.952  0.00  0.00    +0.000 OA
ATOM     22  C   UNL     1      48.513   5.719  17.118  0.00  0.00    +0.000 A 
ATOM     23  H   UNL     1      50.100   7.499  19.381  0.00  0.00    +0.000 HD
ENDBRANCH  10  13
ENDBRANCH   8   9
ENDBRANCH   5   8
BRANCH   7  24
ATOM     24  C   UNL     1      44.025   6.848  11.320  0.00  0.00    +0.000 C 
BRANCH  24  25
ATOM     25  N   UNL     1      44.639   5.907  10.406  0.00  0.00    +0.000 N 
ATOM     26  C   UNL     1      44.214   4.598  10.266  0.00  0.00    +0.000 C 
ATOM     27  O   UNL     1      43.277   4.118  10.882  0.00  0.00    +0.000 OA
ATOM     28  H   UNL     1      45.361   6.224   9.764  0.00  0.00    +0.000 HD
BRANCH  26  29
ATOM     29  C   UNL     1      45.023   3.785   9.279  0.00  0.00    +0.000 A 
ATOM     30  C   UNL     1      45.082   2.397   9.367  0.00  0.00    +0.000 A 
ATOM     31  C   UNL     1      45.868   1.705   8.443  0.00  0.00    +0.000 A 
ATOM     32  C   UNL     1      46.571   2.415   7.477  0.00  0.00    +0.000 A 
ATOM     33  C   UNL     1      46.453   3.795   7.463  0.00  0.00    +0.000 A 
ATOM     34  N   UNL     1      45.694   4.502   8.330  0.00  0.00    +0.000 NA
ENDBRANCH  26  29
ENDBRANCH  24  25
ENDBRANCH   7  24
TORSDOF 6
ENDMDL
MODEL 7
REMARK VINA RESULT:    -7.498      2.818      3.935
REMARK INTER + INTRA:         -11.177
REMARK INTER:                 -10.151
REMARK INTRA:                  -1.025
REMARK UNBOUND:                -1.049
REMARK  Name = 
REMARK  7 active torsions:
REMARK  status: ('A' for Active; 'I' for Inactive)
REMARK    1  A    between atoms: C_1  and  C_2
REMARK    2  A    between atoms: C_5  and  C_6
REMARK    3  A    between atoms: C_6  and  N_7
REMARK    4  A    between atoms: C_8  and  C_10
REMARK    5  A    between atoms: C_21  and  C_22
REMARK    6  A    between atoms: C_22  and  N_23
REMARK    7  A    between atoms: C_24  and  C_26
REMARK                            x       y       z     vdW  Elec       q    Type
REMARK                         _______ _______ _______ _____ _____    ______ ____
ROOT
ATOM      1  C   UNL     1      44.362   9.893  11.316  0.00  0.00    +0.000 C 
ATOM      2  C   UNL     1      45.437   9.056  11.951  0.00  0.00    +0.000 A 
ATOM      3  C   UNL     1      46.447   9.740  12.655  0.00  0.00    +0.000 A 
ATOM      4  C   UNL     1      47.469   9.057  13.304  0.00  0.00    +0.000 A 
ATOM      5  C   UNL     1      47.506   7.663  13.280  0.00  0.00    +0.000 A 
ATOM      6  C   UNL     1      46.515   6.969  12.559  0.00  0.00    +0.000 A 
ATOM      7  C   UNL     1      45.460   7.644  11.897  0.00  0.00    +0.000 A 
ENDROOT
BRANCH   5   8
ATOM      8  C   UNL     1      48.603   6.949  14.026  0.00  0.00    +0.000 C 
BRANCH   8   9
ATOM      9  N   UNL     1      48.306   6.818  15.430  0.00  0.00    +0.000 N 
ATOM     10  C   UNL     1      49.240   6.465  16.368  0.00  0.00    +0.000 C 
ATOM     11  O   UNL     1      50.408   6.215  16.079  0.00  0.00    +0.000 OA
ATOM     12  H   UNL     1      47.323   6.804  15.677  0.00  0.00    +0.000 HD
BRANCH  10  13
ATOM     13  C   UNL     1      48.788   6.476  17.768  0.00  0.00    +0.000 A 
ATOM     14  C   UNL     1      48.849   5.311  18.524  0.00  0.00    +0.000 A 
ATOM     15  S   UNL     1      48.320   5.511  20.134  0.00  0.00    +0.000 S 
ATOM     16  C   UNL     1      47.950   7.151  19.866  0.00  0.00    +0.000 A 
ATOM     17  N   UNL     1      47.419   7.920  20.855  0.00  0.00    +0.000 NA
ATOM     18  C   UNL     1      47.157   9.135  20.502  0.00  0.00    +0.000 A 
ATOM     19  N   UNL     1      47.389   9.654  19.256  0.00  0.00    +0.000 N 
ATOM     20  C   UNL     1      47.983   8.934  18.248  0.00  0.00    +0.000 A 
ATOM     21  O   UNL     1      48.284   9.464  17.183  0.00  0.00    +0.000 OA
ATOM     22  C   UNL     1      48.254   7.547  18.576  0.00  0.00    +0.000 A 
ATOM     23  H   UNL     1      47.198  10.622  19.055  0.00  0.00    +0.000 HD
ENDBRANCH  10  13
ENDBRANCH   8   9
ENDBRANCH   5   8
BRANCH   7  24
ATOM     24  C   UNL     1      44.397   6.818  11.188  0.00  0.00    +0.000 C 
BRANCH  24  25
ATOM     25  N   UNL     1      44.945   5.848  10.261  0.00  0.00    +0.000 N 
ATOM     26  C   UNL     1      44.408   4.586  10.079  0.00  0.00    +0.000 C 
ATOM     27  O   UNL     1      43.418   4.177  10.665  0.00  0.00    +0.000 OA
ATOM     28  H   UNL     1      45.705   6.114   9.642  0.00  0.00    +0.000 HD
BRANCH  26  29
ATOM     29  C   UNL     1      45.162   3.728   9.088  0.00  0.00    +0.000 A 
ATOM     30  C   UNL     1      45.230   2.346   9.237  0.00  0.00    +0.000 A 
ATOM     31  C   UNL     1      45.965   1.611   8.304  0.00  0.00    +0.000 A 
ATOM     32  C   UNL     1      46.610   2.275   7.267  0.00  0.00    +0.000 A 
ATOM     33  C   UNL     1      46.486   3.654   7.195  0.00  0.00    +0.000 A 
ATOM     34  N   UNL     1      45.776   4.400   8.069  0.00  0.00    +0.000 NA
ENDBRANCH  26  29
ENDBRANCH  24  25
ENDBRANCH   7  24
TORSDOF 6
ENDMDL
MODEL 8
REMARK VINA RESULT:    -7.472      3.931     10.111
REMARK INTER + INTRA:         -11.142
REMARK INTER:                 -10.125
REMARK INTRA:                  -1.017
REMARK UNBOUND:                -1.049
REMARK  Name = 
REMARK  7 active torsions:
REMARK  status: ('A' for Active; 'I' for Inactive)
REMARK    1  A    between atoms: C_1  and  C_2
REMARK    2  A    between atoms: C_5  and  C_6
REMARK    3  A    between atoms: C_6  and  N_7
REMARK    4  A    between atoms: C_8  and  C_10
REMARK    5  A    between atoms: C_21  and  C_22
REMARK    6  A    between atoms: C_22  and  N_23
REMARK    7  A    between atoms: C_24  and  C_26
REMARK                            x       y       z     vdW  Elec       q    Type
REMARK                         _______ _______ _______ _____ _____    ______ ____
ROOT
ATOM      1  C   UNL     1      52.816   2.921  18.078  0.00  0.00    +0.000 C 
ATOM      2  C   UNL     1      51.357   3.123  17.772  0.00  0.00    +0.000 A 
ATOM      3  C   UNL     1      50.687   2.065  17.128  0.00  0.00    +0.000 A 
ATOM      4  C   UNL     1      49.331   2.139  16.829  0.00  0.00    +0.000 A 
ATOM      5  C   UNL     1      48.598   3.273  17.178  0.00  0.00    +0.000 A 
ATOM      6  C   UNL     1      49.263   4.347  17.801  0.00  0.00    +0.000 A 
ATOM      7  C   UNL     1      50.641   4.290  18.121  0.00  0.00    +0.000 A 
ENDROOT
BRANCH   5   8
ATOM      8  C   UNL     1      47.123   3.309  16.877  0.00  0.00    +0.000 C 
BRANCH   8   9
ATOM      9  N   UNL     1      46.796   4.308  15.891  0.00  0.00    +0.000 N 
ATOM     10  C   UNL     1      46.903   4.099  14.541  0.00  0.00    +0.000 C 
ATOM     11  O   UNL     1      47.303   3.039  14.064  0.00  0.00    +0.000 OA
ATOM     12  H   UNL     1      46.671   5.252  16.239  0.00  0.00    +0.000 HD
BRANCH  10  13
ATOM     13  C   UNL     1      46.433   5.193  13.677  0.00  0.00    +0.000 A 
ATOM     14  C   UNL     1      47.251   6.292  13.447  0.00  0.00    +0.000 A 
ATOM     15  S   UNL     1      46.566   7.448  12.394  0.00  0.00    +0.000 S 
ATOM     16  C   UNL     1      45.134   6.541  12.243  0.00  0.00    +0.000 A 
ATOM     17  N   UNL     1      44.097   6.990  11.487  0.00  0.00    +0.000 NA
ATOM     18  C   UNL     1      43.061   6.217  11.489  0.00  0.00    +0.000 A 
ATOM     19  N   UNL     1      42.974   5.031  12.169  0.00  0.00    +0.000 N 
ATOM     20  C   UNL     1      44.018   4.508  12.891  0.00  0.00    +0.000 A 
ATOM     21  O   UNL     1      43.946   3.388  13.389  0.00  0.00    +0.000 OA
ATOM     22  C   UNL     1      45.191   5.360  12.961  0.00  0.00    +0.000 A 
ATOM     23  H   UNL     1      42.150   4.454  12.099  0.00  0.00    +0.000 HD
ENDBRANCH  10  13
ENDBRANCH   8   9
ENDBRANCH   5   8
BRANCH   7  24
ATOM     24  C   UNL     1      51.271   5.471  18.845  0.00  0.00    +0.000 C 
BRANCH  24  25
ATOM     25  N   UNL     1      50.300   6.374  19.428  0.00  0.00    +0.000 N 
ATOM     26  C   UNL     1      49.948   7.583  18.854  0.00  0.00    +0.000 C 
ATOM     27  O   UNL     1      50.406   7.994  17.799  0.00  0.00    +0.000 OA
ATOM     28  H   UNL     1      49.775   6.090  20.251  0.00  0.00    +0.000 HD
BRANCH  26  29
ATOM     29  C   UNL     1      48.941   8.380  19.653  0.00  0.00    +0.000 A 
ATOM     30  C   UNL     1      47.815   8.929  19.048  0.00  0.00    +0.000 A 
ATOM     31  C   UNL     1      46.936   9.678  19.834  0.00  0.00    +0.000 A 
ATOM     32  C   UNL     1      47.213   9.861  21.184  0.00  0.00    +0.000 A 
ATOM     33  C   UNL     1      48.357   9.276  21.702  0.00  0.00    +0.000 A 
ATOM     34  N   UNL     1      49.226   8.534  20.980  0.00  0.00    +0.000 NA
ENDBRANCH  26  29
ENDBRANCH  24  25
ENDBRANCH   7  24
TORSDOF 6
ENDMDL
MODEL 9
REMARK VINA RESULT:    -7.348      4.003      8.673
REMARK INTER + INTRA:         -10.974
REMARK INTER:                  -9.643
REMARK INTRA:                  -1.332
REMARK UNBOUND:                -1.049
REMARK  Name = 
REMARK  7 active torsions:
REMARK  status: ('A' for Active; 'I' for Inactive)
REMARK    1  A    between atoms: C_1  and  C_2
REMARK    2  A    between atoms: C_5  and  C_6
REMARK    3  A    between atoms: C_6  and  N_7
REMARK    4  A    between atoms: C_8  and  C_10
REMARK    5  A    between atoms: C_21  and  C_22
REMARK    6  A    between atoms: C_22  and  N_23
REMARK    7  A    between atoms: C_24  and  C_26
REMARK                            x       y       z     vdW  Elec       q    Type
REMARK                         _______ _______ _______ _____ _____    ______ ____
ROOT
ATOM      1  C   UNL     1      52.900   3.679  17.952  0.00  0.00    +0.000 C 
ATOM      2  C   UNL     1      51.440   3.736  17.593  0.00  0.00    +0.000 A 
ATOM      3  C   UNL     1      50.741   2.514  17.563  0.00  0.00    +0.000 A 
ATOM      4  C   UNL     1      49.382   2.461  17.273  0.00  0.00    +0.000 A 
ATOM      5  C   UNL     1      48.676   3.636  17.016  0.00  0.00    +0.000 A 
ATOM      6  C   UNL     1      49.369   4.861  17.019  0.00  0.00    +0.000 A 
ATOM      7  C   UNL     1      50.751   4.939  17.320  0.00  0.00    +0.000 A 
ENDROOT
BRANCH   5   8
ATOM      8  C   UNL     1      47.196   3.551  16.744  0.00  0.00    +0.000 C 
BRANCH   8   9
ATOM      9  N   UNL     1      46.779   4.486  15.730  0.00  0.00    +0.000 N 
ATOM     10  C   UNL     1      46.776   4.194  14.390  0.00  0.00    +0.000 C 
ATOM     11  O   UNL     1      47.146   3.109  13.948  0.00  0.00    +0.000 OA
ATOM     12  H   UNL     1      46.674   5.449  16.029  0.00  0.00    +0.000 HD
BRANCH  10  13
ATOM     13  C   UNL     1      46.225   5.231  13.503  0.00  0.00    +0.000 A 
ATOM     14  C   UNL     1      46.963   6.378  13.238  0.00  0.00    +0.000 A 
ATOM     15  S   UNL     1      46.191   7.455  12.163  0.00  0.00    +0.000 S 
ATOM     16  C   UNL     1      44.825   6.448  12.048  0.00  0.00    +0.000 A 
ATOM     17  N   UNL     1      43.754   6.804  11.289  0.00  0.00    +0.000 NA
ATOM     18  C   UNL     1      42.774   5.961  11.320  0.00  0.00    +0.000 A 
ATOM     19  N   UNL     1      42.775   4.790  12.030  0.00  0.00    +0.000 N 
ATOM     20  C   UNL     1      43.858   4.359  12.756  0.00  0.00    +0.000 A 
ATOM     21  O   UNL     1      43.868   3.251  13.283  0.00  0.00    +0.000 OA
ATOM     22  C   UNL     1      44.969   5.292  12.795  0.00  0.00    +0.000 A 
ATOM     23  H   UNL     1      41.993   4.156  11.983  0.00  0.00    +0.000 HD
ENDBRANCH  10  13
ENDBRANCH   8   9
ENDBRANCH   5   8
BRANCH   7  24
ATOM     24  C   UNL     1      51.413   6.308  17.358  0.00  0.00    +0.000 C 
BRANCH  24  25
ATOM     25  N   UNL     1      51.275   7.050  16.121  0.00  0.00    +0.000 N 
ATOM     26  C   UNL     1      50.489   8.182  16.000  0.00  0.00    +0.000 C 
ATOM     27  O   UNL     1      49.855   8.672  16.921  0.00  0.00    +0.000 OA
ATOM     28  H   UNL     1      51.839   6.798  15.315  0.00  0.00    +0.000 HD
BRANCH  26  29
ATOM     29  C   UNL     1      50.464   8.774  14.608  0.00  0.00    +0.000 A 
ATOM     30  C   UNL     1      50.312   7.966  13.486  0.00  0.00    +0.000 A 
ATOM     31  C   UNL     1      50.325   8.569  12.225  0.00  0.00    +0.000 A 
ATOM     32  C   UNL     1      50.497   9.945  12.128  0.00  0.00    +0.000 A 
ATOM     33  C   UNL     1      50.639  10.671  13.299  0.00  0.00    +0.000 A 
ATOM     34  N   UNL     1      50.620  10.129  14.537  0.00  0.00    +0.000 NA
ENDBRANCH  26  29
ENDBRANCH  24  25
ENDBRANCH   7  24
TORSDOF 6
ENDMDL
