MODEL 1
REMARK VINA RESULT:    -8.032      0.000      0.000
REMARK INTER + INTRA:         -12.956
REMARK INTER:                 -12.023
REMARK INTRA:                  -0.933
REMARK UNBOUND:                -0.933
REMARK  Name = 
REMARK  9 active torsions:
REMARK  status: ('A' for Active; 'I' for Inactive)
REMARK    1  A    between atoms: C_2  and  C_22
REMARK    2  A    between atoms: N_3  and  C_4
REMARK    3  A    between atoms: C_4  and  C_5
REMARK    4  A    between atoms: C_8  and  C_9
REMARK    5  A    between atoms: C_9  and  N_10
REMARK    6  A    between atoms: N_10  and  CA_11
REMARK    7  A    between atoms: CA_11  and  C_12
REMARK    8  A    between atoms: CA_11  and  C_14
REMARK    9  A    between atoms: C_12  and  O_13
REMARK                            x       y       z     vdW  Elec       q    Type
REMARK                         _______ _______ _______ _____ _____    ______ ____
ROOT
ATOM      1  C   UNL     1      46.331   7.968  13.011  0.00  0.00    +0.000 A 
ATOM      2  C   UNL     1      45.524   8.623  12.072  0.00  0.00    +0.000 A 
ATOM      3  C   UNL     1      44.478   7.947  11.435  0.00  0.00    +0.000 A 
ATOM      4  C   UNL     1      44.209   6.603  11.728  0.00  0.00    +0.000 A 
ATOM      5  C   UNL     1      45.006   5.955  12.683  0.00  0.00    +0.000 A 
ATOM      6  C   UNL     1      46.051   6.631  13.322  0.00  0.00    +0.000 A 
ENDROOT
BRANCH   1   7
ATOM      7  C   UNL     1      47.493   8.680  13.651  0.00  0.00    +0.000 C 
BRANCH   7  10
ATOM      8  O   UNL     1      49.567   6.896  13.736  0.00  0.00    +0.000 OA
ATOM      9  C   UNL     1      49.002   7.150  14.793  0.00  0.00    +0.000 C 
ATOM     10  N   UNL     1      47.951   8.041  14.859  0.00  0.00    +0.000 N 
ATOM     11  H   UNL     1      47.543   8.299  15.744  0.00  0.00    +0.000 HD
BRANCH   9  12
ATOM     12  C   UNL     1      49.392   6.514  16.054  0.00  0.00    +0.000 A 
ATOM     13  C   UNL     1      50.400   6.900  16.930  0.00  0.00    +0.000 A 
ATOM     14  N   UNL     1      50.388   6.050  18.008  0.00  0.00    +0.000 N 
ATOM     15  C   UNL     1      49.404   5.117  17.855  0.00  0.00    +0.000 A 
ATOM     16  N   UNL     1      49.132   4.151  18.751  0.00  0.00    +0.000 NA
ATOM     17  C   UNL     1      48.110   3.350  18.367  0.00  0.00    +0.000 A 
ATOM     18  C   UNL     1      47.393   3.465  17.183  0.00  0.00    +0.000 A 
ATOM     19  C   UNL     1      47.720   4.488  16.293  0.00  0.00    +0.000 A 
ATOM     20  C   UNL     1      48.769   5.360  16.643  0.00  0.00    +0.000 A 
ATOM     21  H   UNL     1      50.995   6.087  18.815  0.00  0.00    +0.000 HD
ENDBRANCH   9  12
ENDBRANCH   7  10
ENDBRANCH   1   7
BRANCH   4  22
ATOM     22  C   UNL     1      43.037   5.889  11.093  0.00  0.00    +0.000 C 
BRANCH  22  23
ATOM     23  N   UNL     1      43.440   5.006   9.993  0.00  0.00    +0.000 NA
ATOM     24  H   UNL     1      43.982   5.565   9.329  0.00  0.00    +0.000 HD
BRANCH  23  25
ATOM     25  CA  UNL     1      44.317   3.901  10.454  0.00  0.00    +0.000 C 
BRANCH  25  26
ATOM     26  C   UNL     1      45.152   3.374   9.288  0.00  0.00    +0.000 A 
ATOM     27  C   UNL     1      45.704   4.262   8.353  0.00  0.00    +0.000 A 
ATOM     28  C   UNL     1      46.487   3.793   7.292  0.00  0.00    +0.000 A 
ATOM     29  C   UNL     1      46.730   2.430   7.153  0.00  0.00    +0.000 A 
ATOM     30  C   UNL     1      46.183   1.532   8.064  0.00  0.00    +0.000 A 
ATOM     31  C   UNL     1      45.397   1.999   9.120  0.00  0.00    +0.000 A 
ENDBRANCH  25  26
BRANCH  25  32
ATOM     32  C   UNL     1      43.529   2.752  11.147  0.00  0.00    +0.000 C 
BRANCH  32  33
ATOM     33  O   UNL     1      43.960   2.517  12.488  0.00  0.00    +0.000 OA
ATOM     34  H   UNL     1      44.722   1.912  12.413  0.00  0.00    +0.000 HD
ENDBRANCH  32  33
ENDBRANCH  25  32
ENDBRANCH  23  25
ENDBRANCH  22  23
ENDBRANCH   4  22
TORSDOF 9
ENDMDL
MODEL 2
REMARK VINA RESULT:    -7.945      1.813      2.376
REMARK INTER + INTRA:         -12.826
REMARK INTER:                 -11.962
REMARK INTRA:                  -0.864
REMARK UNBOUND:                -0.933
REMARK  Name = 
REMARK  9 active torsions:
REMARK  status: ('A' for Active; 'I' for Inactive)
REMARK    1  A    between atoms: C_2  and  C_22
REMARK    2  A    between atoms: N_3  and  C_4
REMARK    3  A    between atoms: C_4  and  C_5
REMARK    4  A    between atoms: C_8  and  C_9
REMARK    5  A    between atoms: C_9  and  N_10
REMARK    6  A    between atoms: N_10  and  CA_11
REMARK    7  A    between atoms: CA_11  and  C_12
REMARK    8  A    between atoms: CA_11  and  C_14
REMARK    9  A    between atoms: C_12  and  O_13
REMARK                            x       y       z     vdW  Elec       q    Type
REMARK                         _______ _______ _______ _____ _____    ______ ____
ROOT
ATOM      1  C   UNL     1      46.870   5.998  13.207  0.00  0.00    +0.000 A 
ATOM      2  C   UNL     1      46.831   6.527  11.911  0.00  0.00    +0.000 A 
ATOM      3  C   UNL     1      45.781   6.209  11.042  0.00  0.00    +0.000 A 
ATOM      4  C   UNL     1      44.742   5.362  11.452  0.00  0.00    +0.000 A 
ATOM      5  C   UNL     1      44.773   4.850  12.757  0.00  0.00    +0.000 A 
ATOM      6  C   UNL     1      45.822   5.168  13.627  0.00  0.00    +0.000 A 
ENDROOT
BRANCH   1   7
ATOM      7  C   UNL     1      48.030   6.293  14.119  0.00  0.00    +0.000 C 
BRANCH   7  10
ATOM      8  O   UNL     1      50.025   6.160  15.989  0.00  0.00    +0.000 OA
ATOM      9  C   UNL     1      48.919   5.751  16.319  0.00  0.00    +0.000 C 
ATOM     10  N   UNL     1      47.845   5.781  15.453  0.00  0.00    +0.000 N 
ATOM     11  H   UNL     1      46.923   5.510  15.759  0.00  0.00    +0.000 HD
BRANCH   9  12
ATOM     12  C   UNL     1      48.665   5.186  17.647  0.00  0.00    +0.000 A 
ATOM     13  C   UNL     1      48.778   3.860  18.048  0.00  0.00    +0.000 A 
ATOM     14  N   UNL     1      48.490   3.784  19.387  0.00  0.00    +0.000 N 
ATOM     15  C   UNL     1      48.185   5.025  19.869  0.00  0.00    +0.000 A 
ATOM     16  N   UNL     1      47.869   5.281  21.152  0.00  0.00    +0.000 NA
ATOM     17  C   UNL     1      47.607   6.590  21.377  0.00  0.00    +0.000 A 
ATOM     18  C   UNL     1      47.637   7.598  20.422  0.00  0.00    +0.000 A 
ATOM     19  C   UNL     1      47.973   7.270  19.107  0.00  0.00    +0.000 A 
ATOM     20  C   UNL     1      48.266   5.925  18.814  0.00  0.00    +0.000 A 
ATOM     21  H   UNL     1      48.502   2.955  19.964  0.00  0.00    +0.000 HD
ENDBRANCH   9  12
ENDBRANCH   7  10
ENDBRANCH   1   7
BRANCH   4  22
ATOM     22  C   UNL     1      43.571   5.072  10.539  0.00  0.00    +0.000 C 
BRANCH  22  23
ATOM     23  N   UNL     1      43.965   4.351   9.325  0.00  0.00    +0.000 NA
ATOM     24  H   UNL     1      44.545   4.980   8.764  0.00  0.00    +0.000 HD
BRANCH  23  25
ATOM     25  CA  UNL     1      44.785   3.151   9.626  0.00  0.00    +0.000 C 
BRANCH  25  26
ATOM     26  C   UNL     1      45.703   2.834   8.446  0.00  0.00    +0.000 A 
ATOM     27  C   UNL     1      46.059   3.839   7.535  0.00  0.00    +0.000 A 
ATOM     28  C   UNL     1      46.915   3.567   6.462  0.00  0.00    +0.000 A 
ATOM     29  C   UNL     1      47.427   2.285   6.286  0.00  0.00    +0.000 A 
ATOM     30  C   UNL     1      47.078   1.272   7.173  0.00  0.00    +0.000 A 
ATOM     31  C   UNL     1      46.220   1.542   8.241  0.00  0.00    +0.000 A 
ENDBRANCH  25  26
BRANCH  25  32
ATOM     32  C   UNL     1      43.926   1.914  10.018  0.00  0.00    +0.000 C 
BRANCH  32  33
ATOM     33  O   UNL     1      43.366   2.025  11.328  0.00  0.00    +0.000 OA
ATOM     34  H   UNL     1      42.753   1.269  11.413  0.00  0.00    +0.000 HD
ENDBRANCH  32  33
ENDBRANCH  25  32
ENDBRANCH  23  25
ENDBRANCH  22  23
ENDBRANCH   4  22
TORSDOF 9
ENDMDL
MODEL 3
REMARK VINA RESULT:    -7.643      1.726      2.138
REMARK INTER + INTRA:         -12.374
REMARK INTER:                 -11.545
REMARK INTRA:                  -0.829
REMARK UNBOUND:                -0.933
REMARK  Name = 
REMARK  9 active torsions:
REMARK  status: ('A' for Active; 'I' for Inactive)
REMARK    1  A    between atoms: C_2  and  C_22
REMARK    2  A    between atoms: N_3  and  C_4
REMARK    3  A    between atoms: C_4  and  C_5
REMARK    4  A    between atoms: C_8  and  C_9
REMARK    5  A    between atoms: C_9  and  N_10
REMARK    6  A    between atoms: N_10  and  CA_11
REMARK    7  A    between atoms: CA_11  and  C_12
REMARK    8  A    between atoms: CA_11  and  C_14
REMARK    9  A    between atoms: C_12  and  O_13
REMARK                            x       y       z     vdW  Elec       q    Type
REMARK                         _______ _______ _______ _____ _____    ______ ____
ROOT
ATOM      1  C   UNL     1      47.132   6.608  13.291  0.00  0.00    +0.000 A 
ATOM      2  C   UNL     1      46.267   5.607  13.751  0.00  0.00    +0.000 A 
ATOM      3  C   UNL     1      45.030   5.392  13.134  0.00  0.00    +0.000 A 
ATOM      4  C   UNL     1      44.633   6.167  12.035  0.00  0.00    +0.000 A 
ATOM      5  C   UNL     1      45.509   7.156  11.563  0.00  0.00    +0.000 A 
ATOM      6  C   UNL     1      46.746   7.371  12.180  0.00  0.00    +0.000 A 
ENDROOT
BRANCH   1   7
ATOM      7  C   UNL     1      48.435   6.878  13.994  0.00  0.00    +0.000 C 
BRANCH   7  10
ATOM      8  O   UNL     1      49.577   5.611  16.135  0.00  0.00    +0.000 OA
ATOM      9  C   UNL     1      48.877   6.588  16.370  0.00  0.00    +0.000 C 
ATOM     10  N   UNL     1      48.263   7.301  15.361  0.00  0.00    +0.000 N 
ATOM     11  H   UNL     1      47.750   8.146  15.559  0.00  0.00    +0.000 HD
BRANCH   9  12
ATOM     12  C   UNL     1      48.630   7.056  17.736  0.00  0.00    +0.000 A 
ATOM     13  C   UNL     1      48.357   8.352  18.159  0.00  0.00    +0.000 A 
ATOM     14  N   UNL     1      48.148   8.331  19.516  0.00  0.00    +0.000 N 
ATOM     15  C   UNL     1      48.283   7.057  19.989  0.00  0.00    +0.000 A 
ATOM     16  N   UNL     1      48.124   6.709  21.279  0.00  0.00    +0.000 NA
ATOM     17  C   UNL     1      48.313   5.386  21.492  0.00  0.00    +0.000 A 
ATOM     18  C   UNL     1      48.644   4.448  20.523  0.00  0.00    +0.000 A 
ATOM     19  C   UNL     1      48.793   4.869  19.201  0.00  0.00    +0.000 A 
ATOM     20  C   UNL     1      48.599   6.235  18.915  0.00  0.00    +0.000 A 
ATOM     21  H   UNL     1      47.915   9.118  20.105  0.00  0.00    +0.000 HD
ENDBRANCH   9  12
ENDBRANCH   7  10
ENDBRANCH   1   7
BRANCH   4  22
ATOM     22  C   UNL     1      43.328   5.892  11.322  0.00  0.00    +0.000 C 
BRANCH  22  23
ATOM     23  N   UNL     1      43.486   4.973  10.189  0.00  0.00    +0.000 NA
ATOM     24  H   UNL     1      43.987   5.474   9.450  0.00  0.00    +0.000 HD
BRANCH  23  25
ATOM     25  CA  UNL     1      44.300   3.783  10.541  0.00  0.00    +0.000 C 
BRANCH  25  26
ATOM     26  C   UNL     1      45.136   3.346   9.339  0.00  0.00    +0.000 A 
ATOM     27  C   UNL     1      45.647   4.300   8.447  0.00  0.00    +0.000 A 
ATOM     28  C   UNL     1      46.431   3.914   7.353  0.00  0.00    +0.000 A 
ATOM     29  C   UNL     1      46.714   2.569   7.138  0.00  0.00    +0.000 A 
ATOM     30  C   UNL     1      46.208   1.607   8.006  0.00  0.00    +0.000 A 
ATOM     31  C   UNL     1      45.422   1.991   9.094  0.00  0.00    +0.000 A 
ENDBRANCH  25  26
BRANCH  25  32
ATOM     32  C   UNL     1      43.444   2.605  11.089  0.00  0.00    +0.000 C 
BRANCH  32  33
ATOM     33  O   UNL     1      43.723   2.310  12.459  0.00  0.00    +0.000 OA
ATOM     34  H   UNL     1      44.334   3.012  12.755  0.00  0.00    +0.000 HD
ENDBRANCH  32  33
ENDBRANCH  25  32
ENDBRANCH  23  25
ENDBRANCH  22  23
ENDBRANCH   4  22
TORSDOF 9
ENDMDL
MODEL 4
REMARK VINA RESULT:    -7.359      4.232      6.959
REMARK INTER + INTRA:         -11.949
REMARK INTER:                 -11.031
REMARK INTRA:                  -0.918
REMARK UNBOUND:                -0.933
REMARK  Name = 
REMARK  9 active torsions:
REMARK  status: ('A' for Active; 'I' for Inactive)
REMARK    1  A    between atoms: C_2  and  C_22
REMARK    2  A    between atoms: N_3  and  C_4
REMARK    3  A    between atoms: C_4  and  C_5
REMARK    4  A    between atoms: C_8  and  C_9
REMARK    5  A    between atoms: C_9  and  N_10
REMARK    6  A    between atoms: N_10  and  CA_11
REMARK    7  A    between atoms: CA_11  and  C_12
REMARK    8  A    between atoms: CA_11  and  C_14
REMARK    9  A    between atoms: C_12  and  O_13
REMARK                            x       y       z     vdW  Elec       q    Type
REMARK                         _______ _______ _______ _____ _____    ______ ____
ROOT
ATOM      1  C   UNL     1      45.468   3.238   8.419  0.00  0.00    +0.000 A 
ATOM      2  C   UNL     1      45.713   1.879   8.656  0.00  0.00    +0.000 A 
ATOM      3  C   UNL     1      46.423   1.109   7.728  0.00  0.00    +0.000 A 
ATOM      4  C   UNL     1      46.912   1.682   6.546  0.00  0.00    +0.000 A 
ATOM      5  C   UNL     1      46.683   3.048   6.320  0.00  0.00    +0.000 A 
ATOM      6  C   UNL     1      45.975   3.818   7.249  0.00  0.00    +0.000 A 
ENDROOT
BRANCH   1   7
ATOM      7  C   UNL     1      44.653   4.049   9.390  0.00  0.00    +0.000 C 
BRANCH   7  10
ATOM      8  O   UNL     1      45.093   6.448  10.632  0.00  0.00    +0.000 OA
ATOM      9  C   UNL     1      45.461   5.438  11.218  0.00  0.00    +0.000 C 
ATOM     10  N   UNL     1      45.279   4.180  10.682  0.00  0.00    +0.000 N 
ATOM     11  H   UNL     1      45.517   3.352  11.205  0.00  0.00    +0.000 HD
BRANCH   9  12
ATOM     12  C   UNL     1      46.133   5.497  12.519  0.00  0.00    +0.000 A 
ATOM     13  C   UNL     1      45.779   4.844  13.694  0.00  0.00    +0.000 A 
ATOM     14  N   UNL     1      46.710   5.145  14.656  0.00  0.00    +0.000 N 
ATOM     15  C   UNL     1      47.658   5.982  14.142  0.00  0.00    +0.000 A 
ATOM     16  N   UNL     1      48.713   6.447  14.836  0.00  0.00    +0.000 NA
ATOM     17  C   UNL     1      49.507   7.261  14.101  0.00  0.00    +0.000 A 
ATOM     18  C   UNL     1      49.297   7.616  12.775  0.00  0.00    +0.000 A 
ATOM     19  C   UNL     1      48.186   7.100  12.107  0.00  0.00    +0.000 A 
ATOM     20  C   UNL     1      47.328   6.239  12.817  0.00  0.00    +0.000 A 
ATOM     21  H   UNL     1      46.728   4.808  15.608  0.00  0.00    +0.000 HD
ENDBRANCH   9  12
ENDBRANCH   7  10
ENDBRANCH   1   7
BRANCH   4  22
ATOM     22  C   UNL     1      47.739   0.870   5.574  0.00  0.00    +0.000 C 
BRANCH  22  23
ATOM     23  N   UNL     1      47.413   1.161   4.173  0.00  0.00    +0.000 NA
ATOM     24  H   UNL     1      48.250   0.974   3.615  0.00  0.00    +0.000 HD
BRANCH  23  25
ATOM     25  CA  UNL     1      46.335   0.283   3.654  0.00  0.00    +0.000 C 
BRANCH  25  26
ATOM     26  C   UNL     1      46.899  -1.099   3.324  0.00  0.00    +0.000 A 
ATOM     27  C   UNL     1      47.883  -1.245   2.336  0.00  0.00    +0.000 A 
ATOM     28  C   UNL     1      48.421  -2.502   2.038  0.00  0.00    +0.000 A 
ATOM     29  C   UNL     1      47.982  -3.630   2.725  0.00  0.00    +0.000 A 
ATOM     30  C   UNL     1      47.000  -3.507   3.702  0.00  0.00    +0.000 A 
ATOM     31  C   UNL     1      46.459  -2.254   3.996  0.00  0.00    +0.000 A 
ENDBRANCH  25  26
BRANCH  25  32
ATOM     32  C   UNL     1      45.592   0.894   2.432  0.00  0.00    +0.000 C 
BRANCH  32  33
ATOM     33  O   UNL     1      44.219   0.506   2.370  0.00  0.00    +0.000 OA
ATOM     34  H   UNL     1      43.981   0.546   1.424  0.00  0.00    +0.000 HD
ENDBRANCH  32  33
ENDBRANCH  25  32
ENDBRANCH  23  25
ENDBRANCH  22  23
ENDBRANCH   4  22
TORSDOF 9
ENDMDL
MODEL 5
REMARK VINA RESULT:    -7.267      2.427      8.181
REMARK INTER + INTRA:         -11.811
REMARK INTER:                 -10.192
REMARK INTRA:                  -1.618
REMARK UNBOUND:                -0.933
REMARK  Name = 
REMARK  9 active torsions:
REMARK  status: ('A' for Active; 'I' for Inactive)
REMARK    1  A    between atoms: C_2  and  C_22
REMARK    2  A    between atoms: N_3  and  C_4
REMARK    3  A    between atoms: C_4  and  C_5
REMARK    4  A    between atoms: C_8  and  C_9
REMARK    5  A    between atoms: C_9  and  N_10
REMARK    6  A    between atoms: N_10  and  CA_11
REMARK    7  A    between atoms: CA_11  and  C_12
REMARK    8  A    between atoms: CA_11  and  C_14
REMARK    9  A    between atoms: C_12  and  O_13
REMARK                            x       y       z     vdW  Elec       q    Type
REMARK                         _______ _______ _______ _____ _____    ______ ____
ROOT
ATOM      1  C   UNL     1      47.969   7.747  13.790  0.00  0.00    +0.000 A 
ATOM      2  C   UNL     1      48.660   6.650  14.321  0.00  0.00    +0.000 A 
ATOM      3  C   UNL     1      49.124   6.669  15.641  0.00  0.00    +0.000 A 
ATOM      4  C   UNL     1      48.900   7.782  16.464  0.00  0.00    +0.000 A 
ATOM      5  C   UNL     1      48.191   8.871  15.937  0.00  0.00    +0.000 A 
ATOM      6  C   UNL     1      47.726   8.852  14.617  0.00  0.00    +0.000 A 
ENDROOT
BRANCH   1   7
ATOM      7  C   UNL     1      47.524   7.749  12.353  0.00  0.00    +0.000 C 
BRANCH   7  10
ATOM      8  O   UNL     1      44.951   6.950  12.834  0.00  0.00    +0.000 OA
ATOM      9  C   UNL     1      45.675   6.171  12.226  0.00  0.00    +0.000 C 
ATOM     10  N   UNL     1      46.986   6.482  11.926  0.00  0.00    +0.000 N 
ATOM     11  H   UNL     1      47.550   5.866  11.362  0.00  0.00    +0.000 HD
BRANCH   9  12
ATOM     12  C   UNL     1      45.206   4.854  11.790  0.00  0.00    +0.000 A 
ATOM     13  C   UNL     1      44.666   3.838  12.570  0.00  0.00    +0.000 A 
ATOM     14  N   UNL     1      44.320   2.795  11.748  0.00  0.00    +0.000 N 
ATOM     15  C   UNL     1      44.626   3.101  10.453  0.00  0.00    +0.000 A 
ATOM     16  N   UNL     1      44.395   2.285   9.408  0.00  0.00    +0.000 NA
ATOM     17  C   UNL     1      44.789   2.818   8.229  0.00  0.00    +0.000 A 
ATOM     18  C   UNL     1      45.381   4.063   8.060  0.00  0.00    +0.000 A 
ATOM     19  C   UNL     1      45.594   4.865   9.182  0.00  0.00    +0.000 A 
ATOM     20  C   UNL     1      45.195   4.368  10.437  0.00  0.00    +0.000 A 
ATOM     21  H   UNL     1      43.892   1.922  12.024  0.00  0.00    +0.000 HD
ENDBRANCH   9  12
ENDBRANCH   7  10
ENDBRANCH   1   7
BRANCH   4  22
ATOM     22  C   UNL     1      49.339   7.777  17.911  0.00  0.00    +0.000 C 
BRANCH  22  23
ATOM     23  N   UNL     1      48.259   7.396  18.829  0.00  0.00    +0.000 NA
ATOM     24  H   UNL     1      47.418   7.234  18.268  0.00  0.00    +0.000 HD
BRANCH  23  25
ATOM     25  CA  UNL     1      48.556   6.133  19.550  0.00  0.00    +0.000 C 
BRANCH  25  26
ATOM     26  C   UNL     1      48.472   4.948  18.588  0.00  0.00    +0.000 A 
ATOM     27  C   UNL     1      47.275   4.666  17.914  0.00  0.00    +0.000 A 
ATOM     28  C   UNL     1      47.192   3.596  17.016  0.00  0.00    +0.000 A 
ATOM     29  C   UNL     1      48.304   2.795  16.779  0.00  0.00    +0.000 A 
ATOM     30  C   UNL     1      49.498   3.053  17.445  0.00  0.00    +0.000 A 
ATOM     31  C   UNL     1      49.580   4.117  18.345  0.00  0.00    +0.000 A 
ENDBRANCH  25  26
BRANCH  25  32
ATOM     32  C   UNL     1      47.642   5.916  20.790  0.00  0.00    +0.000 C 
BRANCH  32  33
ATOM     33  O   UNL     1      47.854   4.650  21.417  0.00  0.00    +0.000 OA
ATOM     34  H   UNL     1      48.107   4.043  20.696  0.00  0.00    +0.000 HD
ENDBRANCH  32  33
ENDBRANCH  25  32
ENDBRANCH  23  25
ENDBRANCH  22  23
ENDBRANCH   4  22
TORSDOF 9
ENDMDL
MODEL 6
REMARK VINA RESULT:    -7.063      2.526      8.000
REMARK INTER + INTRA:         -11.506
REMARK INTER:                  -9.390
REMARK INTRA:                  -2.116
REMARK UNBOUND:                -0.933
REMARK  Name = 
REMARK  9 active torsions:
REMARK  status: ('A' for Active; 'I' for Inactive)
REMARK    1  A    between atoms: C_2  and  C_22
REMARK    2  A    between atoms: N_3  and  C_4
REMARK    3  A    between atoms: C_4  and  C_5
REMARK    4  A    between atoms: C_8  and  C_9
REMARK    5  A    between atoms: C_9  and  N_10
REMARK    6  A    between atoms: N_10  and  CA_11
REMARK    7  A    between atoms: CA_11  and  C_12
REMARK    8  A    between atoms: CA_11  and  C_14
REMARK    9  A    between atoms: C_12  and  O_13
REMARK                            x       y       z     vdW  Elec       q    Type
REMARK                         _______ _______ _______ _____ _____    ______ ____
ROOT
ATOM      1  C   UNL     1      49.690   7.384  15.577  0.00  0.00    +0.000 A 
ATOM      2  C   UNL     1      50.732   6.579  16.054  0.00  0.00    +0.000 A 
ATOM      3  C   UNL     1      50.898   6.365  17.426  0.00  0.00    +0.000 A 
ATOM      4  C   UNL     1      50.020   6.944  18.354  0.00  0.00    +0.000 A 
ATOM      5  C   UNL     1      48.965   7.734  17.872  0.00  0.00    +0.000 A 
ATOM      6  C   UNL     1      48.798   7.947  16.500  0.00  0.00    +0.000 A 
ENDROOT
BRANCH   1   7
ATOM      7  C   UNL     1      49.549   7.661  14.104  0.00  0.00    +0.000 C 
BRANCH   7  10
ATOM      8  O   UNL     1      48.234   5.415  13.259  0.00  0.00    +0.000 OA
ATOM      9  C   UNL     1      47.611   6.468  13.243  0.00  0.00    +0.000 C 
ATOM     10  N   UNL     1      48.180   7.656  13.656  0.00  0.00    +0.000 N 
ATOM     11  H   UNL     1      47.635   8.502  13.709  0.00  0.00    +0.000 HD
BRANCH   9  12
ATOM     12  C   UNL     1      46.227   6.544  12.769  0.00  0.00    +0.000 A 
ATOM     13  C   UNL     1      45.476   7.683  12.501  0.00  0.00    +0.000 A 
ATOM     14  N   UNL     1      44.245   7.293  12.035  0.00  0.00    +0.000 N 
ATOM     15  C   UNL     1      44.171   5.931  11.998  0.00  0.00    +0.000 A 
ATOM     16  N   UNL     1      43.094   5.243  11.574  0.00  0.00    +0.000 NA
ATOM     17  C   UNL     1      43.270   3.902  11.636  0.00  0.00    +0.000 A 
ATOM     18  C   UNL     1      44.413   3.255  12.087  0.00  0.00    +0.000 A 
ATOM     19  C   UNL     1      45.498   4.022  12.512  0.00  0.00    +0.000 A 
ATOM     20  C   UNL     1      45.378   5.425  12.462  0.00  0.00    +0.000 A 
ATOM     21  H   UNL     1      43.489   7.896  11.744  0.00  0.00    +0.000 HD
ENDBRANCH   9  12
ENDBRANCH   7  10
ENDBRANCH   1   7
BRANCH   4  22
ATOM     22  C   UNL     1      50.154   6.659  19.833  0.00  0.00    +0.000 C 
BRANCH  22  23
ATOM     23  N   UNL     1      50.233   5.224  20.127  0.00  0.00    +0.000 NA
ATOM     24  H   UNL     1      50.644   5.120  21.059  0.00  0.00    +0.000 HD
BRANCH  23  25
ATOM     25  CA  UNL     1      48.894   4.585  20.166  0.00  0.00    +0.000 C 
BRANCH  25  26
ATOM     26  C   UNL     1      48.502   4.105  18.769  0.00  0.00    +0.000 A 
ATOM     27  C   UNL     1      47.372   4.634  18.129  0.00  0.00    +0.000 A 
ATOM     28  C   UNL     1      47.013   4.217  16.842  0.00  0.00    +0.000 A 
ATOM     29  C   UNL     1      47.781   3.266  16.178  0.00  0.00    +0.000 A 
ATOM     30  C   UNL     1      48.901   2.722  16.799  0.00  0.00    +0.000 A 
ATOM     31  C   UNL     1      49.256   3.134  18.086  0.00  0.00    +0.000 A 
ENDBRANCH  25  26
BRANCH  25  32
ATOM     32  C   UNL     1      47.799   5.510  20.771  0.00  0.00    +0.000 C 
BRANCH  32  33
ATOM     33  O   UNL     1      47.136   4.921  21.891  0.00  0.00    +0.000 OA
ATOM     34  H   UNL     1      46.290   4.580  21.541  0.00  0.00    +0.000 HD
ENDBRANCH  32  33
ENDBRANCH  25  32
ENDBRANCH  23  25
ENDBRANCH  22  23
ENDBRANCH   4  22
TORSDOF 9
ENDMDL
MODEL 7
REMARK VINA RESULT:    -6.931      1.956      8.211
REMARK INTER + INTRA:         -11.308
REMARK INTER:                 -10.148
REMARK INTRA:                  -1.160
REMARK UNBOUND:                -0.933
REMARK  Name = 
REMARK  9 active torsions:
REMARK  status: ('A' for Active; 'I' for Inactive)
REMARK    1  A    between atoms: C_2  and  C_22
REMARK    2  A    between atoms: N_3  and  C_4
REMARK    3  A    between atoms: C_4  and  C_5
REMARK    4  A    between atoms: C_8  and  C_9
REMARK    5  A    between atoms: C_9  and  N_10
REMARK    6  A    between atoms: N_10  and  CA_11
REMARK    7  A    between atoms: CA_11  and  C_12
REMARK    8  A    between atoms: CA_11  and  C_14
REMARK    9  A    between atoms: C_12  and  O_13
REMARK                            x       y       z     vdW  Elec       q    Type
REMARK                         _______ _______ _______ _____ _____    ______ ____
ROOT
ATOM      1  C   UNL     1      46.739   7.832  12.993  0.00  0.00    +0.000 A 
ATOM      2  C   UNL     1      47.704   6.823  12.871  0.00  0.00    +0.000 A 
ATOM      3  C   UNL     1      48.904   6.893  13.587  0.00  0.00    +0.000 A 
ATOM      4  C   UNL     1      49.164   7.968  14.449  0.00  0.00    +0.000 A 
ATOM      5  C   UNL     1      48.188   8.966  14.584  0.00  0.00    +0.000 A 
ATOM      6  C   UNL     1      46.987   8.896  13.870  0.00  0.00    +0.000 A 
ENDROOT
BRANCH   1   7
ATOM      7  C   UNL     1      45.476   7.785  12.177  0.00  0.00    +0.000 C 
BRANCH   7  10
ATOM      8  O   UNL     1      43.965   5.784  13.273  0.00  0.00    +0.000 OA
ATOM      9  C   UNL     1      44.484   5.563  12.186  0.00  0.00    +0.000 C 
ATOM     10  N   UNL     1      45.257   6.508  11.545  0.00  0.00    +0.000 N 
ATOM     11  H   UNL     1      45.618   6.344  10.618  0.00  0.00    +0.000 HD
BRANCH   9  12
ATOM     12  C   UNL     1      44.333   4.277  11.500  0.00  0.00    +0.000 A 
ATOM     13  C   UNL     1      43.688   3.134  11.959  0.00  0.00    +0.000 A 
ATOM     14  N   UNL     1      43.747   2.177  10.977  0.00  0.00    +0.000 N 
ATOM     15  C   UNL     1      44.418   2.664   9.892  0.00  0.00    +0.000 A 
ATOM     16  N   UNL     1      44.630   1.968   8.760  0.00  0.00    +0.000 NA
ATOM     17  C   UNL     1      45.322   2.672   7.833  0.00  0.00    +0.000 A 
ATOM     18  C   UNL     1      45.791   3.969   7.987  0.00  0.00    +0.000 A 
ATOM     19  C   UNL     1      45.539   4.641   9.183  0.00  0.00    +0.000 A 
ATOM     20  C   UNL     1      44.814   3.963  10.182  0.00  0.00    +0.000 A 
ATOM     21  H   UNL     1      43.353   1.247  11.013  0.00  0.00    +0.000 HD
ENDBRANCH   9  12
ENDBRANCH   7  10
ENDBRANCH   1   7
BRANCH   4  22
ATOM     22  C   UNL     1      50.429   8.011  15.276  0.00  0.00    +0.000 C 
BRANCH  22  23
ATOM     23  N   UNL     1      50.930   6.674  15.614  0.00  0.00    +0.000 NA
ATOM     24  H   UNL     1      51.944   6.678  15.475  0.00  0.00    +0.000 HD
BRANCH  23  25
ATOM     25  CA  UNL     1      50.684   6.324  17.035  0.00  0.00    +0.000 C 
BRANCH  25  26
ATOM     26  C   UNL     1      49.699   5.160  17.125  0.00  0.00    +0.000 A 
ATOM     27  C   UNL     1      50.139   3.888  17.517  0.00  0.00    +0.000 A 
ATOM     28  C   UNL     1      49.243   2.818  17.623  0.00  0.00    +0.000 A 
ATOM     29  C   UNL     1      47.894   3.007  17.339  0.00  0.00    +0.000 A 
ATOM     30  C   UNL     1      47.439   4.259  16.940  0.00  0.00    +0.000 A 
ATOM     31  C   UNL     1      48.334   5.326  16.829  0.00  0.00    +0.000 A 
ENDBRANCH  25  26
BRANCH  25  32
ATOM     32  C   UNL     1      50.202   7.537  17.882  0.00  0.00    +0.000 C 
BRANCH  32  33
ATOM     33  O   UNL     1      50.037   7.215  19.264  0.00  0.00    +0.000 OA
ATOM     34  H   UNL     1      49.225   6.676  19.309  0.00  0.00    +0.000 HD
ENDBRANCH  32  33
ENDBRANCH  25  32
ENDBRANCH  23  25
ENDBRANCH  22  23
ENDBRANCH   4  22
TORSDOF 9
ENDMDL
MODEL 8
REMARK VINA RESULT:    -6.629      2.457      3.276
REMARK INTER + INTRA:         -10.856
REMARK INTER:                 -10.150
REMARK INTRA:                  -0.706
REMARK UNBOUND:                -0.933
REMARK  Name = 
REMARK  9 active torsions:
REMARK  status: ('A' for Active; 'I' for Inactive)
REMARK    1  A    between atoms: C_2  and  C_22
REMARK    2  A    between atoms: N_3  and  C_4
REMARK    3  A    between atoms: C_4  and  C_5
REMARK    4  A    between atoms: C_8  and  C_9
REMARK    5  A    between atoms: C_9  and  N_10
REMARK    6  A    between atoms: N_10  and  CA_11
REMARK    7  A    between atoms: CA_11  and  C_12
REMARK    8  A    between atoms: CA_11  and  C_14
REMARK    9  A    between atoms: C_12  and  O_13
REMARK                            x       y       z     vdW  Elec       q    Type
REMARK                         _______ _______ _______ _____ _____    ______ ____
ROOT
ATOM      1  C   UNL     1      47.942   6.486  14.426  0.00  0.00    +0.000 A 
ATOM      2  C   UNL     1      47.690   5.254  15.043  0.00  0.00    +0.000 A 
ATOM      3  C   UNL     1      46.886   4.294  14.419  0.00  0.00    +0.000 A 
ATOM      4  C   UNL     1      46.324   4.539  13.158  0.00  0.00    +0.000 A 
ATOM      5  C   UNL     1      46.595   5.765  12.533  0.00  0.00    +0.000 A 
ATOM      6  C   UNL     1      47.400   6.725  13.156  0.00  0.00    +0.000 A 
ENDROOT
BRANCH   1   7
ATOM      7  C   UNL     1      48.757   7.540  15.125  0.00  0.00    +0.000 C 
BRANCH   7  10
ATOM      8  O   UNL     1      50.598   7.561  17.150  0.00  0.00    +0.000 OA
ATOM      9  C   UNL     1      49.420   7.679  17.463  0.00  0.00    +0.000 C 
ATOM     10  N   UNL     1      48.415   7.688  16.517  0.00  0.00    +0.000 N 
ATOM     11  H   UNL     1      47.457   7.860  16.778  0.00  0.00    +0.000 HD
BRANCH   9  12
ATOM     12  C   UNL     1      48.995   7.800  18.860  0.00  0.00    +0.000 A 
ATOM     13  C   UNL     1      48.651   8.956  19.551  0.00  0.00    +0.000 A 
ATOM     14  N   UNL     1      48.272   8.605  20.823  0.00  0.00    +0.000 N 
ATOM     15  C   UNL     1      48.365   7.252  20.981  0.00  0.00    +0.000 A 
ATOM     16  N   UNL     1      48.049   6.600  22.115  0.00  0.00    +0.000 NA
ATOM     17  C   UNL     1      48.229   5.262  22.018  0.00  0.00    +0.000 A 
ATOM     18  C   UNL     1      48.694   4.586  20.897  0.00  0.00    +0.000 A 
ATOM     19  C   UNL     1      49.004   5.317  19.750  0.00  0.00    +0.000 A 
ATOM     20  C   UNL     1      48.827   6.714  19.787  0.00  0.00    +0.000 A 
ATOM     21  H   UNL     1      47.955   9.227  21.553  0.00  0.00    +0.000 HD
ENDBRANCH   9  12
ENDBRANCH   7  10
ENDBRANCH   1   7
BRANCH   4  22
ATOM     22  C   UNL     1      45.513   3.476  12.450  0.00  0.00    +0.000 C 
BRANCH  22  23
ATOM     23  N   UNL     1      44.067   3.687  12.581  0.00  0.00    +0.000 NA
ATOM     24  H   UNL     1      43.923   4.438  13.262  0.00  0.00    +0.000 HD
BRANCH  23  25
ATOM     25  CA  UNL     1      43.446   4.127  11.307  0.00  0.00    +0.000 C 
BRANCH  25  26
ATOM     26  C   UNL     1      44.310   3.689  10.125  0.00  0.00    +0.000 A 
ATOM     27  C   UNL     1      44.423   2.331   9.795  0.00  0.00    +0.000 A 
ATOM     28  C   UNL     1      45.196   1.918   8.703  0.00  0.00    +0.000 A 
ATOM     29  C   UNL     1      45.864   2.860   7.926  0.00  0.00    +0.000 A 
ATOM     30  C   UNL     1      45.771   4.211   8.242  0.00  0.00    +0.000 A 
ATOM     31  C   UNL     1      45.005   4.622   9.335  0.00  0.00    +0.000 A 
ENDBRANCH  25  26
BRANCH  25  32
ATOM     32  C   UNL     1      43.169   5.657  11.265  0.00  0.00    +0.000 C 
BRANCH  32  33
ATOM     33  O   UNL     1      41.900   6.003  11.821  0.00  0.00    +0.000 OA
ATOM     34  H   UNL     1      42.018   6.894  12.203  0.00  0.00    +0.000 HD
ENDBRANCH  32  33
ENDBRANCH  25  32
ENDBRANCH  23  25
ENDBRANCH  22  23
ENDBRANCH   4  22
TORSDOF 9
ENDMDL
