MODEL 1
REMARK VINA RESULT:    -7.946      0.000      0.000
REMARK INTER + INTRA:         -11.436
REMARK INTER:                 -10.733
REMARK INTRA:                  -0.703
REMARK UNBOUND:                -0.703
REMARK  Name = 
REMARK  7 active torsions:
REMARK  status: ('A' for Active; 'I' for Inactive)
REMARK    1  A    between atoms: C_1  and  C_2
REMARK    2  A    between atoms: C_6  and  C_7
REMARK    3  A    between atoms: C_7  and  O_8
REMARK    4  A    between atoms: O_8  and  C_9
REMARK    5  A    between atoms: C_12  and  C_13
REMARK    6  A    between atoms: C_13  and  N_14
REMARK    7  A    between atoms: C_15  and  C_17
REMARK                            x       y       z     vdW  Elec       q    Type
REMARK                         _______ _______ _______ _____ _____    ______ ____
ROOT
ATOM      1  C   UNL     1      47.677   7.148  13.304  0.00  0.00    +0.000 C 
ENDROOT
BRANCH   1   5
ATOM      2  C   UNL     1      44.702   4.941  11.260  0.00  0.00    +0.000 A 
ATOM      3  C   UNL     1      44.899   6.289  11.057  0.00  0.00    +0.000 A 
ATOM      4  N   UNL     1      45.823   7.024  11.711  0.00  0.00    +0.000 NA
ATOM      5  C   UNL     1      46.575   6.373  12.617  0.00  0.00    +0.000 A 
ATOM      6  N   UNL     1      46.406   5.077  12.956  0.00  0.00    +0.000 NA
ATOM      7  C   UNL     1      45.466   4.394  12.268  0.00  0.00    +0.000 A 
BRANCH   2   8
ATOM      8  O   UNL     1      43.807   4.298  10.465  0.00  0.00    +0.000 OA
BRANCH   8   9
ATOM      9  C   UNL     1      44.103   2.916  10.232  0.00  0.00    +0.000 C 
BRANCH   9  15
ATOM     10  C   UNL     1      46.965   0.034   7.548  0.00  0.00    +0.000 C 
ATOM     11  C   UNL     1      46.411   1.407   7.775  0.00  0.00    +0.000 A 
ATOM     12  C   UNL     1      46.784   2.474   6.965  0.00  0.00    +0.000 A 
ATOM     13  C   UNL     1      46.247   3.731   7.222  0.00  0.00    +0.000 A 
ATOM     14  C   UNL     1      45.357   3.889   8.277  0.00  0.00    +0.000 A 
ATOM     15  C   UNL     1      45.024   2.775   9.044  0.00  0.00    +0.000 A 
ATOM     16  N   UNL     1      45.546   1.545   8.808  0.00  0.00    +0.000 NA
ENDBRANCH   9  15
ENDBRANCH   8   9
ENDBRANCH   2   8
ENDBRANCH   1   5
BRANCH   1  17
ATOM     17  N   UNL     1      47.717   6.940  14.734  0.00  0.00    +0.000 N 
ATOM     18  C   UNL     1      48.913   6.802  15.383  0.00  0.00    +0.000 C 
ATOM     19  O   UNL     1      49.982   6.877  14.781  0.00  0.00    +0.000 OA
ATOM     20  H   UNL     1      46.860   7.113  15.252  0.00  0.00    +0.000 HD
BRANCH  18  21
ATOM     21  C   UNL     1      48.861   6.470  16.813  0.00  0.00    +0.000 A 
ATOM     22  C   UNL     1      49.392   7.351  17.745  0.00  0.00    +0.000 A 
ATOM     23  S   UNL     1      49.510   6.684  19.312  0.00  0.00    +0.000 S 
ATOM     24  C   UNL     1      48.802   5.224  18.801  0.00  0.00    +0.000 A 
ATOM     25  N   UNL     1      48.694   4.159  19.637  0.00  0.00    +0.000 NA
ATOM     26  C   UNL     1      48.092   3.139  19.124  0.00  0.00    +0.000 A 
ATOM     27  N   UNL     1      47.554   3.100  17.868  0.00  0.00    +0.000 N 
ATOM     28  C   UNL     1      47.616   4.164  16.996  0.00  0.00    +0.000 A 
ATOM     29  O   UNL     1      47.034   4.140  15.916  0.00  0.00    +0.000 OA
ATOM     30  C   UNL     1      48.380   5.292  17.486  0.00  0.00    +0.000 A 
ATOM     31  H   UNL     1      47.029   2.299  17.551  0.00  0.00    +0.000 HD
ENDBRANCH  18  21
ENDBRANCH   1  17
TORSDOF 6
ENDMDL
MODEL 2
REMARK VINA RESULT:    -7.851      1.923      2.584
REMARK INTER + INTRA:         -11.307
REMARK INTER:                 -10.558
REMARK INTRA:                  -0.749
REMARK UNBOUND:                -0.703
REMARK  Name = 
REMARK  7 active torsions:
REMARK  status: ('A' for Active; 'I' for Inactive)
REMARK    1  A    between atoms: C_1  and  C_2
REMARK    2  A    between atoms: C_6  and  C_7
REMARK    3  A    between atoms: C_7  and  O_8
REMARK    4  A    between atoms: O_8  and  C_9
REMARK    5  A    between atoms: C_12  and  C_13
REMARK    6  A    between atoms: C_13  and  N_14
REMARK    7  A    between atoms: C_15  and  C_17
REMARK                            x       y       z     vdW  Elec       q    Type
REMARK                         _______ _______ _______ _____ _____    ______ ____
ROOT
ATOM      1  C   UNL     1      47.330   4.096  15.310  0.00  0.00    +0.000 C 
ENDROOT
BRANCH   1   5
ATOM      2  C   UNL     1      45.225   4.602  11.675  0.00  0.00    +0.000 A 
ATOM      3  C   UNL     1      45.451   3.366  12.236  0.00  0.00    +0.000 A 
ATOM      4  N   UNL     1      46.139   3.171  13.381  0.00  0.00    +0.000 NA
ATOM      5  C   UNL     1      46.629   4.271  13.981  0.00  0.00    +0.000 A 
ATOM      6  N   UNL     1      46.541   5.519  13.471  0.00  0.00    +0.000 NA
ATOM      7  C   UNL     1      45.842   5.650  12.323  0.00  0.00    +0.000 A 
BRANCH   2   8
ATOM      8  O   UNL     1      44.432   4.669  10.573  0.00  0.00    +0.000 OA
BRANCH   8   9
ATOM      9  C   UNL     1      44.150   3.402   9.965  0.00  0.00    +0.000 C 
BRANCH   9  15
ATOM     10  C   UNL     1      46.883   0.109   7.645  0.00  0.00    +0.000 C 
ATOM     11  C   UNL     1      46.483   1.545   7.786  0.00  0.00    +0.000 A 
ATOM     12  C   UNL     1      47.063   2.533   6.996  0.00  0.00    +0.000 A 
ATOM     13  C   UNL     1      46.662   3.853   7.172  0.00  0.00    +0.000 A 
ATOM     14  C   UNL     1      45.699   4.152   8.128  0.00  0.00    +0.000 A 
ATOM     15  C   UNL     1      45.159   3.112   8.880  0.00  0.00    +0.000 A 
ATOM     16  N   UNL     1      45.545   1.821   8.723  0.00  0.00    +0.000 NA
ENDBRANCH   9  15
ENDBRANCH   8   9
ENDBRANCH   2   8
ENDBRANCH   1   5
BRANCH   1  17
ATOM     17  N   UNL     1      47.641   5.348  15.962  0.00  0.00    +0.000 N 
ATOM     18  C   UNL     1      48.833   5.516  16.611  0.00  0.00    +0.000 C 
ATOM     19  O   UNL     1      49.681   4.626  16.637  0.00  0.00    +0.000 OA
ATOM     20  H   UNL     1      47.052   6.146  15.740  0.00  0.00    +0.000 HD
BRANCH  18  21
ATOM     21  C   UNL     1      49.018   6.771  17.351  0.00  0.00    +0.000 A 
ATOM     22  C   UNL     1      49.867   7.748  16.851  0.00  0.00    +0.000 A 
ATOM     23  S   UNL     1      50.188   8.999  17.967  0.00  0.00    +0.000 S 
ATOM     24  C   UNL     1      49.156   8.301  19.125  0.00  0.00    +0.000 A 
ATOM     25  N   UNL     1      49.043   8.819  20.376  0.00  0.00    +0.000 NA
ATOM     26  C   UNL     1      48.188   8.212  21.127  0.00  0.00    +0.000 A 
ATOM     27  N   UNL     1      47.407   7.162  20.732  0.00  0.00    +0.000 N 
ATOM     28  C   UNL     1      47.468   6.621  19.467  0.00  0.00    +0.000 A 
ATOM     29  O   UNL     1      46.683   5.751  19.105  0.00  0.00    +0.000 OA
ATOM     30  C   UNL     1      48.493   7.197  18.622  0.00  0.00    +0.000 A 
ATOM     31  H   UNL     1      46.702   6.778  21.343  0.00  0.00    +0.000 HD
ENDBRANCH  18  21
ENDBRANCH   1  17
TORSDOF 6
ENDMDL
MODEL 3
REMARK VINA RESULT:    -7.740      1.801      3.257
REMARK INTER + INTRA:         -11.158
REMARK INTER:                 -10.325
REMARK INTRA:                  -0.833
REMARK UNBOUND:                -0.703
REMARK  Name = 
REMARK  7 active torsions:
REMARK  status: ('A' for Active; 'I' for Inactive)
REMARK    1  A    between atoms: C_1  and  C_2
REMARK    2  A    between atoms: C_6  and  C_7
REMARK    3  A    between atoms: C_7  and  O_8
REMARK    4  A    between atoms: O_8  and  C_9
REMARK    5  A    between atoms: C_12  and  C_13
REMARK    6  A    between atoms: C_13  and  N_14
REMARK    7  A    between atoms: C_15  and  C_17
REMARK                            x       y       z     vdW  Elec       q    Type
REMARK                         _______ _______ _______ _____ _____    ______ ____
ROOT
ATOM      1  C   UNL     1      47.331   4.249  15.454  0.00  0.00    +0.000 C 
ENDROOT
BRANCH   1   5
ATOM      2  C   UNL     1      45.271   4.716  11.789  0.00  0.00    +0.000 A 
ATOM      3  C   UNL     1      45.518   3.484  12.351  0.00  0.00    +0.000 A 
ATOM      4  N   UNL     1      46.194   3.302  13.505  0.00  0.00    +0.000 NA
ATOM      5  C   UNL     1      46.647   4.412  14.116  0.00  0.00    +0.000 A 
ATOM      6  N   UNL     1      46.536   5.659  13.608  0.00  0.00    +0.000 NA
ATOM      7  C   UNL     1      45.852   5.776  12.450  0.00  0.00    +0.000 A 
BRANCH   2   8
ATOM      8  O   UNL     1      44.493   4.767  10.676  0.00  0.00    +0.000 OA
BRANCH   8   9
ATOM      9  C   UNL     1      44.189   3.488  10.104  0.00  0.00    +0.000 C 
BRANCH   9  15
ATOM     10  C   UNL     1      46.783   0.145   7.700  0.00  0.00    +0.000 C 
ATOM     11  C   UNL     1      46.412   1.587   7.849  0.00  0.00    +0.000 A 
ATOM     12  C   UNL     1      46.979   2.563   7.036  0.00  0.00    +0.000 A 
ATOM     13  C   UNL     1      46.606   3.890   7.221  0.00  0.00    +0.000 A 
ATOM     14  C   UNL     1      45.683   4.208   8.209  0.00  0.00    +0.000 A 
ATOM     15  C   UNL     1      45.153   3.179   8.984  0.00  0.00    +0.000 A 
ATOM     16  N   UNL     1      45.513   1.882   8.819  0.00  0.00    +0.000 NA
ENDBRANCH   9  15
ENDBRANCH   8   9
ENDBRANCH   2   8
ENDBRANCH   1   5
BRANCH   1  17
ATOM     17  N   UNL     1      47.745   5.504  16.042  0.00  0.00    +0.000 N 
ATOM     18  C   UNL     1      48.944   5.606  16.691  0.00  0.00    +0.000 C 
ATOM     19  O   UNL     1      49.713   4.651  16.771  0.00  0.00    +0.000 OA
ATOM     20  H   UNL     1      47.226   6.335  15.773  0.00  0.00    +0.000 HD
BRANCH  18  21
ATOM     21  C   UNL     1      49.230   6.879  17.365  0.00  0.00    +0.000 A 
ATOM     22  C   UNL     1      49.680   6.878  18.678  0.00  0.00    +0.000 A 
ATOM     23  S   UNL     1      49.681   8.428  19.392  0.00  0.00    +0.000 S 
ATOM     24  C   UNL     1      49.138   9.150  17.951  0.00  0.00    +0.000 A 
ATOM     25  N   UNL     1      48.828  10.472  17.893  0.00  0.00    +0.000 NA
ATOM     26  C   UNL     1      48.477  10.885  16.722  0.00  0.00    +0.000 A 
ATOM     27  N   UNL     1      48.445  10.110  15.597  0.00  0.00    +0.000 N 
ATOM     28  C   UNL     1      48.776   8.773  15.602  0.00  0.00    +0.000 A 
ATOM     29  O   UNL     1      48.842   8.126  14.561  0.00  0.00    +0.000 OA
ATOM     30  C   UNL     1      49.069   8.237  16.914  0.00  0.00    +0.000 A 
ATOM     31  H   UNL     1      48.234  10.508  14.695  0.00  0.00    +0.000 HD
ENDBRANCH  18  21
ENDBRANCH   1  17
TORSDOF 6
ENDMDL
MODEL 4
REMARK VINA RESULT:    -7.347      2.271      3.435
REMARK INTER + INTRA:         -10.627
REMARK INTER:                  -9.775
REMARK INTRA:                  -0.852
REMARK UNBOUND:                -0.703
REMARK  Name = 
REMARK  7 active torsions:
REMARK  status: ('A' for Active; 'I' for Inactive)
REMARK    1  A    between atoms: C_1  and  C_2
REMARK    2  A    between atoms: C_6  and  C_7
REMARK    3  A    between atoms: C_7  and  O_8
REMARK    4  A    between atoms: O_8  and  C_9
REMARK    5  A    between atoms: C_12  and  C_13
REMARK    6  A    between atoms: C_13  and  N_14
REMARK    7  A    between atoms: C_15  and  C_17
REMARK                            x       y       z     vdW  Elec       q    Type
REMARK                         _______ _______ _______ _____ _____    ______ ____
ROOT
ATOM      1  C   UNL     1      47.462   4.073  15.927  0.00  0.00    +0.000 C 
ENDROOT
BRANCH   1   5
ATOM      2  C   UNL     1      46.064   5.553  12.219  0.00  0.00    +0.000 A 
ATOM      3  C   UNL     1      47.270   5.934  12.764  0.00  0.00    +0.000 A 
ATOM      4  N   UNL     1      47.731   5.498  13.955  0.00  0.00    +0.000 NA
ATOM      5  C   UNL     1      46.937   4.648  14.631  0.00  0.00    +0.000 A 
ATOM      6  N   UNL     1      45.700   4.279  14.229  0.00  0.00    +0.000 NA
ATOM      7  C   UNL     1      45.294   4.749  13.030  0.00  0.00    +0.000 A 
BRANCH   2   8
ATOM      8  O   UNL     1      45.764   5.987  10.966  0.00  0.00    +0.000 OA
BRANCH   8   9
ATOM      9  C   UNL     1      44.609   5.369  10.383  0.00  0.00    +0.000 C 
BRANCH   9  15
ATOM     10  C   UNL     1      46.865   3.693   6.409  0.00  0.00    +0.000 C 
ATOM     11  C   UNL     1      46.078   3.376   7.643  0.00  0.00    +0.000 A 
ATOM     12  C   UNL     1      45.714   2.068   7.946  0.00  0.00    +0.000 A 
ATOM     13  C   UNL     1      44.976   1.828   9.101  0.00  0.00    +0.000 A 
ATOM     14  C   UNL     1      44.620   2.895   9.916  0.00  0.00    +0.000 A 
ATOM     15  C   UNL     1      45.022   4.178   9.553  0.00  0.00    +0.000 A 
ATOM     16  N   UNL     1      45.736   4.427   8.427  0.00  0.00    +0.000 NA
ENDBRANCH   9  15
ENDBRANCH   8   9
ENDBRANCH   2   8
ENDBRANCH   1   5
BRANCH   1  17
ATOM     17  N   UNL     1      47.484   5.031  17.010  0.00  0.00    +0.000 N 
ATOM     18  C   UNL     1      48.357   4.882  18.052  0.00  0.00    +0.000 C 
ATOM     19  O   UNL     1      49.161   3.953  18.088  0.00  0.00    +0.000 OA
ATOM     20  H   UNL     1      46.994   5.909  16.863  0.00  0.00    +0.000 HD
BRANCH  18  21
ATOM     21  C   UNL     1      48.229   5.827  19.169  0.00  0.00    +0.000 A 
ATOM     22  C   UNL     1      48.204   5.354  20.474  0.00  0.00    +0.000 A 
ATOM     23  S   UNL     1      47.761   6.543  21.615  0.00  0.00    +0.000 S 
ATOM     24  C   UNL     1      47.646   7.734  20.406  0.00  0.00    +0.000 A 
ATOM     25  N   UNL     1      47.202   8.988  20.687  0.00  0.00    +0.000 NA
ATOM     26  C   UNL     1      47.216   9.794  19.680  0.00  0.00    +0.000 A 
ATOM     27  N   UNL     1      47.669   9.476  18.430  0.00  0.00    +0.000 N 
ATOM     28  C   UNL     1      48.152   8.228  18.106  0.00  0.00    +0.000 A 
ATOM     29  O   UNL     1      48.649   8.000  17.008  0.00  0.00    +0.000 OA
ATOM     30  C   UNL     1      48.052   7.255  19.174  0.00  0.00    +0.000 A 
ATOM     31  H   UNL     1      47.724  10.173  17.702  0.00  0.00    +0.000 HD
ENDBRANCH  18  21
ENDBRANCH   1  17
TORSDOF 6
ENDMDL
MODEL 5
REMARK VINA RESULT:    -7.301      3.169      7.847
REMARK INTER + INTRA:         -10.564
REMARK INTER:                  -9.428
REMARK INTRA:                  -1.136
REMARK UNBOUND:                -0.703
REMARK  Name = 
REMARK  7 active torsions:
REMARK  status: ('A' for Active; 'I' for Inactive)
REMARK    1  A    between atoms: C_1  and  C_2
REMARK    2  A    between atoms: C_6  and  C_7
REMARK    3  A    between atoms: C_7  and  O_8
REMARK    4  A    between atoms: O_8  and  C_9
REMARK    5  A    between atoms: C_12  and  C_13
REMARK    6  A    between atoms: C_13  and  N_14
REMARK    7  A    between atoms: C_15  and  C_17
REMARK                            x       y       z     vdW  Elec       q    Type
REMARK                         _______ _______ _______ _____ _____    ______ ____
ROOT
ATOM      1  C   UNL     1      47.588   8.627  12.558  0.00  0.00    +0.000 C 
ENDROOT
BRANCH   1   5
ATOM      2  C   UNL     1      49.331   7.501  16.244  0.00  0.00    +0.000 A 
ATOM      3  C   UNL     1      48.507   8.596  16.116  0.00  0.00    +0.000 A 
ATOM      4  N   UNL     1      47.956   8.994  14.950  0.00  0.00    +0.000 NA
ATOM      5  C   UNL     1      48.257   8.260  13.863  0.00  0.00    +0.000 A 
ATOM      6  N   UNL     1      49.122   7.222  13.862  0.00  0.00    +0.000 NA
ATOM      7  C   UNL     1      49.642   6.872  15.058  0.00  0.00    +0.000 A 
BRANCH   2   8
ATOM      8  O   UNL     1      49.739   7.150  17.492  0.00  0.00    +0.000 OA
BRANCH   8   9
ATOM      9  C   UNL     1      48.733   6.513  18.290  0.00  0.00    +0.000 C 
BRANCH   9  15
ATOM     10  C   UNL     1      50.843   2.238  17.310  0.00  0.00    +0.000 C 
ATOM     11  C   UNL     1      49.578   3.037  17.375  0.00  0.00    +0.000 A 
ATOM     12  C   UNL     1      48.357   2.480  17.007  0.00  0.00    +0.000 A 
ATOM     13  C   UNL     1      47.213   3.267  17.078  0.00  0.00    +0.000 A 
ATOM     14  C   UNL     1      47.316   4.583  17.511  0.00  0.00    +0.000 A 
ATOM     15  C   UNL     1      48.570   5.074  17.867  0.00  0.00    +0.000 A 
ATOM     16  N   UNL     1      49.695   4.319  17.796  0.00  0.00    +0.000 NA
ENDBRANCH   9  15
ENDBRANCH   8   9
ENDBRANCH   2   8
ENDBRANCH   1   5
BRANCH   1  17
ATOM     17  N   UNL     1      47.174   7.478  11.784  0.00  0.00    +0.000 N 
ATOM     18  C   UNL     1      45.876   7.049  11.816  0.00  0.00    +0.000 C 
ATOM     19  O   UNL     1      45.022   7.637  12.476  0.00  0.00    +0.000 OA
ATOM     20  H   UNL     1      47.815   7.145  11.069  0.00  0.00    +0.000 HD
BRANCH  18  21
ATOM     21  C   UNL     1      45.568   5.804  11.101  0.00  0.00    +0.000 A 
ATOM     22  C   UNL     1      45.843   5.702   9.744  0.00  0.00    +0.000 A 
ATOM     23  S   UNL     1      45.161   4.315   9.020  0.00  0.00    +0.000 S 
ATOM     24  C   UNL     1      44.531   3.784  10.508  0.00  0.00    +0.000 A 
ATOM     25  N   UNL     1      43.734   2.686  10.588  0.00  0.00    +0.000 NA
ATOM     26  C   UNL     1      43.372   2.379  11.788  0.00  0.00    +0.000 A 
ATOM     27  N   UNL     1      43.765   3.042  12.917  0.00  0.00    +0.000 N 
ATOM     28  C   UNL     1      44.592   4.142  12.887  0.00  0.00    +0.000 A 
ATOM     29  O   UNL     1      45.014   4.654  13.919  0.00  0.00    +0.000 OA
ATOM     30  C   UNL     1      44.934   4.593  11.554  0.00  0.00    +0.000 A 
ATOM     31  H   UNL     1      43.508   2.708  13.833  0.00  0.00    +0.000 HD
ENDBRANCH  18  21
ENDBRANCH   1  17
TORSDOF 6
ENDMDL
MODEL 6
REMARK VINA RESULT:    -7.145      3.404      4.884
REMARK INTER + INTRA:         -10.354
REMARK INTER:                  -9.963
REMARK INTRA:                  -0.391
REMARK UNBOUND:                -0.703
REMARK  Name = 
REMARK  7 active torsions:
REMARK  status: ('A' for Active; 'I' for Inactive)
REMARK    1  A    between atoms: C_1  and  C_2
REMARK    2  A    between atoms: C_6  and  C_7
REMARK    3  A    between atoms: C_7  and  O_8
REMARK    4  A    between atoms: O_8  and  C_9
REMARK    5  A    between atoms: C_12  and  C_13
REMARK    6  A    between atoms: C_13  and  N_14
REMARK    7  A    between atoms: C_15  and  C_17
REMARK                            x       y       z     vdW  Elec       q    Type
REMARK                         _______ _______ _______ _____ _____    ______ ____
ROOT
ATOM      1  C   UNL     1      48.017   3.121  17.212  0.00  0.00    +0.000 C 
ENDROOT
BRANCH   1   5
ATOM      2  C   UNL     1      47.247   5.325  13.684  0.00  0.00    +0.000 A 
ATOM      3  C   UNL     1      47.076   3.960  13.760  0.00  0.00    +0.000 A 
ATOM      4  N   UNL     1      47.337   3.227  14.863  0.00  0.00    +0.000 NA
ATOM      5  C   UNL     1      47.798   3.899  15.934  0.00  0.00    +0.000 A 
ATOM      6  N   UNL     1      48.084   5.219  15.939  0.00  0.00    +0.000 NA
ATOM      7  C   UNL     1      47.803   5.898  14.806  0.00  0.00    +0.000 A 
BRANCH   2   8
ATOM      8  O   UNL     1      46.852   5.955  12.546  0.00  0.00    +0.000 OA
BRANCH   8   9
ATOM      9  C   UNL     1      45.432   6.022  12.365  0.00  0.00    +0.000 C 
BRANCH   9  15
ATOM     10  C   UNL     1      45.436   3.805   8.032  0.00  0.00    +0.000 C 
ATOM     11  C   UNL     1      44.942   3.814   9.445  0.00  0.00    +0.000 A 
ATOM     12  C   UNL     1      44.063   2.839   9.905  0.00  0.00    +0.000 A 
ATOM     13  C   UNL     1      43.629   2.897  11.226  0.00  0.00    +0.000 A 
ATOM     14  C   UNL     1      44.080   3.922  12.047  0.00  0.00    +0.000 A 
ATOM     15  C   UNL     1      44.962   4.862  11.521  0.00  0.00    +0.000 A 
ATOM     16  N   UNL     1      45.388   4.821  10.233  0.00  0.00    +0.000 NA
ENDBRANCH   9  15
ENDBRANCH   8   9
ENDBRANCH   2   8
ENDBRANCH   1   5
BRANCH   1  17
ATOM     17  N   UNL     1      49.406   3.048  17.606  0.00  0.00    +0.000 N 
ATOM     18  C   UNL     1      50.277   2.230  16.939  0.00  0.00    +0.000 C 
ATOM     19  O   UNL     1      49.915   1.560  15.974  0.00  0.00    +0.000 OA
ATOM     20  H   UNL     1      49.748   3.767  18.238  0.00  0.00    +0.000 HD
BRANCH  18  21
ATOM     21  C   UNL     1      51.637   2.121  17.481  0.00  0.00    +0.000 A 
ATOM     22  C   UNL     1      52.288   0.895  17.469  0.00  0.00    +0.000 A 
ATOM     23  S   UNL     1      53.724   0.884  18.391  0.00  0.00    +0.000 S 
ATOM     24  C   UNL     1      53.546   2.530  18.783  0.00  0.00    +0.000 A 
ATOM     25  N   UNL     1      54.396   3.149  19.645  0.00  0.00    +0.000 NA
ATOM     26  C   UNL     1      54.164   4.408  19.806  0.00  0.00    +0.000 A 
ATOM     27  N   UNL     1      53.191   5.114  19.157  0.00  0.00    +0.000 N 
ATOM     28  C   UNL     1      52.325   4.535  18.256  0.00  0.00    +0.000 A 
ATOM     29  O   UNL     1      51.530   5.210  17.609  0.00  0.00    +0.000 OA
ATOM     30  C   UNL     1      52.472   3.101  18.125  0.00  0.00    +0.000 A 
ATOM     31  H   UNL     1      53.108   6.113  19.270  0.00  0.00    +0.000 HD
ENDBRANCH  18  21
ENDBRANCH   1  17
TORSDOF 6
ENDMDL
MODEL 7
REMARK VINA RESULT:    -6.981      2.258      3.365
REMARK INTER + INTRA:         -10.132
REMARK INTER:                  -9.344
REMARK INTRA:                  -0.788
REMARK UNBOUND:                -0.703
REMARK  Name = 
REMARK  7 active torsions:
REMARK  status: ('A' for Active; 'I' for Inactive)
REMARK    1  A    between atoms: C_1  and  C_2
REMARK    2  A    between atoms: C_6  and  C_7
REMARK    3  A    between atoms: C_7  and  O_8
REMARK    4  A    between atoms: O_8  and  C_9
REMARK    5  A    between atoms: C_12  and  C_13
REMARK    6  A    between atoms: C_13  and  N_14
REMARK    7  A    between atoms: C_15  and  C_17
REMARK                            x       y       z     vdW  Elec       q    Type
REMARK                         _______ _______ _______ _____ _____    ______ ____
ROOT
ATOM      1  C   UNL     1      47.463   3.944  16.084  0.00  0.00    +0.000 C 
ENDROOT
BRANCH   1   5
ATOM      2  C   UNL     1      46.289   5.623  12.383  0.00  0.00    +0.000 A 
ATOM      3  C   UNL     1      47.490   5.922  12.987  0.00  0.00    +0.000 A 
ATOM      4  N   UNL     1      47.881   5.421  14.178  0.00  0.00    +0.000 NA
ATOM      5  C   UNL     1      47.019   4.590  14.791  0.00  0.00    +0.000 A 
ATOM      6  N   UNL     1      45.783   4.300  14.330  0.00  0.00    +0.000 NA
ATOM      7  C   UNL     1      45.448   4.832  13.135  0.00  0.00    +0.000 A 
BRANCH   2   8
ATOM      8  O   UNL     1      46.061   6.116  11.137  0.00  0.00    +0.000 OA
BRANCH   8   9
ATOM      9  C   UNL     1      44.827   5.689  10.546  0.00  0.00    +0.000 C 
BRANCH   9  15
ATOM     10  C   UNL     1      46.750   3.689   6.547  0.00  0.00    +0.000 C 
ATOM     11  C   UNL     1      45.948   3.494   7.796  0.00  0.00    +0.000 A 
ATOM     12  C   UNL     1      45.407   2.252   8.115  0.00  0.00    +0.000 A 
ATOM     13  C   UNL     1      44.663   2.126   9.284  0.00  0.00    +0.000 A 
ATOM     14  C   UNL     1      44.477   3.237  10.097  0.00  0.00    +0.000 A 
ATOM     15  C   UNL     1      45.051   4.447   9.718  0.00  0.00    +0.000 A 
ATOM     16  N   UNL     1      45.773   4.586   8.577  0.00  0.00    +0.000 NA
ENDBRANCH   9  15
ENDBRANCH   8   9
ENDBRANCH   2   8
ENDBRANCH   1   5
BRANCH   1  17
ATOM     17  N   UNL     1      48.262   4.816  16.915  0.00  0.00    +0.000 N 
ATOM     18  C   UNL     1      47.756   5.323  18.080  0.00  0.00    +0.000 C 
ATOM     19  O   UNL     1      46.626   5.034  18.468  0.00  0.00    +0.000 OA
ATOM     20  H   UNL     1      49.258   4.861  16.717  0.00  0.00    +0.000 HD
BRANCH  18  21
ATOM     21  C   UNL     1      48.587   6.297  18.799  0.00  0.00    +0.000 A 
ATOM     22  C   UNL     1      48.002   7.431  19.348  0.00  0.00    +0.000 A 
ATOM     23  S   UNL     1      49.139   8.585  19.883  0.00  0.00    +0.000 S 
ATOM     24  C   UNL     1      50.442   7.579  19.451  0.00  0.00    +0.000 A 
ATOM     25  N   UNL     1      51.728   8.005  19.551  0.00  0.00    +0.000 NA
ATOM     26  C   UNL     1      52.608   7.115  19.233  0.00  0.00    +0.000 A 
ATOM     27  N   UNL     1      52.323   5.831  18.865  0.00  0.00    +0.000 N 
ATOM     28  C   UNL     1      51.036   5.348  18.776  0.00  0.00    +0.000 A 
ATOM     29  O   UNL     1      50.812   4.163  18.546  0.00  0.00    +0.000 OA
ATOM     30  C   UNL     1      50.010   6.340  19.014  0.00  0.00    +0.000 A 
ATOM     31  H   UNL     1      53.058   5.160  18.700  0.00  0.00    +0.000 HD
ENDBRANCH  18  21
ENDBRANCH   1  17
TORSDOF 6
ENDMDL
MODEL 8
REMARK VINA RESULT:    -6.954      2.760      8.528
REMARK INTER + INTRA:         -10.095
REMARK INTER:                  -9.012
REMARK INTRA:                  -1.084
REMARK UNBOUND:                -0.703
REMARK  Name = 
REMARK  7 active torsions:
REMARK  status: ('A' for Active; 'I' for Inactive)
REMARK    1  A    between atoms: C_1  and  C_2
REMARK    2  A    between atoms: C_6  and  C_7
REMARK    3  A    between atoms: C_7  and  O_8
REMARK    4  A    between atoms: O_8  and  C_9
REMARK    5  A    between atoms: C_12  and  C_13
REMARK    6  A    between atoms: C_13  and  N_14
REMARK    7  A    between atoms: C_15  and  C_17
REMARK                            x       y       z     vdW  Elec       q    Type
REMARK                         _______ _______ _______ _____ _____    ______ ____
ROOT
ATOM      1  C   UNL     1      48.162   7.760  11.788  0.00  0.00    +0.000 C 
ENDROOT
BRANCH   1   5
ATOM      2  C   UNL     1      49.291   8.084  15.852  0.00  0.00    +0.000 A 
ATOM      3  C   UNL     1      48.485   9.010  15.229  0.00  0.00    +0.000 A 
ATOM      4  N   UNL     1      48.128   8.947  13.929  0.00  0.00    +0.000 NA
ATOM      5  C   UNL     1      48.613   7.908  13.224  0.00  0.00    +0.000 A 
ATOM      6  N   UNL     1      49.480   6.995  13.713  0.00  0.00    +0.000 NA
ATOM      7  C   UNL     1      49.801   7.112  15.019  0.00  0.00    +0.000 A 
BRANCH   2   8
ATOM      8  O   UNL     1      49.493   8.210  17.190  0.00  0.00    +0.000 OA
BRANCH   8   9
ATOM      9  C   UNL     1      48.369   7.841  17.999  0.00  0.00    +0.000 C 
BRANCH   9  15
ATOM     10  C   UNL     1      47.357   3.118  17.400  0.00  0.00    +0.000 C 
ATOM     11  C   UNL     1      48.029   4.171  18.226  0.00  0.00    +0.000 A 
ATOM     12  C   UNL     1      48.699   3.843  19.400  0.00  0.00    +0.000 A 
ATOM     13  C   UNL     1      49.300   4.860  20.135  0.00  0.00    +0.000 A 
ATOM     14  C   UNL     1      49.214   6.171  19.682  0.00  0.00    +0.000 A 
ATOM     15  C   UNL     1      48.531   6.425  18.496  0.00  0.00    +0.000 A 
ATOM     16  N   UNL     1      47.935   5.444  17.773  0.00  0.00    +0.000 NA
ENDBRANCH   9  15
ENDBRANCH   8   9
ENDBRANCH   2   8
ENDBRANCH   1   5
BRANCH   1  17
ATOM     17  N   UNL     1      47.170   6.725  11.603  0.00  0.00    +0.000 N 
ATOM     18  C   UNL     1      45.837   7.014  11.696  0.00  0.00    +0.000 C 
ATOM     19  O   UNL     1      45.443   8.159  11.910  0.00  0.00    +0.000 OA
ATOM     20  H   UNL     1      47.486   5.847  11.199  0.00  0.00    +0.000 HD
BRANCH  18  21
ATOM     21  C   UNL     1      44.903   5.884  11.619  0.00  0.00    +0.000 A 
ATOM     22  C   UNL     1      43.971   5.689  12.630  0.00  0.00    +0.000 A 
ATOM     23  S   UNL     1      43.173   4.184  12.531  0.00  0.00    +0.000 S 
ATOM     24  C   UNL     1      44.007   3.777  11.105  0.00  0.00    +0.000 A 
ATOM     25  N   UNL     1      43.869   2.554  10.530  0.00  0.00    +0.000 NA
ATOM     26  C   UNL     1      44.526   2.408   9.428  0.00  0.00    +0.000 A 
ATOM     27  N   UNL     1      45.272   3.383   8.829  0.00  0.00    +0.000 N 
ATOM     28  C   UNL     1      45.418   4.645   9.361  0.00  0.00    +0.000 A 
ATOM     29  O   UNL     1      46.006   5.533   8.751  0.00  0.00    +0.000 OA
ATOM     30  C   UNL     1      44.792   4.822  10.654  0.00  0.00    +0.000 A 
ATOM     31  H   UNL     1      45.701   3.232   7.928  0.00  0.00    +0.000 HD
ENDBRANCH  18  21
ENDBRANCH   1  17
TORSDOF 6
ENDMDL
MODEL 9
REMARK VINA RESULT:    -6.710      2.640      3.770
REMARK INTER + INTRA:          -9.766
REMARK INTER:                  -8.791
REMARK INTRA:                  -0.975
REMARK UNBOUND:                -0.703
REMARK  Name = 
REMARK  7 active torsions:
REMARK  status: ('A' for Active; 'I' for Inactive)
REMARK    1  A    between atoms: C_1  and  C_2
REMARK    2  A    between atoms: C_6  and  C_7
REMARK    3  A    between atoms: C_7  and  O_8
REMARK    4  A    between atoms: O_8  and  C_9
REMARK    5  A    between atoms: C_12  and  C_13
REMARK    6  A    between atoms: C_13  and  N_14
REMARK    7  A    between atoms: C_15  and  C_17
REMARK                            x       y       z     vdW  Elec       q    Type
REMARK                         _______ _______ _______ _____ _____    ______ ____
ROOT
ATOM      1  C   UNL     1      49.667   7.664  15.881  0.00  0.00    +0.000 C 
ENDROOT
BRANCH   1   5
ATOM      2  C   UNL     1      47.245   6.850  12.509  0.00  0.00    +0.000 A 
ATOM      3  C   UNL     1      47.331   8.101  13.078  0.00  0.00    +0.000 A 
ATOM      4  N   UNL     1      48.076   8.386  14.167  0.00  0.00    +0.000 NA
ATOM      5  C   UNL     1      48.756   7.361  14.713  0.00  0.00    +0.000 A 
ATOM      6  N   UNL     1      48.673   6.081  14.288  0.00  0.00    +0.000 NA
ATOM      7  C   UNL     1      47.912   5.859  13.195  0.00  0.00    +0.000 A 
BRANCH   2   8
ATOM      8  O   UNL     1      46.540   6.720  11.355  0.00  0.00    +0.000 OA
BRANCH   8   9
ATOM      9  C   UNL     1      45.118   6.674  11.528  0.00  0.00    +0.000 C 
BRANCH   9  15
ATOM     10  C   UNL     1      44.724   2.593   8.905  0.00  0.00    +0.000 C 
ATOM     11  C   UNL     1      44.421   3.304  10.187  0.00  0.00    +0.000 A 
ATOM     12  C   UNL     1      43.687   2.686  11.195  0.00  0.00    +0.000 A 
ATOM     13  C   UNL     1      43.426   3.394  12.364  0.00  0.00    +0.000 A 
ATOM     14  C   UNL     1      43.901   4.693  12.495  0.00  0.00    +0.000 A 
ATOM     15  C   UNL     1      44.632   5.247  11.447  0.00  0.00    +0.000 A 
ATOM     16  N   UNL     1      44.888   4.571  10.299  0.00  0.00    +0.000 NA
ENDBRANCH   9  15
ENDBRANCH   8   9
ENDBRANCH   2   8
ENDBRANCH   1   5
BRANCH   1  17
ATOM     17  N   UNL     1      50.313   6.489  16.423  0.00  0.00    +0.000 N 
ATOM     18  C   UNL     1      50.497   6.356  17.771  0.00  0.00    +0.000 C 
ATOM     19  O   UNL     1      50.099   7.211  18.560  0.00  0.00    +0.000 OA
ATOM     20  H   UNL     1      50.424   5.693  15.801  0.00  0.00    +0.000 HD
BRANCH  18  21
ATOM     21  C   UNL     1      51.270   5.194  18.227  0.00  0.00    +0.000 A 
ATOM     22  C   UNL     1      52.361   5.377  19.065  0.00  0.00    +0.000 A 
ATOM     23  S   UNL     1      53.308   3.971  19.257  0.00  0.00    +0.000 S 
ATOM     24  C   UNL     1      52.256   3.065  18.274  0.00  0.00    +0.000 A 
ATOM     25  N   UNL     1      52.536   1.780  17.933  0.00  0.00    +0.000 NA
ATOM     26  C   UNL     1      51.622   1.207  17.224  0.00  0.00    +0.000 A 
ATOM     27  N   UNL     1      50.440   1.786  16.858  0.00  0.00    +0.000 N 
ATOM     28  C   UNL     1      50.101   3.076  17.203  0.00  0.00    +0.000 A 
ATOM     29  O   UNL     1      48.991   3.534  16.953  0.00  0.00    +0.000 OA
ATOM     30  C   UNL     1      51.143   3.797  17.904  0.00  0.00    +0.000 A 
ATOM     31  H   UNL     1      49.732   1.261  16.366  0.00  0.00    +0.000 HD
ENDBRANCH  18  21
ENDBRANCH   1  17
TORSDOF 6
ENDMDL
