MODEL 1
REMARK VINA RESULT:    -7.879      0.000      0.000
REMARK INTER + INTRA:         -11.610
REMARK INTER:                 -10.643
REMARK INTRA:                  -0.967
REMARK UNBOUND:                -0.967
REMARK  Name = 
REMARK  6 active torsions:
REMARK  status: ('A' for Active; 'I' for Inactive)
REMARK    1  A    between atoms: C_2  and  C_3
REMARK    2  A    between atoms: C_6  and  N_7
REMARK    3  A    between atoms: N_7  and  C_8
REMARK    4  A    between atoms: C_8  and  C_9
REMARK    5  A    between atoms: C_9  and  C_12
REMARK    6  A    between atoms: C_16  and  C_17
REMARK                            x       y       z     vdW  Elec       q    Type
REMARK                         _______ _______ _______ _____ _____    ______ ____
ROOT
ATOM      1  C   UNL     1      43.638   5.375  12.200  0.00  0.00    +0.000 C 
ATOM      2  F   UNL     1      43.154   6.523  11.641  0.00  0.00    +0.000 F 
ATOM      3  F   UNL     1      42.798   5.097  13.241  0.00  0.00    +0.000 F 
ENDROOT
BRANCH   1   4
ATOM      4  C   UNL     1      45.082   5.517  12.651  0.00  0.00    +0.000 A 
ATOM      5  C   UNL     1      45.612   4.671  13.631  0.00  0.00    +0.000 A 
ATOM      6  C   UNL     1      46.913   4.859  14.090  0.00  0.00    +0.000 A 
ATOM      7  C   UNL     1      47.691   5.908  13.591  0.00  0.00    +0.000 A 
ATOM      8  C   UNL     1      47.201   6.784  12.605  0.00  0.00    +0.000 A 
ATOM      9  C   UNL     1      45.894   6.547  12.133  0.00  0.00    +0.000 A 
BRANCH   8  10
ATOM     10  C   UNL     1      48.007   7.936  12.121  0.00  0.00    +0.000 A 
ATOM     11  C   UNL     1      49.360   7.800  11.754  0.00  0.00    +0.000 A 
ATOM     12  C   UNL     1      50.127   8.901  11.355  0.00  0.00    +0.000 A 
ATOM     13  C   UNL     1      49.554  10.167  11.296  0.00  0.00    +0.000 A 
ATOM     14  C   UNL     1      48.216  10.331  11.633  0.00  0.00    +0.000 A 
ATOM     15  C   UNL     1      47.457   9.231  12.046  0.00  0.00    +0.000 A 
ENDBRANCH   8  10
ENDBRANCH   1   4
BRANCH   1  16
ATOM     16  C   UNL     1      43.526   4.231  11.153  0.00  0.00    +0.000 C 
BRANCH  16  17
ATOM     17  N   UNL     1      43.919   4.602   9.794  0.00  0.00    +0.000 N 
ATOM     18  H   UNL     1      43.576   5.464   9.380  0.00  0.00    +0.000 HD
BRANCH  17  22
ATOM     19  C   UNL     1      46.562   2.503   7.478  0.00  0.00    +0.000 A 
ATOM     20  C   UNL     1      46.405   3.875   7.368  0.00  0.00    +0.000 A 
ATOM     21  N   UNL     1      45.529   4.581   8.134  0.00  0.00    +0.000 NA
ATOM     22  C   UNL     1      44.793   3.880   9.024  0.00  0.00    +0.000 A 
ATOM     23  C   UNL     1      44.957   2.494   9.105  0.00  0.00    +0.000 A 
ATOM     24  N   UNL     1      45.832   1.775   8.354  0.00  0.00    +0.000 NA
BRANCH  19  26
ATOM     25  N   UNL     1      48.265   1.211   6.011  0.00  0.00    +0.000 NA
ATOM     26  C   UNL     1      47.516   1.792   6.679  0.00  0.00    +0.000 C 
ENDBRANCH  19  26
ENDBRANCH  17  22
ENDBRANCH  16  17
ENDBRANCH   1  16
TORSDOF 6
ENDMDL
MODEL 2
REMARK VINA RESULT:    -7.853      3.440      7.286
REMARK INTER + INTRA:         -11.575
REMARK INTER:                 -10.718
REMARK INTRA:                  -0.857
REMARK UNBOUND:                -0.967
REMARK  Name = 
REMARK  6 active torsions:
REMARK  status: ('A' for Active; 'I' for Inactive)
REMARK    1  A    between atoms: C_2  and  C_3
REMARK    2  A    between atoms: C_6  and  N_7
REMARK    3  A    between atoms: N_7  and  C_8
REMARK    4  A    between atoms: C_8  and  C_9
REMARK    5  A    between atoms: C_9  and  C_12
REMARK    6  A    between atoms: C_16  and  C_17
REMARK                            x       y       z     vdW  Elec       q    Type
REMARK                         _______ _______ _______ _____ _____    ______ ____
ROOT
ATOM      1  C   UNL     1      44.676   6.317  11.386  0.00  0.00    +0.000 C 
ATOM      2  F   UNL     1      43.518   7.041  11.381  0.00  0.00    +0.000 F 
ATOM      3  F   UNL     1      45.557   7.038  10.631  0.00  0.00    +0.000 F 
ENDROOT
BRANCH   1   4
ATOM      4  C   UNL     1      44.478   4.909  10.849  0.00  0.00    +0.000 A 
ATOM      5  C   UNL     1      43.661   3.995  11.523  0.00  0.00    +0.000 A 
ATOM      6  C   UNL     1      43.548   2.686  11.064  0.00  0.00    +0.000 A 
ATOM      7  C   UNL     1      44.267   2.269   9.940  0.00  0.00    +0.000 A 
ATOM      8  C   UNL     1      45.102   3.152   9.230  0.00  0.00    +0.000 A 
ATOM      9  C   UNL     1      45.168   4.481   9.697  0.00  0.00    +0.000 A 
BRANCH   8  10
ATOM     10  C   UNL     1      45.914   2.691   8.073  0.00  0.00    +0.000 A 
ATOM     11  C   UNL     1      46.136   3.504   6.945  0.00  0.00    +0.000 A 
ATOM     12  C   UNL     1      46.853   3.040   5.836  0.00  0.00    +0.000 A 
ATOM     13  C   UNL     1      47.383   1.754   5.834  0.00  0.00    +0.000 A 
ATOM     14  C   UNL     1      47.198   0.935   6.941  0.00  0.00    +0.000 A 
ATOM     15  C   UNL     1      46.467   1.396   8.041  0.00  0.00    +0.000 A 
ENDBRANCH   8  10
ENDBRANCH   1   4
BRANCH   1  16
ATOM     16  C   UNL     1      45.210   6.252  12.844  0.00  0.00    +0.000 C 
BRANCH  16  17
ATOM     17  N   UNL     1      46.549   5.678  12.983  0.00  0.00    +0.000 N 
ATOM     18  H   UNL     1      47.124   5.521  12.161  0.00  0.00    +0.000 HD
BRANCH  17  22
ATOM     19  C   UNL     1      48.271   4.720  16.571  0.00  0.00    +0.000 A 
ATOM     20  C   UNL     1      47.226   3.989  16.030  0.00  0.00    +0.000 A 
ATOM     21  N   UNL     1      46.648   4.300  14.837  0.00  0.00    +0.000 NA
ATOM     22  C   UNL     1      47.134   5.378  14.185  0.00  0.00    +0.000 A 
ATOM     23  C   UNL     1      48.178   6.110  14.760  0.00  0.00    +0.000 A 
ATOM     24  N   UNL     1      48.772   5.808  15.944  0.00  0.00    +0.000 NA
BRANCH  19  26
ATOM     25  N   UNL     1      49.361   4.072  18.832  0.00  0.00    +0.000 NA
ATOM     26  C   UNL     1      48.879   4.347  17.814  0.00  0.00    +0.000 C 
ENDBRANCH  19  26
ENDBRANCH  17  22
ENDBRANCH  16  17
ENDBRANCH   1  16
TORSDOF 6
ENDMDL
MODEL 3
REMARK VINA RESULT:    -7.843      1.101      1.531
REMARK INTER + INTRA:         -11.561
REMARK INTER:                 -10.690
REMARK INTRA:                  -0.871
REMARK UNBOUND:                -0.967
REMARK  Name = 
REMARK  6 active torsions:
REMARK  status: ('A' for Active; 'I' for Inactive)
REMARK    1  A    between atoms: C_2  and  C_3
REMARK    2  A    between atoms: C_6  and  N_7
REMARK    3  A    between atoms: N_7  and  C_8
REMARK    4  A    between atoms: C_8  and  C_9
REMARK    5  A    between atoms: C_9  and  C_12
REMARK    6  A    between atoms: C_16  and  C_17
REMARK                            x       y       z     vdW  Elec       q    Type
REMARK                         _______ _______ _______ _____ _____    ______ ____
ROOT
ATOM      1  C   UNL     1      43.328   4.614  12.609  0.00  0.00    +0.000 C 
ATOM      2  F   UNL     1      42.308   5.511  12.468  0.00  0.00    +0.000 F 
ATOM      3  F   UNL     1      43.000   3.861  13.701  0.00  0.00    +0.000 F 
ENDROOT
BRANCH   1   4
ATOM      4  C   UNL     1      44.678   5.293  12.765  0.00  0.00    +0.000 A 
ATOM      5  C   UNL     1      45.747   4.628  13.374  0.00  0.00    +0.000 A 
ATOM      6  C   UNL     1      46.956   5.287  13.580  0.00  0.00    +0.000 A 
ATOM      7  C   UNL     1      47.103   6.625  13.201  0.00  0.00    +0.000 A 
ATOM      8  C   UNL     1      46.056   7.335  12.585  0.00  0.00    +0.000 A 
ATOM      9  C   UNL     1      44.855   6.631  12.357  0.00  0.00    +0.000 A 
BRANCH   8  10
ATOM     10  C   UNL     1      46.193   8.774  12.239  0.00  0.00    +0.000 A 
ATOM     11  C   UNL     1      47.450   9.398  12.121  0.00  0.00    +0.000 A 
ATOM     12  C   UNL     1      47.568  10.766  11.852  0.00  0.00    +0.000 A 
ATOM     13  C   UNL     1      46.430  11.546  11.677  0.00  0.00    +0.000 A 
ATOM     14  C   UNL     1      45.174  10.955  11.768  0.00  0.00    +0.000 A 
ATOM     15  C   UNL     1      45.060   9.591  12.052  0.00  0.00    +0.000 A 
ENDBRANCH   8  10
ENDBRANCH   1   4
BRANCH   1  16
ATOM     16  C   UNL     1      43.348   3.691  11.358  0.00  0.00    +0.000 C 
BRANCH  16  17
ATOM     17  N   UNL     1      43.892   4.308  10.148  0.00  0.00    +0.000 N 
ATOM     18  H   UNL     1      43.674   5.275   9.926  0.00  0.00    +0.000 HD
BRANCH  17  22
ATOM     19  C   UNL     1      46.485   2.489   7.555  0.00  0.00    +0.000 A 
ATOM     20  C   UNL     1      46.189   3.840   7.484  0.00  0.00    +0.000 A 
ATOM     21  N   UNL     1      45.328   4.453   8.343  0.00  0.00    +0.000 NA
ATOM     22  C   UNL     1      44.751   3.679   9.286  0.00  0.00    +0.000 A 
ATOM     23  C   UNL     1      45.053   2.314   9.327  0.00  0.00    +0.000 A 
ATOM     24  N   UNL     1      45.915   1.688   8.484  0.00  0.00    +0.000 NA
BRANCH  19  26
ATOM     25  N   UNL     1      48.160   1.360   5.931  0.00  0.00    +0.000 NA
ATOM     26  C   UNL     1      47.420   1.880   6.656  0.00  0.00    +0.000 C 
ENDBRANCH  19  26
ENDBRANCH  17  22
ENDBRANCH  16  17
ENDBRANCH   1  16
TORSDOF 6
ENDMDL
MODEL 4
REMARK VINA RESULT:    -7.523      1.691      3.764
REMARK INTER + INTRA:         -11.128
REMARK INTER:                 -10.269
REMARK INTRA:                  -0.859
REMARK UNBOUND:                -0.967
REMARK  Name = 
REMARK  6 active torsions:
REMARK  status: ('A' for Active; 'I' for Inactive)
REMARK    1  A    between atoms: C_2  and  C_3
REMARK    2  A    between atoms: C_6  and  N_7
REMARK    3  A    between atoms: N_7  and  C_8
REMARK    4  A    between atoms: C_8  and  C_9
REMARK    5  A    between atoms: C_9  and  C_12
REMARK    6  A    between atoms: C_16  and  C_17
REMARK                            x       y       z     vdW  Elec       q    Type
REMARK                         _______ _______ _______ _____ _____    ______ ____
ROOT
ATOM      1  C   UNL     1      43.891   5.068  12.226  0.00  0.00    +0.000 C 
ATOM      2  F   UNL     1      43.259   6.045  11.511  0.00  0.00    +0.000 F 
ATOM      3  F   UNL     1      43.061   4.793  13.275  0.00  0.00    +0.000 F 
ENDROOT
BRANCH   1   4
ATOM      4  C   UNL     1      45.275   5.494  12.686  0.00  0.00    +0.000 A 
ATOM      5  C   UNL     1      46.085   6.294  11.871  0.00  0.00    +0.000 A 
ATOM      6  C   UNL     1      47.379   6.614  12.271  0.00  0.00    +0.000 A 
ATOM      7  C   UNL     1      47.887   6.121  13.476  0.00  0.00    +0.000 A 
ATOM      8  C   UNL     1      47.111   5.314  14.328  0.00  0.00    +0.000 A 
ATOM      9  C   UNL     1      45.792   5.036  13.914  0.00  0.00    +0.000 A 
BRANCH   8  10
ATOM     10  C   UNL     1      47.674   4.740  15.579  0.00  0.00    +0.000 A 
ATOM     11  C   UNL     1      48.534   5.475  16.417  0.00  0.00    +0.000 A 
ATOM     12  C   UNL     1      49.104   4.907  17.562  0.00  0.00    +0.000 A 
ATOM     13  C   UNL     1      48.815   3.591  17.909  0.00  0.00    +0.000 A 
ATOM     14  C   UNL     1      47.954   2.846  17.112  0.00  0.00    +0.000 A 
ATOM     15  C   UNL     1      47.398   3.412  15.960  0.00  0.00    +0.000 A 
ENDBRANCH   8  10
ENDBRANCH   1   4
BRANCH   1  16
ATOM     16  C   UNL     1      44.002   3.800  11.334  0.00  0.00    +0.000 C 
BRANCH  16  17
ATOM     17  N   UNL     1      44.005   4.059   9.894  0.00  0.00    +0.000 N 
ATOM     18  H   UNL     1      43.365   4.740   9.497  0.00  0.00    +0.000 HD
BRANCH  17  22
ATOM     19  C   UNL     1      46.632   2.380   7.242  0.00  0.00    +0.000 A 
ATOM     20  C   UNL     1      46.303   3.725   7.210  0.00  0.00    +0.000 A 
ATOM     21  N   UNL     1      45.431   4.292   8.089  0.00  0.00    +0.000 NA
ATOM     22  C   UNL     1      44.876   3.477   9.012  0.00  0.00    +0.000 A 
ATOM     23  C   UNL     1      45.212   2.119   9.013  0.00  0.00    +0.000 A 
ATOM     24  N   UNL     1      46.086   1.539   8.149  0.00  0.00    +0.000 NA
BRANCH  19  26
ATOM     25  N   UNL     1      48.321   1.363   5.558  0.00  0.00    +0.000 NA
ATOM     26  C   UNL     1      47.578   1.820   6.323  0.00  0.00    +0.000 C 
ENDBRANCH  19  26
ENDBRANCH  17  22
ENDBRANCH  16  17
ENDBRANCH   1  16
TORSDOF 6
ENDMDL
MODEL 5
REMARK VINA RESULT:    -7.483      3.376      7.148
REMARK INTER + INTRA:         -11.075
REMARK INTER:                 -10.284
REMARK INTRA:                  -0.791
REMARK UNBOUND:                -0.967
REMARK  Name = 
REMARK  6 active torsions:
REMARK  status: ('A' for Active; 'I' for Inactive)
REMARK    1  A    between atoms: C_2  and  C_3
REMARK    2  A    between atoms: C_6  and  N_7
REMARK    3  A    between atoms: N_7  and  C_8
REMARK    4  A    between atoms: C_8  and  C_9
REMARK    5  A    between atoms: C_9  and  C_12
REMARK    6  A    between atoms: C_16  and  C_17
REMARK                            x       y       z     vdW  Elec       q    Type
REMARK                         _______ _______ _______ _____ _____    ______ ____
ROOT
ATOM      1  C   UNL     1      43.602   3.535  11.651  0.00  0.00    +0.000 C 
ATOM      2  F   UNL     1      43.221   2.241  11.437  0.00  0.00    +0.000 F 
ATOM      3  F   UNL     1      42.442   4.257  11.663  0.00  0.00    +0.000 F 
ENDROOT
BRANCH   1   4
ATOM      4  C   UNL     1      44.577   4.032  10.597  0.00  0.00    +0.000 A 
ATOM      5  C   UNL     1      44.930   5.384  10.530  0.00  0.00    +0.000 A 
ATOM      6  C   UNL     1      45.764   5.840   9.513  0.00  0.00    +0.000 A 
ATOM      7  C   UNL     1      46.237   4.955   8.539  0.00  0.00    +0.000 A 
ATOM      8  C   UNL     1      45.909   3.587   8.565  0.00  0.00    +0.000 A 
ATOM      9  C   UNL     1      45.092   3.148   9.627  0.00  0.00    +0.000 A 
BRANCH   8  10
ATOM     10  C   UNL     1      46.361   2.660   7.494  0.00  0.00    +0.000 A 
ATOM     11  C   UNL     1      46.653   1.307   7.751  0.00  0.00    +0.000 A 
ATOM     12  C   UNL     1      47.133   0.457   6.749  0.00  0.00    +0.000 A 
ATOM     13  C   UNL     1      47.318   0.934   5.456  0.00  0.00    +0.000 A 
ATOM     14  C   UNL     1      47.020   2.261   5.166  0.00  0.00    +0.000 A 
ATOM     15  C   UNL     1      46.555   3.112   6.174  0.00  0.00    +0.000 A 
ENDBRANCH   8  10
ENDBRANCH   1   4
BRANCH   1  16
ATOM     16  C   UNL     1      44.259   3.628  13.057  0.00  0.00    +0.000 C 
BRANCH  16  17
ATOM     17  N   UNL     1      45.716   3.496  13.065  0.00  0.00    +0.000 N 
ATOM     18  H   UNL     1      46.173   2.847  12.431  0.00  0.00    +0.000 HD
BRANCH  17  22
ATOM     19  C   UNL     1      48.211   5.692  15.452  0.00  0.00    +0.000 A 
ATOM     20  C   UNL     1      47.507   4.597  15.924  0.00  0.00    +0.000 A 
ATOM     21  N   UNL     1      46.675   3.861  15.136  0.00  0.00    +0.000 NA
ATOM     22  C   UNL     1      46.550   4.248  13.849  0.00  0.00    +0.000 A 
ATOM     23  C   UNL     1      47.260   5.367  13.401  0.00  0.00    +0.000 A 
ATOM     24  N   UNL     1      48.099   6.108  14.170  0.00  0.00    +0.000 NA
BRANCH  19  26
ATOM     25  N   UNL     1      49.801   7.040  16.995  0.00  0.00    +0.000 NA
ATOM     26  C   UNL     1      49.104   6.428  16.298  0.00  0.00    +0.000 C 
ENDBRANCH  19  26
ENDBRANCH  17  22
ENDBRANCH  16  17
ENDBRANCH   1  16
TORSDOF 6
ENDMDL
MODEL 6
REMARK VINA RESULT:    -7.441      3.420      6.907
REMARK INTER + INTRA:         -11.018
REMARK INTER:                 -10.199
REMARK INTRA:                  -0.819
REMARK UNBOUND:                -0.967
REMARK  Name = 
REMARK  6 active torsions:
REMARK  status: ('A' for Active; 'I' for Inactive)
REMARK    1  A    between atoms: C_2  and  C_3
REMARK    2  A    between atoms: C_6  and  N_7
REMARK    3  A    between atoms: N_7  and  C_8
REMARK    4  A    between atoms: C_8  and  C_9
REMARK    5  A    between atoms: C_9  and  C_12
REMARK    6  A    between atoms: C_16  and  C_17
REMARK                            x       y       z     vdW  Elec       q    Type
REMARK                         _______ _______ _______ _____ _____    ______ ____
ROOT
ATOM      1  C   UNL     1      45.685   7.431  11.931  0.00  0.00    +0.000 C 
ATOM      2  F   UNL     1      45.293   7.706  13.210  0.00  0.00    +0.000 F 
ATOM      3  F   UNL     1      45.480   8.589  11.234  0.00  0.00    +0.000 F 
ENDROOT
BRANCH   1   4
ATOM      4  C   UNL     1      44.924   6.260  11.333  0.00  0.00    +0.000 A 
ATOM      5  C   UNL     1      43.668   5.894  11.830  0.00  0.00    +0.000 A 
ATOM      6  C   UNL     1      43.015   4.773  11.325  0.00  0.00    +0.000 A 
ATOM      7  C   UNL     1      43.619   3.992  10.335  0.00  0.00    +0.000 A 
ATOM      8  C   UNL     1      44.881   4.320   9.805  0.00  0.00    +0.000 A 
ATOM      9  C   UNL     1      45.502   5.481  10.310  0.00  0.00    +0.000 A 
BRANCH   8  10
ATOM     10  C   UNL     1      45.548   3.454   8.798  0.00  0.00    +0.000 A 
ATOM     11  C   UNL     1      45.579   2.051   8.922  0.00  0.00    +0.000 A 
ATOM     12  C   UNL     1      46.259   1.248   8.000  0.00  0.00    +0.000 A 
ATOM     13  C   UNL     1      46.913   1.826   6.917  0.00  0.00    +0.000 A 
ATOM     14  C   UNL     1      46.884   3.206   6.756  0.00  0.00    +0.000 A 
ATOM     15  C   UNL     1      46.217   4.008   7.688  0.00  0.00    +0.000 A 
ENDBRANCH   8  10
ENDBRANCH   1   4
BRANCH   1  16
ATOM     16  C   UNL     1      47.207   7.119  11.938  0.00  0.00    +0.000 C 
BRANCH  16  17
ATOM     17  N   UNL     1      47.841   7.183  13.256  0.00  0.00    +0.000 N 
ATOM     18  H   UNL     1      48.341   8.019  13.542  0.00  0.00    +0.000 HD
BRANCH  17  22
ATOM     19  C   UNL     1      47.632   4.250  16.104  0.00  0.00    +0.000 A 
ATOM     20  C   UNL     1      48.409   5.386  16.263  0.00  0.00    +0.000 A 
ATOM     21  N   UNL     1      48.483   6.366  15.321  0.00  0.00    +0.000 NA
ATOM     22  C   UNL     1      47.763   6.187  14.193  0.00  0.00    +0.000 A 
ATOM     23  C   UNL     1      47.000   5.024  14.049  0.00  0.00    +0.000 A 
ATOM     24  N   UNL     1      46.908   4.040  14.981  0.00  0.00    +0.000 NA
BRANCH  19  26
ATOM     25  N   UNL     1      47.464   2.460  17.972  0.00  0.00    +0.000 NA
ATOM     26  C   UNL     1      47.550   3.250  17.127  0.00  0.00    +0.000 C 
ENDBRANCH  19  26
ENDBRANCH  17  22
ENDBRANCH  16  17
ENDBRANCH   1  16
TORSDOF 6
ENDMDL
MODEL 7
REMARK VINA RESULT:    -6.825      3.656      7.525
REMARK INTER + INTRA:         -10.186
REMARK INTER:                  -9.341
REMARK INTRA:                  -0.845
REMARK UNBOUND:                -0.967
REMARK  Name = 
REMARK  6 active torsions:
REMARK  status: ('A' for Active; 'I' for Inactive)
REMARK    1  A    between atoms: C_2  and  C_3
REMARK    2  A    between atoms: C_6  and  N_7
REMARK    3  A    between atoms: N_7  and  C_8
REMARK    4  A    between atoms: C_8  and  C_9
REMARK    5  A    between atoms: C_9  and  C_12
REMARK    6  A    between atoms: C_16  and  C_17
REMARK                            x       y       z     vdW  Elec       q    Type
REMARK                         _______ _______ _______ _____ _____    ______ ____
ROOT
ATOM      1  C   UNL     1      45.131   6.663  11.753  0.00  0.00    +0.000 C 
ATOM      2  F   UNL     1      44.755   6.828  13.055  0.00  0.00    +0.000 F 
ATOM      3  F   UNL     1      44.564   7.706  11.077  0.00  0.00    +0.000 F 
ENDROOT
BRANCH   1   4
ATOM      4  C   UNL     1      44.700   5.316  11.195  0.00  0.00    +0.000 A 
ATOM      5  C   UNL     1      43.738   4.544  11.854  0.00  0.00    +0.000 A 
ATOM      6  C   UNL     1      43.407   3.279  11.374  0.00  0.00    +0.000 A 
ATOM      7  C   UNL     1      44.049   2.764  10.244  0.00  0.00    +0.000 A 
ATOM      8  C   UNL     1      45.023   3.504   9.548  0.00  0.00    +0.000 A 
ATOM      9  C   UNL     1      45.312   4.795  10.037  0.00  0.00    +0.000 A 
BRANCH   8  10
ATOM     10  C   UNL     1      45.750   2.930   8.385  0.00  0.00    +0.000 A 
ATOM     11  C   UNL     1      46.140   1.578   8.342  0.00  0.00    +0.000 A 
ATOM     12  C   UNL     1      46.874   1.060   7.268  0.00  0.00    +0.000 A 
ATOM     13  C   UNL     1      47.223   1.879   6.200  0.00  0.00    +0.000 A 
ATOM     14  C   UNL     1      46.835   3.214   6.204  0.00  0.00    +0.000 A 
ATOM     15  C   UNL     1      46.115   3.732   7.286  0.00  0.00    +0.000 A 
ENDBRANCH   8  10
ENDBRANCH   1   4
BRANCH   1  16
ATOM     16  C   UNL     1      46.677   6.796  11.666  0.00  0.00    +0.000 C 
BRANCH  16  17
ATOM     17  N   UNL     1      47.235   7.944  12.381  0.00  0.00    +0.000 N 
ATOM     18  H   UNL     1      47.205   8.869  11.964  0.00  0.00    +0.000 HD
BRANCH  17  22
ATOM     19  C   UNL     1      48.848   7.685  16.135  0.00  0.00    +0.000 A 
ATOM     20  C   UNL     1      48.732   6.586  15.299  0.00  0.00    +0.000 A 
ATOM     21  N   UNL     1      48.198   6.664  14.049  0.00  0.00    +0.000 NA
ATOM     22  C   UNL     1      47.765   7.877  13.643  0.00  0.00    +0.000 A 
ATOM     23  C   UNL     1      47.878   8.967  14.511  0.00  0.00    +0.000 A 
ATOM     24  N   UNL     1      48.416   8.910  15.758  0.00  0.00    +0.000 NA
BRANCH  19  26
ATOM     25  N   UNL     1      49.949   7.510  18.475  0.00  0.00    +0.000 NA
ATOM     26  C   UNL     1      49.444   7.577  17.433  0.00  0.00    +0.000 C 
ENDBRANCH  19  26
ENDBRANCH  17  22
ENDBRANCH  16  17
ENDBRANCH   1  16
TORSDOF 6
ENDMDL
MODEL 8
REMARK VINA RESULT:    -6.823      3.314      7.090
REMARK INTER + INTRA:         -10.183
REMARK INTER:                  -9.383
REMARK INTRA:                  -0.800
REMARK UNBOUND:                -0.967
REMARK  Name = 
REMARK  6 active torsions:
REMARK  status: ('A' for Active; 'I' for Inactive)
REMARK    1  A    between atoms: C_2  and  C_3
REMARK    2  A    between atoms: C_6  and  N_7
REMARK    3  A    between atoms: N_7  and  C_8
REMARK    4  A    between atoms: C_8  and  C_9
REMARK    5  A    between atoms: C_9  and  C_12
REMARK    6  A    between atoms: C_16  and  C_17
REMARK                            x       y       z     vdW  Elec       q    Type
REMARK                         _______ _______ _______ _____ _____    ______ ____
ROOT
ATOM      1  C   UNL     1      44.948   6.427  11.386  0.00  0.00    +0.000 C 
ATOM      2  F   UNL     1      43.829   7.207  11.458  0.00  0.00    +0.000 F 
ATOM      3  F   UNL     1      45.811   7.106  10.573  0.00  0.00    +0.000 F 
ENDROOT
BRANCH   1   4
ATOM      4  C   UNL     1      44.646   5.032  10.866  0.00  0.00    +0.000 A 
ATOM      5  C   UNL     1      43.786   4.178  11.565  0.00  0.00    +0.000 A 
ATOM      6  C   UNL     1      43.577   2.876  11.119  0.00  0.00    +0.000 A 
ATOM      7  C   UNL     1      44.243   2.405   9.983  0.00  0.00    +0.000 A 
ATOM      8  C   UNL     1      45.116   3.227   9.247  0.00  0.00    +0.000 A 
ATOM      9  C   UNL     1      45.281   4.552   9.702  0.00  0.00    +0.000 A 
BRANCH   8  10
ATOM     10  C   UNL     1      45.870   2.706   8.076  0.00  0.00    +0.000 A 
ATOM     11  C   UNL     1      46.395   1.399   8.047  0.00  0.00    +0.000 A 
ATOM     12  C   UNL     1      47.152   0.937   6.965  0.00  0.00    +0.000 A 
ATOM     13  C   UNL     1      47.391   1.765   5.873  0.00  0.00    +0.000 A 
ATOM     14  C   UNL     1      46.870   3.054   5.864  0.00  0.00    +0.000 A 
ATOM     15  C   UNL     1      46.126   3.518   6.954  0.00  0.00    +0.000 A 
ENDBRANCH   8  10
ENDBRANCH   1   4
BRANCH   1  16
ATOM     16  C   UNL     1      45.574   6.333  12.806  0.00  0.00    +0.000 C 
BRANCH  16  17
ATOM     17  N   UNL     1      46.200   7.567  13.283  0.00  0.00    +0.000 N 
ATOM     18  H   UNL     1      45.626   8.333  13.622  0.00  0.00    +0.000 HD
BRANCH  17  22
ATOM     19  C   UNL     1      50.242   8.127  13.604  0.00  0.00    +0.000 A 
ATOM     20  C   UNL     1      49.386   8.262  14.684  0.00  0.00    +0.000 A 
ATOM     21  N   UNL     1      48.040   8.077  14.586  0.00  0.00    +0.000 NA
ATOM     22  C   UNL     1      47.554   7.757  13.368  0.00  0.00    +0.000 A 
ATOM     23  C   UNL     1      48.437   7.642  12.290  0.00  0.00    +0.000 A 
ATOM     24  N   UNL     1      49.782   7.815  12.371  0.00  0.00    +0.000 NA
BRANCH  19  26
ATOM     25  N   UNL     1      52.802   8.427  13.890  0.00  0.00    +0.000 NA
ATOM     26  C   UNL     1      51.658   8.297  13.746  0.00  0.00    +0.000 C 
ENDBRANCH  19  26
ENDBRANCH  17  22
ENDBRANCH  16  17
ENDBRANCH   1  16
TORSDOF 6
ENDMDL
MODEL 9
REMARK VINA RESULT:    -6.610      3.122      4.105
REMARK INTER + INTRA:          -9.896
REMARK INTER:                  -9.393
REMARK INTRA:                  -0.503
REMARK UNBOUND:                -0.967
REMARK  Name = 
REMARK  6 active torsions:
REMARK  status: ('A' for Active; 'I' for Inactive)
REMARK    1  A    between atoms: C_2  and  C_3
REMARK    2  A    between atoms: C_6  and  N_7
REMARK    3  A    between atoms: N_7  and  C_8
REMARK    4  A    between atoms: C_8  and  C_9
REMARK    5  A    between atoms: C_9  and  C_12
REMARK    6  A    between atoms: C_16  and  C_17
REMARK                            x       y       z     vdW  Elec       q    Type
REMARK                         _______ _______ _______ _____ _____    ______ ____
ROOT
ATOM      1  C   UNL     1      44.970   5.823  12.307  0.00  0.00    +0.000 C 
ATOM      2  F   UNL     1      44.857   5.485  13.625  0.00  0.00    +0.000 F 
ATOM      3  F   UNL     1      45.972   5.035  11.816  0.00  0.00    +0.000 F 
ENDROOT
BRANCH   1   4
ATOM      4  C   UNL     1      45.256   7.302  12.113  0.00  0.00    +0.000 A 
ATOM      5  C   UNL     1      46.397   7.889  12.672  0.00  0.00    +0.000 A 
ATOM      6  C   UNL     1      46.610   9.259  12.551  0.00  0.00    +0.000 A 
ATOM      7  C   UNL     1      45.674  10.062  11.892  0.00  0.00    +0.000 A 
ATOM      8  C   UNL     1      44.512   9.518  11.315  0.00  0.00    +0.000 A 
ATOM      9  C   UNL     1      44.342   8.122  11.421  0.00  0.00    +0.000 A 
BRANCH   8  10
ATOM     10  C   UNL     1      43.489  10.381  10.669  0.00  0.00    +0.000 A 
ATOM     11  C   UNL     1      42.117  10.065  10.700  0.00  0.00    +0.000 A 
ATOM     12  C   UNL     1      41.167  10.853  10.041  0.00  0.00    +0.000 A 
ATOM     13  C   UNL     1      41.563  11.991   9.345  0.00  0.00    +0.000 A 
ATOM     14  C   UNL     1      42.908  12.341   9.313  0.00  0.00    +0.000 A 
ATOM     15  C   UNL     1      43.856  11.542   9.960  0.00  0.00    +0.000 A 
ENDBRANCH   8  10
ENDBRANCH   1   4
BRANCH   1  16
ATOM     16  C   UNL     1      43.645   5.447  11.587  0.00  0.00    +0.000 C 
BRANCH  16  17
ATOM     17  N   UNL     1      43.754   5.305  10.134  0.00  0.00    +0.000 N 
ATOM     18  H   UNL     1      43.341   6.001   9.521  0.00  0.00    +0.000 HD
BRANCH  17  22
ATOM     19  C   UNL     1      45.864   2.345   8.251  0.00  0.00    +0.000 A 
ATOM     20  C   UNL     1      46.003   3.683   7.918  0.00  0.00    +0.000 A 
ATOM     21  N   UNL     1      45.305   4.673   8.540  0.00  0.00    +0.000 NA
ATOM     22  C   UNL     1      44.445   4.299   9.512  0.00  0.00    +0.000 A 
ATOM     23  C   UNL     1      44.311   2.941   9.818  0.00  0.00    +0.000 A 
ATOM     24  N   UNL     1      45.005   1.941   9.214  0.00  0.00    +0.000 NA
BRANCH  19  26
ATOM     25  N   UNL     1      47.235   0.494   7.060  0.00  0.00    +0.000 NA
ATOM     26  C   UNL     1      46.636   1.329   7.600  0.00  0.00    +0.000 C 
ENDBRANCH  19  26
ENDBRANCH  17  22
ENDBRANCH  16  17
ENDBRANCH   1  16
TORSDOF 6
ENDMDL
