MODEL 1
REMARK VINA RESULT:    -6.715      0.000      0.000
REMARK INTER + INTRA:          -8.492
REMARK INTER:                  -7.893
REMARK INTRA:                  -0.600
REMARK UNBOUND:                -0.600
REMARK  Name = 
REMARK  3 active torsions:
REMARK  status: ('A' for Active; 'I' for Inactive)
REMARK    1  A    between atoms: C_2  and  C_11
REMARK    2  A    between atoms: N_3  and  C_4
REMARK    3  A    between atoms: C_4  and  C_5
REMARK                            x       y       z     vdW  Elec       q    Type
REMARK                         _______ _______ _______ _____ _____    ______ ____
ROOT
ATOM      1  O   UNL     1      48.607   6.163  13.243  0.00  0.00    +0.000 OA
ATOM      2  C   UNL     1      47.489   5.907  13.683  0.00  0.00    +0.000 C 
ATOM      3  N   UNL     1      47.266   5.606  15.000  0.00  0.00    +0.000 N 
ATOM      4  H   UNL     1      46.354   5.270  15.296  0.00  0.00    +0.000 HD
ENDROOT
BRANCH   2   5
ATOM      5  C   UNL     1      46.304   5.963  12.820  0.00  0.00    +0.000 A 
ATOM      6  C   UNL     1      45.867   7.189  12.337  0.00  0.00    +0.000 A 
ATOM      7  S   UNL     1      44.492   7.077  11.337  0.00  0.00    +0.000 S 
ATOM      8  C   UNL     1      44.453   5.382  11.489  0.00  0.00    +0.000 A 
ATOM      9  N   UNL     1      43.518   4.644  10.832  0.00  0.00    +0.000 NA
ATOM     10  C   UNL     1      43.619   3.370  11.014  0.00  0.00    +0.000 A 
ATOM     11  N   UNL     1      44.561   2.767  11.805  0.00  0.00    +0.000 N 
ATOM     12  C   UNL     1      45.493   3.473  12.526  0.00  0.00    +0.000 A 
ATOM     13  O   UNL     1      46.258   2.904  13.298  0.00  0.00    +0.000 OA
ATOM     14  C   UNL     1      45.452   4.910  12.322  0.00  0.00    +0.000 A 
ATOM     15  H   UNL     1      44.567   1.765  11.930  0.00  0.00    +0.000 HD
ENDBRANCH   2   5
BRANCH   3  16
ATOM     16  C   UNL     1      48.341   5.493  15.954  0.00  0.00    +0.000 C 
BRANCH  16  17
ATOM     17  C   UNL     1      47.989   4.672  17.212  0.00  0.00    +0.000 C 
ATOM     18  C   UNL     1      49.092   4.525  18.268  0.00  0.00    +0.000 C 
ATOM     19  C   UNL     1      50.176   3.529  17.873  0.00  0.00    +0.000 C 
ATOM     20  C   UNL     1      49.577   2.238  17.327  0.00  0.00    +0.000 C 
ATOM     21  C   UNL     1      48.502   2.520  16.292  0.00  0.00    +0.000 C 
ATOM     22  O   UNL     1      47.494   3.377  16.830  0.00  0.00    +0.000 OA
ENDBRANCH  16  17
ENDBRANCH   3  16
TORSDOF 3
ENDMDL
MODEL 2
REMARK VINA RESULT:    -6.649      0.923      1.441
REMARK INTER + INTRA:          -8.415
REMARK INTER:                  -7.867
REMARK INTRA:                  -0.548
REMARK UNBOUND:                -0.600
REMARK  Name = 
REMARK  3 active torsions:
REMARK  status: ('A' for Active; 'I' for Inactive)
REMARK    1  A    between atoms: C_2  and  C_11
REMARK    2  A    between atoms: N_3  and  C_4
REMARK    3  A    between atoms: C_4  and  C_5
REMARK                            x       y       z     vdW  Elec       q    Type
REMARK                         _______ _______ _______ _____ _____    ______ ____
ROOT
ATOM      1  O   UNL     1      48.458   6.162  13.826  0.00  0.00    +0.000 OA
ATOM      2  C   UNL     1      47.330   5.711  14.009  0.00  0.00    +0.000 C 
ATOM      3  N   UNL     1      46.970   5.072  15.164  0.00  0.00    +0.000 N 
ATOM      4  H   UNL     1      46.073   4.598  15.224  0.00  0.00    +0.000 HD
ENDROOT
BRANCH   2   5
ATOM      5  C   UNL     1      46.273   5.885  13.006  0.00  0.00    +0.000 A 
ATOM      6  C   UNL     1      45.925   7.163  12.593  0.00  0.00    +0.000 A 
ATOM      7  S   UNL     1      44.696   7.188  11.413  0.00  0.00    +0.000 S 
ATOM      8  C   UNL     1      44.609   5.488  11.391  0.00  0.00    +0.000 A 
ATOM      9  N   UNL     1      43.761   4.844  10.545  0.00  0.00    +0.000 NA
ATOM     10  C   UNL     1      43.816   3.556  10.612  0.00  0.00    +0.000 A 
ATOM     11  N   UNL     1      44.633   2.852  11.458  0.00  0.00    +0.000 N 
ATOM     12  C   UNL     1      45.470   3.459  12.362  0.00  0.00    +0.000 A 
ATOM     13  O   UNL     1      46.115   2.797  13.169  0.00  0.00    +0.000 OA
ATOM     14  C   UNL     1      45.480   4.909  12.297  0.00  0.00    +0.000 A 
ATOM     15  H   UNL     1      44.606   1.844  11.482  0.00  0.00    +0.000 HD
ENDBRANCH   2   5
BRANCH   3  16
ATOM     16  C   UNL     1      47.913   4.812  16.224  0.00  0.00    +0.000 C 
BRANCH  16  17
ATOM     17  C   UNL     1      47.267   4.389  17.558  0.00  0.00    +0.000 C 
ATOM     18  C   UNL     1      47.042   5.497  18.596  0.00  0.00    +0.000 C 
ATOM     19  C   UNL     1      48.321   5.927  19.305  0.00  0.00    +0.000 C 
ATOM     20  C   UNL     1      49.141   4.725  19.757  0.00  0.00    +0.000 C 
ATOM     21  C   UNL     1      49.292   3.704  18.642  0.00  0.00    +0.000 C 
ATOM     22  O   UNL     1      48.013   3.307  18.143  0.00  0.00    +0.000 OA
ENDBRANCH  16  17
ENDBRANCH   3  16
TORSDOF 3
ENDMDL
MODEL 3
REMARK VINA RESULT:    -6.618      1.705      2.118
REMARK INTER + INTRA:          -8.378
REMARK INTER:                  -7.927
REMARK INTRA:                  -0.451
REMARK UNBOUND:                -0.600
REMARK  Name = 
REMARK  3 active torsions:
REMARK  status: ('A' for Active; 'I' for Inactive)
REMARK    1  A    between atoms: C_2  and  C_11
REMARK    2  A    between atoms: N_3  and  C_4
REMARK    3  A    between atoms: C_4  and  C_5
REMARK                            x       y       z     vdW  Elec       q    Type
REMARK                         _______ _______ _______ _____ _____    ______ ____
ROOT
ATOM      1  O   UNL     1      47.253   3.166  13.943  0.00  0.00    +0.000 OA
ATOM      2  C   UNL     1      46.803   4.209  14.412  0.00  0.00    +0.000 C 
ATOM      3  N   UNL     1      46.817   4.479  15.753  0.00  0.00    +0.000 N 
ATOM      4  H   UNL     1      46.318   5.287  16.114  0.00  0.00    +0.000 HD
ENDROOT
BRANCH   2   5
ATOM      5  C   UNL     1      46.266   5.261  13.542  0.00  0.00    +0.000 A 
ATOM      6  C   UNL     1      47.060   6.352  13.219  0.00  0.00    +0.000 A 
ATOM      7  S   UNL     1      46.294   7.472  12.188  0.00  0.00    +0.000 S 
ATOM      8  C   UNL     1      44.885   6.519  12.112  0.00  0.00    +0.000 A 
ATOM      9  N   UNL     1      43.827   6.897  11.346  0.00  0.00    +0.000 NA
ATOM     10  C   UNL     1      42.836   6.071  11.358  0.00  0.00    +0.000 A 
ATOM     11  N   UNL     1      42.800   4.906  12.078  0.00  0.00    +0.000 N 
ATOM     12  C   UNL     1      43.823   4.508  12.904  0.00  0.00    +0.000 A 
ATOM     13  O   UNL     1      43.714   3.508  13.608  0.00  0.00    +0.000 OA
ATOM     14  C   UNL     1      44.983   5.380  12.892  0.00  0.00    +0.000 A 
ATOM     15  H   UNL     1      41.980   4.317  12.069  0.00  0.00    +0.000 HD
ENDBRANCH   2   5
BRANCH   3  16
ATOM     16  C   UNL     1      47.294   3.526  16.724  0.00  0.00    +0.000 C 
BRANCH  16  17
ATOM     17  C   UNL     1      47.955   4.159  17.964  0.00  0.00    +0.000 C 
ATOM     18  C   UNL     1      48.534   5.570  17.791  0.00  0.00    +0.000 C 
ATOM     19  C   UNL     1      49.854   5.590  17.028  0.00  0.00    +0.000 C 
ATOM     20  C   UNL     1      50.810   4.518  17.536  0.00  0.00    +0.000 C 
ATOM     21  C   UNL     1      50.117   3.171  17.661  0.00  0.00    +0.000 C 
ATOM     22  O   UNL     1      48.959   3.274  18.491  0.00  0.00    +0.000 OA
ENDBRANCH  16  17
ENDBRANCH   3  16
TORSDOF 3
ENDMDL
MODEL 4
REMARK VINA RESULT:    -6.415      2.537      6.673
REMARK INTER + INTRA:          -8.140
REMARK INTER:                  -7.805
REMARK INTRA:                  -0.335
REMARK UNBOUND:                -0.600
REMARK  Name = 
REMARK  3 active torsions:
REMARK  status: ('A' for Active; 'I' for Inactive)
REMARK    1  A    between atoms: C_2  and  C_11
REMARK    2  A    between atoms: N_3  and  C_4
REMARK    3  A    between atoms: C_4  and  C_5
REMARK                            x       y       z     vdW  Elec       q    Type
REMARK                         _______ _______ _______ _____ _____    ______ ____
ROOT
ATOM      1  O   UNL     1      47.226   3.303  13.981  0.00  0.00    +0.000 OA
ATOM      2  C   UNL     1      46.868   4.422  14.340  0.00  0.00    +0.000 C 
ATOM      3  N   UNL     1      45.696   4.990  13.922  0.00  0.00    +0.000 N 
ATOM      4  H   UNL     1      45.500   5.965  14.132  0.00  0.00    +0.000 HD
ENDROOT
BRANCH   2   5
ATOM      5  C   UNL     1      47.664   5.202  15.295  0.00  0.00    +0.000 A 
ATOM      6  C   UNL     1      48.369   6.312  14.851  0.00  0.00    +0.000 A 
ATOM      7  S   UNL     1      49.226   7.114  16.087  0.00  0.00    +0.000 S 
ATOM      8  C   UNL     1      48.656   6.024  17.263  0.00  0.00    +0.000 A 
ATOM      9  N   UNL     1      48.990   6.173  18.573  0.00  0.00    +0.000 NA
ATOM     10  C   UNL     1      48.468   5.294  19.361  0.00  0.00    +0.000 A 
ATOM     11  N   UNL     1      47.653   4.270  18.957  0.00  0.00    +0.000 N 
ATOM     12  C   UNL     1      47.328   4.051  17.641  0.00  0.00    +0.000 A 
ATOM     13  O   UNL     1      46.675   3.067  17.307  0.00  0.00    +0.000 OA
ATOM     14  C   UNL     1      47.853   5.039  16.716  0.00  0.00    +0.000 A 
ATOM     15  H   UNL     1      47.301   3.596  19.622  0.00  0.00    +0.000 HD
ENDBRANCH   2   5
BRANCH   3  16
ATOM     16  C   UNL     1      44.829   4.347  12.966  0.00  0.00    +0.000 C 
BRANCH  16  17
ATOM     17  C   UNL     1      44.142   5.313  11.981  0.00  0.00    +0.000 C 
ATOM     18  C   UNL     1      43.499   4.686  10.737  0.00  0.00    +0.000 C 
ATOM     19  C   UNL     1      44.515   4.267   9.679  0.00  0.00    +0.000 C 
ATOM     20  C   UNL     1      45.550   5.358   9.436  0.00  0.00    +0.000 C 
ATOM     21  C   UNL     1      46.110   5.894  10.744  0.00  0.00    +0.000 C 
ATOM     22  O   UNL     1      45.058   6.352  11.594  0.00  0.00    +0.000 OA
ENDBRANCH  16  17
ENDBRANCH   3  16
TORSDOF 3
ENDMDL
MODEL 5
REMARK VINA RESULT:    -6.105      4.555      7.125
REMARK INTER + INTRA:          -7.775
REMARK INTER:                  -7.218
REMARK INTRA:                  -0.557
REMARK UNBOUND:                -0.600
REMARK  Name = 
REMARK  3 active torsions:
REMARK  status: ('A' for Active; 'I' for Inactive)
REMARK    1  A    between atoms: C_2  and  C_11
REMARK    2  A    between atoms: N_3  and  C_4
REMARK    3  A    between atoms: C_4  and  C_5
REMARK                            x       y       z     vdW  Elec       q    Type
REMARK                         _______ _______ _______ _____ _____    ______ ____
ROOT
ATOM      1  O   UNL     1      45.985   6.906  12.817  0.00  0.00    +0.000 OA
ATOM      2  C   UNL     1      45.114   6.679  11.980  0.00  0.00    +0.000 C 
ATOM      3  N   UNL     1      44.545   7.666  11.222  0.00  0.00    +0.000 N 
ATOM      4  H   UNL     1      43.739   7.458  10.640  0.00  0.00    +0.000 HD
ENDROOT
BRANCH   2   5
ATOM      5  C   UNL     1      44.667   5.309  11.705  0.00  0.00    +0.000 A 
ATOM      6  C   UNL     1      43.955   4.614  12.673  0.00  0.00    +0.000 A 
ATOM      7  S   UNL     1      43.498   3.046  12.189  0.00  0.00    +0.000 S 
ATOM      8  C   UNL     1      44.207   3.254  10.656  0.00  0.00    +0.000 A 
ATOM      9  N   UNL     1      44.135   2.275   9.715  0.00  0.00    +0.000 NA
ATOM     10  C   UNL     1      44.691   2.574   8.589  0.00  0.00    +0.000 A 
ATOM     11  N   UNL     1      45.325   3.759   8.322  0.00  0.00    +0.000 N 
ATOM     12  C   UNL     1      45.465   4.756   9.255  0.00  0.00    +0.000 A 
ATOM     13  O   UNL     1      46.123   5.763   9.010  0.00  0.00    +0.000 OA
ATOM     14  C   UNL     1      44.818   4.489  10.527  0.00  0.00    +0.000 A 
ATOM     15  H   UNL     1      45.767   3.919   7.428  0.00  0.00    +0.000 HD
ENDBRANCH   2   5
BRANCH   3  16
ATOM     16  C   UNL     1      44.873   9.059  11.403  0.00  0.00    +0.000 C 
BRANCH  16  17
ATOM     17  C   UNL     1      43.649   9.992  11.496  0.00  0.00    +0.000 C 
ATOM     18  C   UNL     1      42.706  10.014  10.286  0.00  0.00    +0.000 C 
ATOM     19  C   UNL     1      43.263  10.797   9.103  0.00  0.00    +0.000 C 
ATOM     20  C   UNL     1      43.841  12.137   9.542  0.00  0.00    +0.000 C 
ATOM     21  C   UNL     1      44.756  11.979  10.744  0.00  0.00    +0.000 C 
ATOM     22  O   UNL     1      44.074  11.328  11.817  0.00  0.00    +0.000 OA
ENDBRANCH  16  17
ENDBRANCH   3  16
TORSDOF 3
ENDMDL
MODEL 6
REMARK VINA RESULT:    -6.024      4.185      7.546
REMARK INTER + INTRA:          -7.680
REMARK INTER:                  -7.222
REMARK INTRA:                  -0.458
REMARK UNBOUND:                -0.600
REMARK  Name = 
REMARK  3 active torsions:
REMARK  status: ('A' for Active; 'I' for Inactive)
REMARK    1  A    between atoms: C_2  and  C_11
REMARK    2  A    between atoms: N_3  and  C_4
REMARK    3  A    between atoms: C_4  and  C_5
REMARK                            x       y       z     vdW  Elec       q    Type
REMARK                         _______ _______ _______ _____ _____    ______ ____
ROOT
ATOM      1  O   UNL     1      45.545   8.939  13.204  0.00  0.00    +0.000 OA
ATOM      2  C   UNL     1      45.147   8.081  12.419  0.00  0.00    +0.000 C 
ATOM      3  N   UNL     1      44.471   8.390  11.270  0.00  0.00    +0.000 N 
ATOM      4  H   UNL     1      44.044   7.652  10.717  0.00  0.00    +0.000 HD
ENDROOT
BRANCH   2   5
ATOM      5  C   UNL     1      45.427   6.659  12.645  0.00  0.00    +0.000 A 
ATOM      6  C   UNL     1      46.631   6.282  13.224  0.00  0.00    +0.000 A 
ATOM      7  S   UNL     1      46.791   4.599  13.432  0.00  0.00    +0.000 S 
ATOM      8  C   UNL     1      45.242   4.318  12.785  0.00  0.00    +0.000 A 
ATOM      9  N   UNL     1      44.734   3.058  12.713  0.00  0.00    +0.000 NA
ATOM     10  C   UNL     1      43.540   2.990  12.227  0.00  0.00    +0.000 A 
ATOM     11  N   UNL     1      42.812   4.067  11.794  0.00  0.00    +0.000 N 
ATOM     12  C   UNL     1      43.301   5.350  11.801  0.00  0.00    +0.000 A 
ATOM     13  O   UNL     1      42.657   6.275  11.316  0.00  0.00    +0.000 OA
ATOM     14  C   UNL     1      44.625   5.488  12.381  0.00  0.00    +0.000 A 
ATOM     15  H   UNL     1      41.893   3.943  11.394  0.00  0.00    +0.000 HD
ENDBRANCH   2   5
BRANCH   3  16
ATOM     16  C   UNL     1      44.108   9.745  10.933  0.00  0.00    +0.000 C 
BRANCH  16  17
ATOM     17  C   UNL     1      42.842   9.864  10.062  0.00  0.00    +0.000 C 
ATOM     18  C   UNL     1      42.818  11.003   9.034  0.00  0.00    +0.000 C 
ATOM     19  C   UNL     1      42.566  12.372   9.658  0.00  0.00    +0.000 C 
ATOM     20  C   UNL     1      41.415  12.329  10.656  0.00  0.00    +0.000 C 
ATOM     21  C   UNL     1      41.557  11.159  11.615  0.00  0.00    +0.000 C 
ATOM     22  O   UNL     1      41.674   9.929  10.899  0.00  0.00    +0.000 OA
ENDBRANCH  16  17
ENDBRANCH   3  16
TORSDOF 3
ENDMDL
MODEL 7
REMARK VINA RESULT:    -6.006      2.873      6.915
REMARK INTER + INTRA:          -7.659
REMARK INTER:                  -7.040
REMARK INTRA:                  -0.618
REMARK UNBOUND:                -0.600
REMARK  Name = 
REMARK  3 active torsions:
REMARK  status: ('A' for Active; 'I' for Inactive)
REMARK    1  A    between atoms: C_2  and  C_11
REMARK    2  A    between atoms: N_3  and  C_4
REMARK    3  A    between atoms: C_4  and  C_5
REMARK                            x       y       z     vdW  Elec       q    Type
REMARK                         _______ _______ _______ _____ _____    ______ ____
ROOT
ATOM      1  O   UNL     1      47.306   3.159  14.178  0.00  0.00    +0.000 OA
ATOM      2  C   UNL     1      47.209   4.201  14.823  0.00  0.00    +0.000 C 
ATOM      3  N   UNL     1      46.568   5.309  14.339  0.00  0.00    +0.000 N 
ATOM      4  H   UNL     1      46.625   6.189  14.844  0.00  0.00    +0.000 HD
ENDROOT
BRANCH   2   5
ATOM      5  C   UNL     1      47.734   4.298  16.189  0.00  0.00    +0.000 A 
ATOM      6  C   UNL     1      47.479   3.278  17.094  0.00  0.00    +0.000 A 
ATOM      7  S   UNL     1      48.173   3.537  18.629  0.00  0.00    +0.000 S 
ATOM      8  C   UNL     1      48.866   5.009  18.126  0.00  0.00    +0.000 A 
ATOM      9  N   UNL     1      49.642   5.739  18.970  0.00  0.00    +0.000 NA
ATOM     10  C   UNL     1      50.126   6.818  18.452  0.00  0.00    +0.000 A 
ATOM     11  N   UNL     1      49.892   7.242  17.171  0.00  0.00    +0.000 N 
ATOM     12  C   UNL     1      49.076   6.564  16.299  0.00  0.00    +0.000 A 
ATOM     13  O   UNL     1      48.813   7.024  15.191  0.00  0.00    +0.000 OA
ATOM     14  C   UNL     1      48.541   5.317  16.816  0.00  0.00    +0.000 A 
ATOM     15  H   UNL     1      50.276   8.113  16.835  0.00  0.00    +0.000 HD
ENDBRANCH   2   5
BRANCH   3  16
ATOM     16  C   UNL     1      46.026   5.361  13.004  0.00  0.00    +0.000 C 
BRANCH  16  17
ATOM     17  C   UNL     1      44.487   5.441  12.947  0.00  0.00    +0.000 C 
ATOM     18  C   UNL     1      43.717   4.168  13.324  0.00  0.00    +0.000 C 
ATOM     19  C   UNL     1      43.742   3.103  12.233  0.00  0.00    +0.000 C 
ATOM     20  C   UNL     1      43.446   3.700  10.862  0.00  0.00    +0.000 C 
ATOM     21  C   UNL     1      44.271   4.951  10.611  0.00  0.00    +0.000 C 
ATOM     22  O   UNL     1      44.068   5.908  11.652  0.00  0.00    +0.000 OA
ENDBRANCH  16  17
ENDBRANCH   3  16
TORSDOF 3
ENDMDL
MODEL 8
REMARK VINA RESULT:    -5.178      3.318      6.621
REMARK INTER + INTRA:          -6.686
REMARK INTER:                  -6.117
REMARK INTRA:                  -0.569
REMARK UNBOUND:                -0.600
REMARK  Name = 
REMARK  3 active torsions:
REMARK  status: ('A' for Active; 'I' for Inactive)
REMARK    1  A    between atoms: C_2  and  C_11
REMARK    2  A    between atoms: N_3  and  C_4
REMARK    3  A    between atoms: C_4  and  C_5
REMARK                            x       y       z     vdW  Elec       q    Type
REMARK                         _______ _______ _______ _____ _____    ______ ____
ROOT
ATOM      1  O   UNL     1      47.792   4.896  13.425  0.00  0.00    +0.000 OA
ATOM      2  C   UNL     1      47.255   5.974  13.668  0.00  0.00    +0.000 C 
ATOM      3  N   UNL     1      45.899   6.150  13.615  0.00  0.00    +0.000 N 
ATOM      4  H   UNL     1      45.504   7.083  13.691  0.00  0.00    +0.000 HD
ENDROOT
BRANCH   2   5
ATOM      5  C   UNL     1      48.045   7.137  14.088  0.00  0.00    +0.000 A 
ATOM      6  C   UNL     1      49.103   6.962  14.969  0.00  0.00    +0.000 A 
ATOM      7  S   UNL     1      49.926   8.407  15.341  0.00  0.00    +0.000 S 
ATOM      8  C   UNL     1      48.917   9.310  14.311  0.00  0.00    +0.000 A 
ATOM      9  N   UNL     1      49.114  10.645  14.135  0.00  0.00    +0.000 NA
ATOM     10  C   UNL     1      48.295  11.201  13.307  0.00  0.00    +0.000 A 
ATOM     11  N   UNL     1      47.288  10.547  12.648  0.00  0.00    +0.000 N 
ATOM     12  C   UNL     1      47.020   9.213  12.830  0.00  0.00    +0.000 A 
ATOM     13  O   UNL     1      46.049   8.684  12.297  0.00  0.00    +0.000 OA
ATOM     14  C   UNL     1      47.941   8.528  13.719  0.00  0.00    +0.000 A 
ATOM     15  H   UNL     1      46.661  11.048  12.035  0.00  0.00    +0.000 HD
ENDBRANCH   2   5
BRANCH   3  16
ATOM     16  C   UNL     1      45.004   5.100  13.195  0.00  0.00    +0.000 C 
BRANCH  16  17
ATOM     17  C   UNL     1      43.980   5.529  12.125  0.00  0.00    +0.000 C 
ATOM     18  C   UNL     1      43.056   4.434  11.578  0.00  0.00    +0.000 C 
ATOM     19  C   UNL     1      43.749   3.495  10.596  0.00  0.00    +0.000 C 
ATOM     20  C   UNL     1      44.574   4.267   9.572  0.00  0.00    +0.000 C 
ATOM     21  C   UNL     1      45.445   5.317  10.240  0.00  0.00    +0.000 C 
ATOM     22  O   UNL     1      44.654   6.195  11.042  0.00  0.00    +0.000 OA
ENDBRANCH  16  17
ENDBRANCH   3  16
TORSDOF 3
ENDMDL
MODEL 9
REMARK VINA RESULT:    -5.087      2.278      2.994
REMARK INTER + INTRA:          -6.580
REMARK INTER:                  -5.967
REMARK INTRA:                  -0.613
REMARK UNBOUND:                -0.600
REMARK  Name = 
REMARK  3 active torsions:
REMARK  status: ('A' for Active; 'I' for Inactive)
REMARK    1  A    between atoms: C_2  and  C_11
REMARK    2  A    between atoms: N_3  and  C_4
REMARK    3  A    between atoms: C_4  and  C_5
REMARK                            x       y       z     vdW  Elec       q    Type
REMARK                         _______ _______ _______ _____ _____    ______ ____
ROOT
ATOM      1  O   UNL     1      49.923   6.147  15.824  0.00  0.00    +0.000 OA
ATOM      2  C   UNL     1      48.709   6.098  15.644  0.00  0.00    +0.000 C 
ATOM      3  N   UNL     1      47.840   5.647  16.601  0.00  0.00    +0.000 N 
ATOM      4  H   UNL     1      46.863   5.496  16.368  0.00  0.00    +0.000 HD
ENDROOT
BRANCH   2   5
ATOM      5  C   UNL     1      48.108   6.576  14.394  0.00  0.00    +0.000 A 
ATOM      6  C   UNL     1      48.484   7.811  13.884  0.00  0.00    +0.000 A 
ATOM      7  S   UNL     1      47.707   8.209  12.420  0.00  0.00    +0.000 S 
ATOM      8  C   UNL     1      46.867   6.729  12.402  0.00  0.00    +0.000 A 
ATOM      9  N   UNL     1      46.038   6.410  11.371  0.00  0.00    +0.000 NA
ATOM     10  C   UNL     1      45.485   5.247  11.471  0.00  0.00    +0.000 A 
ATOM     11  N   UNL     1      45.676   4.379  12.513  0.00  0.00    +0.000 N 
ATOM     12  C   UNL     1      46.464   4.678  13.598  0.00  0.00    +0.000 A 
ATOM     13  O   UNL     1      46.533   3.915  14.557  0.00  0.00    +0.000 OA
ATOM     14  C   UNL     1      47.145   5.957  13.516  0.00  0.00    +0.000 A 
ATOM     15  H   UNL     1      45.189   3.495  12.545  0.00  0.00    +0.000 HD
ENDBRANCH   2   5
BRANCH   3  16
ATOM     16  C   UNL     1      48.294   5.126  17.866  0.00  0.00    +0.000 C 
BRANCH  16  17
ATOM     17  C   UNL     1      48.267   6.148  19.020  0.00  0.00    +0.000 C 
ATOM     18  C   UNL     1      49.566   6.917  19.290  0.00  0.00    +0.000 C 
ATOM     19  C   UNL     1      50.625   6.081  20.002  0.00  0.00    +0.000 C 
ATOM     20  C   UNL     1      50.032   5.310  21.175  0.00  0.00    +0.000 C 
ATOM     21  C   UNL     1      48.752   4.594  20.778  0.00  0.00    +0.000 C 
ATOM     22  O   UNL     1      47.808   5.513  20.227  0.00  0.00    +0.000 OA
ENDBRANCH  16  17
ENDBRANCH   3  16
TORSDOF 3
ENDMDL
