MODEL 1
REMARK VINA RESULT:    -8.004      0.000      0.000
REMARK INTER + INTRA:         -12.369
REMARK INTER:                 -11.280
REMARK INTRA:                  -1.089
REMARK UNBOUND:                -1.089
REMARK  Name = 
REMARK  7 active torsions:
REMARK  status: ('A' for Active; 'I' for Inactive)
REMARK    1  A    between atoms: C_2  and  C_20
REMARK    2  A    between atoms: N_3  and  C_4
REMARK    3  A    between atoms: C_4  and  C_5
REMARK    4  A    between atoms: C_8  and  C_9
REMARK    5  A    between atoms: C_9  and  C_10
REMARK    6  A    between atoms: C_10  and  N_11
REMARK    7  A    between atoms: N_11  and  C_12
REMARK                            x       y       z     vdW  Elec       q    Type
REMARK                         _______ _______ _______ _____ _____    ______ ____
ROOT
ATOM      1  C   UNL     1      46.156   6.299  12.456  0.00  0.00    +0.000 A 
ATOM      2  C   UNL     1      45.784   5.248  13.300  0.00  0.00    +0.000 A 
ATOM      3  C   UNL     1      45.104   4.140  12.796  0.00  0.00    +0.000 A 
ATOM      4  C   UNL     1      44.785   4.039  11.432  0.00  0.00    +0.000 A 
ATOM      5  C   UNL     1      45.185   5.082  10.585  0.00  0.00    +0.000 A 
ATOM      6  C   UNL     1      45.867   6.197  11.089  0.00  0.00    +0.000 A 
ENDROOT
BRANCH   1   7
ATOM      7  C   UNL     1      46.834   7.513  13.027  0.00  0.00    +0.000 C 
BRANCH   7  10
ATOM      8  O   UNL     1      49.442   6.801  13.504  0.00  0.00    +0.000 OA
ATOM      9  C   UNL     1      48.697   6.905  14.477  0.00  0.00    +0.000 C 
ATOM     10  N   UNL     1      47.377   7.277  14.341  0.00  0.00    +0.000 N 
ATOM     11  H   UNL     1      46.788   7.402  15.150  0.00  0.00    +0.000 HD
BRANCH   9  12
ATOM     12  C   UNL     1      49.153   6.628  15.838  0.00  0.00    +0.000 A 
ATOM     13  C   UNL     1      50.029   7.380  16.615  0.00  0.00    +0.000 A 
ATOM     14  N   UNL     1      50.147   6.778  17.844  0.00  0.00    +0.000 N 
ATOM     15  C   UNL     1      49.379   5.651  17.887  0.00  0.00    +0.000 A 
ATOM     16  N   UNL     1      49.274   4.848  18.962  0.00  0.00    +0.000 NA
ATOM     17  C   UNL     1      48.451   3.795  18.752  0.00  0.00    +0.000 A 
ATOM     18  C   UNL     1      47.771   3.521  17.573  0.00  0.00    +0.000 A 
ATOM     19  C   UNL     1      47.918   4.390  16.491  0.00  0.00    +0.000 A 
ATOM     20  C   UNL     1      48.755   5.511  16.654  0.00  0.00    +0.000 A 
ATOM     21  H   UNL     1      50.702   7.101  18.623  0.00  0.00    +0.000 HD
ENDBRANCH   9  12
ENDBRANCH   7  10
ENDBRANCH   1   7
BRANCH   4  22
ATOM     22  C   UNL     1      44.026   2.858  10.847  0.00  0.00    +0.000 C 
BRANCH  22  23
ATOM     23  C   UNL     1      44.283   2.612   9.354  0.00  0.00    +0.000 C 
BRANCH  23  24
ATOM     24  N   UNL     1      45.481   1.816   9.110  0.00  0.00    +0.000 N 
ATOM     25  H   UNL     1      46.104   1.726   9.909  0.00  0.00    +0.000 HD
BRANCH  24  26
ATOM     26  C   UNL     1      46.196   2.044   7.922  0.00  0.00    +0.000 A 
ATOM     27  C   UNL     1      46.086   3.213   7.155  0.00  0.00    +0.000 A 
ATOM     28  C   UNL     1      46.764   3.358   5.940  0.00  0.00    +0.000 A 
ATOM     29  C   UNL     1      47.543   2.316   5.450  0.00  0.00    +0.000 A 
ATOM     30  C   UNL     1      47.641   1.134   6.178  0.00  0.00    +0.000 A 
ATOM     31  C   UNL     1      46.971   1.001   7.399  0.00  0.00    +0.000 A 
ENDBRANCH  24  26
ENDBRANCH  23  24
ENDBRANCH  22  23
ENDBRANCH   4  22
TORSDOF 7
ENDMDL
MODEL 2
REMARK VINA RESULT:    -7.824      1.701      2.670
REMARK INTER + INTRA:         -12.115
REMARK INTER:                 -11.331
REMARK INTRA:                  -0.785
REMARK UNBOUND:                -1.089
REMARK  Name = 
REMARK  7 active torsions:
REMARK  status: ('A' for Active; 'I' for Inactive)
REMARK    1  A    between atoms: C_2  and  C_20
REMARK    2  A    between atoms: N_3  and  C_4
REMARK    3  A    between atoms: C_4  and  C_5
REMARK    4  A    between atoms: C_8  and  C_9
REMARK    5  A    between atoms: C_9  and  C_10
REMARK    6  A    between atoms: C_10  and  N_11
REMARK    7  A    between atoms: N_11  and  C_12
REMARK                            x       y       z     vdW  Elec       q    Type
REMARK                         _______ _______ _______ _____ _____    ______ ____
ROOT
ATOM      1  C   UNL     1      47.368   6.100  13.573  0.00  0.00    +0.000 A 
ATOM      2  C   UNL     1      46.585   4.966  13.806  0.00  0.00    +0.000 A 
ATOM      3  C   UNL     1      45.636   4.555  12.870  0.00  0.00    +0.000 A 
ATOM      4  C   UNL     1      45.449   5.254  11.667  0.00  0.00    +0.000 A 
ATOM      5  C   UNL     1      46.257   6.374  11.425  0.00  0.00    +0.000 A 
ATOM      6  C   UNL     1      47.209   6.790  12.365  0.00  0.00    +0.000 A 
ENDROOT
BRANCH   1   7
ATOM      7  C   UNL     1      48.343   6.563  14.620  0.00  0.00    +0.000 C 
BRANCH   7  10
ATOM      8  O   UNL     1      50.343   5.892  16.376  0.00  0.00    +0.000 OA
ATOM      9  C   UNL     1      49.188   5.628  16.706  0.00  0.00    +0.000 C 
ATOM     10  N   UNL     1      48.116   5.943  15.901  0.00  0.00    +0.000 N 
ATOM     11  H   UNL     1      47.171   5.761  16.202  0.00  0.00    +0.000 HD
BRANCH   9  12
ATOM     12  C   UNL     1      48.876   4.949  17.962  0.00  0.00    +0.000 A 
ATOM     13  C   UNL     1      48.794   3.580  18.195  0.00  0.00    +0.000 A 
ATOM     14  N   UNL     1      48.517   3.381  19.526  0.00  0.00    +0.000 N 
ATOM     15  C   UNL     1      48.408   4.581  20.164  0.00  0.00    +0.000 A 
ATOM     16  N   UNL     1      48.154   4.719  21.479  0.00  0.00    +0.000 NA
ATOM     17  C   UNL     1      48.094   6.013  21.870  0.00  0.00    +0.000 A 
ATOM     18  C   UNL     1      48.263   7.116  21.045  0.00  0.00    +0.000 A 
ATOM     19  C   UNL     1      48.526   6.912  19.690  0.00  0.00    +0.000 A 
ATOM     20  C   UNL     1      48.610   5.585  19.226  0.00  0.00    +0.000 A 
ATOM     21  H   UNL     1      48.413   2.493  19.994  0.00  0.00    +0.000 HD
ENDBRANCH   9  12
ENDBRANCH   7  10
ENDBRANCH   1   7
BRANCH   4  22
ATOM     22  C   UNL     1      44.411   4.852  10.631  0.00  0.00    +0.000 C 
BRANCH  22  23
ATOM     23  C   UNL     1      44.393   3.355  10.294  0.00  0.00    +0.000 C 
BRANCH  23  24
ATOM     24  N   UNL     1      44.256   3.098   8.864  0.00  0.00    +0.000 N 
ATOM     25  H   UNL     1      43.402   2.614   8.597  0.00  0.00    +0.000 HD
BRANCH  24  26
ATOM     26  C   UNL     1      45.371   2.597   8.172  0.00  0.00    +0.000 A 
ATOM     27  C   UNL     1      45.840   1.280   8.294  0.00  0.00    +0.000 A 
ATOM     28  C   UNL     1      47.001   0.853   7.639  0.00  0.00    +0.000 A 
ATOM     29  C   UNL     1      47.736   1.750   6.873  0.00  0.00    +0.000 A 
ATOM     30  C   UNL     1      47.309   3.069   6.764  0.00  0.00    +0.000 A 
ATOM     31  C   UNL     1      46.139   3.487   7.410  0.00  0.00    +0.000 A 
ENDBRANCH  24  26
ENDBRANCH  23  24
ENDBRANCH  22  23
ENDBRANCH   4  22
TORSDOF 7
ENDMDL
MODEL 3
REMARK VINA RESULT:    -7.141      1.559      2.153
REMARK INTER + INTRA:         -11.152
REMARK INTER:                 -10.187
REMARK INTRA:                  -0.965
REMARK UNBOUND:                -1.089
REMARK  Name = 
REMARK  7 active torsions:
REMARK  status: ('A' for Active; 'I' for Inactive)
REMARK    1  A    between atoms: C_2  and  C_20
REMARK    2  A    between atoms: N_3  and  C_4
REMARK    3  A    between atoms: C_4  and  C_5
REMARK    4  A    between atoms: C_8  and  C_9
REMARK    5  A    between atoms: C_9  and  C_10
REMARK    6  A    between atoms: C_10  and  N_11
REMARK    7  A    between atoms: N_11  and  C_12
REMARK                            x       y       z     vdW  Elec       q    Type
REMARK                         _______ _______ _______ _____ _____    ______ ____
ROOT
ATOM      1  C   UNL     1      46.094   7.273  12.621  0.00  0.00    +0.000 A 
ATOM      2  C   UNL     1      46.646   6.127  13.200  0.00  0.00    +0.000 A 
ATOM      3  C   UNL     1      46.091   4.871  12.955  0.00  0.00    +0.000 A 
ATOM      4  C   UNL     1      44.978   4.717  12.113  0.00  0.00    +0.000 A 
ATOM      5  C   UNL     1      44.446   5.867  11.512  0.00  0.00    +0.000 A 
ATOM      6  C   UNL     1      45.000   7.130  11.759  0.00  0.00    +0.000 A 
ENDROOT
BRANCH   1   7
ATOM      7  C   UNL     1      46.667   8.625  12.945  0.00  0.00    +0.000 C 
BRANCH   7  10
ATOM      8  O   UNL     1      49.190   8.602  14.027  0.00  0.00    +0.000 OA
ATOM      9  C   UNL     1      48.245   8.743  14.800  0.00  0.00    +0.000 C 
ATOM     10  N   UNL     1      46.943   8.786  14.351  0.00  0.00    +0.000 N 
ATOM     11  H   UNL     1      46.179   8.946  14.989  0.00  0.00    +0.000 HD
BRANCH   9  12
ATOM     12  C   UNL     1      48.433   8.857  16.245  0.00  0.00    +0.000 A 
ATOM     13  C   UNL     1      48.148   9.947  17.060  0.00  0.00    +0.000 A 
ATOM     14  N   UNL     1      48.439   9.607  18.359  0.00  0.00    +0.000 N 
ATOM     15  C   UNL     1      48.914   8.330  18.412  0.00  0.00    +0.000 A 
ATOM     16  N   UNL     1      49.276   7.704  19.547  0.00  0.00    +0.000 NA
ATOM     17  C   UNL     1      49.714   6.441  19.333  0.00  0.00    +0.000 A 
ATOM     18  C   UNL     1      49.808   5.815  18.099  0.00  0.00    +0.000 A 
ATOM     19  C   UNL     1      49.416   6.513  16.956  0.00  0.00    +0.000 A 
ATOM     20  C   UNL     1      48.941   7.829  17.116  0.00  0.00    +0.000 A 
ATOM     21  H   UNL     1      48.322  10.189  19.176  0.00  0.00    +0.000 HD
ENDBRANCH   9  12
ENDBRANCH   7  10
ENDBRANCH   1   7
BRANCH   4  22
ATOM     22  C   UNL     1      44.331   3.369  11.837  0.00  0.00    +0.000 C 
BRANCH  22  23
ATOM     23  C   UNL     1      43.934   3.141  10.373  0.00  0.00    +0.000 C 
BRANCH  23  24
ATOM     24  N   UNL     1      44.598   1.984   9.780  0.00  0.00    +0.000 N 
ATOM     25  H   UNL     1      44.987   1.325  10.451  0.00  0.00    +0.000 HD
BRANCH  24  26
ATOM     26  C   UNL     1      45.475   2.204   8.704  0.00  0.00    +0.000 A 
ATOM     27  C   UNL     1      46.270   1.204   8.127  0.00  0.00    +0.000 A 
ATOM     28  C   UNL     1      47.182   1.492   7.105  0.00  0.00    +0.000 A 
ATOM     29  C   UNL     1      47.339   2.801   6.664  0.00  0.00    +0.000 A 
ATOM     30  C   UNL     1      46.584   3.815   7.245  0.00  0.00    +0.000 A 
ATOM     31  C   UNL     1      45.664   3.517   8.257  0.00  0.00    +0.000 A 
ENDBRANCH  24  26
ENDBRANCH  23  24
ENDBRANCH  22  23
ENDBRANCH   4  22
TORSDOF 7
ENDMDL
MODEL 4
REMARK VINA RESULT:    -6.883      3.398      8.532
REMARK INTER + INTRA:         -10.788
REMARK INTER:                  -8.843
REMARK INTRA:                  -1.945
REMARK UNBOUND:                -1.089
REMARK  Name = 
REMARK  7 active torsions:
REMARK  status: ('A' for Active; 'I' for Inactive)
REMARK    1  A    between atoms: C_2  and  C_20
REMARK    2  A    between atoms: N_3  and  C_4
REMARK    3  A    between atoms: C_4  and  C_5
REMARK    4  A    between atoms: C_8  and  C_9
REMARK    5  A    between atoms: C_9  and  C_10
REMARK    6  A    between atoms: C_10  and  N_11
REMARK    7  A    between atoms: N_11  and  C_12
REMARK                            x       y       z     vdW  Elec       q    Type
REMARK                         _______ _______ _______ _____ _____    ______ ____
ROOT
ATOM      1  C   UNL     1      49.067   7.631  15.947  0.00  0.00    +0.000 A 
ATOM      2  C   UNL     1      48.649   8.113  17.190  0.00  0.00    +0.000 A 
ATOM      3  C   UNL     1      49.348   7.783  18.352  0.00  0.00    +0.000 A 
ATOM      4  C   UNL     1      50.494   6.973  18.306  0.00  0.00    +0.000 A 
ATOM      5  C   UNL     1      50.926   6.516  17.053  0.00  0.00    +0.000 A 
ATOM      6  C   UNL     1      50.224   6.844  15.886  0.00  0.00    +0.000 A 
ENDROOT
BRANCH   1   7
ATOM      7  C   UNL     1      48.266   7.947  14.715  0.00  0.00    +0.000 C 
BRANCH   7  10
ATOM      8  O   UNL     1      48.721   6.103  12.734  0.00  0.00    +0.000 OA
ATOM      9  C   UNL     1      47.656   6.025  13.344  0.00  0.00    +0.000 C 
ATOM     10  N   UNL     1      47.345   6.894  14.368  0.00  0.00    +0.000 N 
ATOM     11  H   UNL     1      46.489   6.794  14.890  0.00  0.00    +0.000 HD
BRANCH   9  12
ATOM     12  C   UNL     1      46.644   5.023  13.017  0.00  0.00    +0.000 A 
ATOM     13  C   UNL     1      46.712   3.648  13.207  0.00  0.00    +0.000 A 
ATOM     14  N   UNL     1      45.524   3.092  12.799  0.00  0.00    +0.000 N 
ATOM     15  C   UNL     1      44.687   4.067  12.341  0.00  0.00    +0.000 A 
ATOM     16  N   UNL     1      43.442   3.841  11.882  0.00  0.00    +0.000 NA
ATOM     17  C   UNL     1      42.815   4.972  11.485  0.00  0.00    +0.000 A 
ATOM     18  C   UNL     1      43.353   6.250  11.519  0.00  0.00    +0.000 A 
ATOM     19  C   UNL     1      44.649   6.425  12.007  0.00  0.00    +0.000 A 
ATOM     20  C   UNL     1      45.349   5.283  12.444  0.00  0.00    +0.000 A 
ATOM     21  H   UNL     1      45.272   2.115  12.829  0.00  0.00    +0.000 HD
ENDBRANCH   9  12
ENDBRANCH   7  10
ENDBRANCH   1   7
BRANCH   4  22
ATOM     22  C   UNL     1      51.272   6.573  19.550  0.00  0.00    +0.000 C 
BRANCH  22  23
ATOM     23  C   UNL     1      51.142   5.093  19.934  0.00  0.00    +0.000 C 
BRANCH  23  24
ATOM     24  N   UNL     1      49.755   4.649  20.013  0.00  0.00    +0.000 N 
ATOM     25  H   UNL     1      49.514   4.151  20.867  0.00  0.00    +0.000 HD
BRANCH  24  26
ATOM     26  C   UNL     1      49.191   4.035  18.882  0.00  0.00    +0.000 A 
ATOM     27  C   UNL     1      49.880   3.135  18.056  0.00  0.00    +0.000 A 
ATOM     28  C   UNL     1      49.295   2.610  16.898  0.00  0.00    +0.000 A 
ATOM     29  C   UNL     1      48.015   3.005  16.525  0.00  0.00    +0.000 A 
ATOM     30  C   UNL     1      47.325   3.922  17.312  0.00  0.00    +0.000 A 
ATOM     31  C   UNL     1      47.911   4.433  18.476  0.00  0.00    +0.000 A 
ENDBRANCH  24  26
ENDBRANCH  23  24
ENDBRANCH  22  23
ENDBRANCH   4  22
TORSDOF 7
ENDMDL
MODEL 5
REMARK VINA RESULT:    -6.848      3.469      8.238
REMARK INTER + INTRA:         -10.739
REMARK INTER:                  -8.755
REMARK INTRA:                  -1.984
REMARK UNBOUND:                -1.089
REMARK  Name = 
REMARK  7 active torsions:
REMARK  status: ('A' for Active; 'I' for Inactive)
REMARK    1  A    between atoms: C_2  and  C_20
REMARK    2  A    between atoms: N_3  and  C_4
REMARK    3  A    between atoms: C_4  and  C_5
REMARK    4  A    between atoms: C_8  and  C_9
REMARK    5  A    between atoms: C_9  and  C_10
REMARK    6  A    between atoms: C_10  and  N_11
REMARK    7  A    between atoms: N_11  and  C_12
REMARK                            x       y       z     vdW  Elec       q    Type
REMARK                         _______ _______ _______ _____ _____    ______ ____
ROOT
ATOM      1  C   UNL     1      48.715   8.350  15.749  0.00  0.00    +0.000 A 
ATOM      2  C   UNL     1      49.514   7.227  15.517  0.00  0.00    +0.000 A 
ATOM      3  C   UNL     1      50.050   6.505  16.583  0.00  0.00    +0.000 A 
ATOM      4  C   UNL     1      49.794   6.872  17.914  0.00  0.00    +0.000 A 
ATOM      5  C   UNL     1      48.968   7.983  18.142  0.00  0.00    +0.000 A 
ATOM      6  C   UNL     1      48.431   8.711  17.072  0.00  0.00    +0.000 A 
ENDROOT
BRANCH   1   7
ATOM      7  C   UNL     1      48.197   9.152  14.588  0.00  0.00    +0.000 C 
BRANCH   7  10
ATOM      8  O   UNL     1      48.062   7.822  12.191  0.00  0.00    +0.000 OA
ATOM      9  C   UNL     1      47.013   7.970  12.815  0.00  0.00    +0.000 C 
ATOM     10  N   UNL     1      46.982   8.606  14.036  0.00  0.00    +0.000 N 
ATOM     11  H   UNL     1      46.124   8.683  14.560  0.00  0.00    +0.000 HD
BRANCH   9  12
ATOM     12  C   UNL     1      45.729   7.497  12.300  0.00  0.00    +0.000 A 
ATOM     13  C   UNL     1      44.756   8.230  11.630  0.00  0.00    +0.000 A 
ATOM     14  N   UNL     1      43.730   7.382  11.289  0.00  0.00    +0.000 N 
ATOM     15  C   UNL     1      44.003   6.120  11.727  0.00  0.00    +0.000 A 
ATOM     16  N   UNL     1      43.195   5.061  11.536  0.00  0.00    +0.000 NA
ATOM     17  C   UNL     1      43.691   3.919  12.065  0.00  0.00    +0.000 A 
ATOM     18  C   UNL     1      44.893   3.799  12.748  0.00  0.00    +0.000 A 
ATOM     19  C   UNL     1      45.691   4.931  12.914  0.00  0.00    +0.000 A 
ATOM     20  C   UNL     1      45.232   6.148  12.375  0.00  0.00    +0.000 A 
ATOM     21  H   UNL     1      42.890   7.624  10.783  0.00  0.00    +0.000 HD
ENDBRANCH   9  12
ENDBRANCH   7  10
ENDBRANCH   1   7
BRANCH   4  22
ATOM     22  C   UNL     1      50.376   6.125  19.104  0.00  0.00    +0.000 C 
BRANCH  22  23
ATOM     23  C   UNL     1      49.331   5.541  20.063  0.00  0.00    +0.000 C 
BRANCH  23  24
ATOM     24  N   UNL     1      49.080   4.122  19.831  0.00  0.00    +0.000 N 
ATOM     25  H   UNL     1      49.806   3.498  20.176  0.00  0.00    +0.000 HD
BRANCH  24  26
ATOM     26  C   UNL     1      48.623   3.730  18.562  0.00  0.00    +0.000 A 
ATOM     27  C   UNL     1      49.309   2.839  17.725  0.00  0.00    +0.000 A 
ATOM     28  C   UNL     1      48.846   2.540  16.438  0.00  0.00    +0.000 A 
ATOM     29  C   UNL     1      47.700   3.158  15.951  0.00  0.00    +0.000 A 
ATOM     30  C   UNL     1      47.021   4.070  16.752  0.00  0.00    +0.000 A 
ATOM     31  C   UNL     1      47.481   4.354  18.043  0.00  0.00    +0.000 A 
ENDBRANCH  24  26
ENDBRANCH  23  24
ENDBRANCH  22  23
ENDBRANCH   4  22
TORSDOF 7
ENDMDL
MODEL 6
REMARK VINA RESULT:    -6.686      1.898      8.682
REMARK INTER + INTRA:         -10.511
REMARK INTER:                  -9.269
REMARK INTRA:                  -1.243
REMARK UNBOUND:                -1.089
REMARK  Name = 
REMARK  7 active torsions:
REMARK  status: ('A' for Active; 'I' for Inactive)
REMARK    1  A    between atoms: C_2  and  C_20
REMARK    2  A    between atoms: N_3  and  C_4
REMARK    3  A    between atoms: C_4  and  C_5
REMARK    4  A    between atoms: C_8  and  C_9
REMARK    5  A    between atoms: C_9  and  C_10
REMARK    6  A    between atoms: C_10  and  N_11
REMARK    7  A    between atoms: N_11  and  C_12
REMARK                            x       y       z     vdW  Elec       q    Type
REMARK                         _______ _______ _______ _____ _____    ______ ____
ROOT
ATOM      1  C   UNL     1      47.954   7.722  13.971  0.00  0.00    +0.000 A 
ATOM      2  C   UNL     1      48.343   6.521  14.572  0.00  0.00    +0.000 A 
ATOM      3  C   UNL     1      48.835   6.507  15.877  0.00  0.00    +0.000 A 
ATOM      4  C   UNL     1      48.942   7.689  16.628  0.00  0.00    +0.000 A 
ATOM      5  C   UNL     1      48.524   8.887  16.030  0.00  0.00    +0.000 A 
ATOM      6  C   UNL     1      48.031   8.903  14.719  0.00  0.00    +0.000 A 
ENDROOT
BRANCH   1   7
ATOM      7  C   UNL     1      47.484   7.725  12.543  0.00  0.00    +0.000 C 
BRANCH   7  10
ATOM      8  O   UNL     1      44.816   7.084  12.491  0.00  0.00    +0.000 OA
ATOM      9  C   UNL     1      45.614   6.212  12.151  0.00  0.00    +0.000 C 
ATOM     10  N   UNL     1      46.971   6.445  12.125  0.00  0.00    +0.000 N 
ATOM     11  H   UNL     1      47.613   5.737  11.803  0.00  0.00    +0.000 HD
BRANCH   9  12
ATOM     12  C   UNL     1      45.181   4.869  11.768  0.00  0.00    +0.000 A 
ATOM     13  C   UNL     1      44.686   3.865  12.592  0.00  0.00    +0.000 A 
ATOM     14  N   UNL     1      44.363   2.781  11.811  0.00  0.00    +0.000 N 
ATOM     15  C   UNL     1      44.641   3.050  10.503  0.00  0.00    +0.000 A 
ATOM     16  N   UNL     1      44.423   2.189   9.492  0.00  0.00    +0.000 NA
ATOM     17  C   UNL     1      44.783   2.692   8.288  0.00  0.00    +0.000 A 
ATOM     18  C   UNL     1      45.329   3.948   8.066  0.00  0.00    +0.000 A 
ATOM     19  C   UNL     1      45.531   4.798   9.154  0.00  0.00    +0.000 A 
ATOM     20  C   UNL     1      45.166   4.334  10.432  0.00  0.00    +0.000 A 
ATOM     21  H   UNL     1      43.968   1.907  12.126  0.00  0.00    +0.000 HD
ENDBRANCH   9  12
ENDBRANCH   7  10
ENDBRANCH   1   7
BRANCH   4  22
ATOM     22  C   UNL     1      49.493   7.720  18.045  0.00  0.00    +0.000 C 
BRANCH  22  23
ATOM     23  C   UNL     1      50.569   6.666  18.334  0.00  0.00    +0.000 C 
BRANCH  23  24
ATOM     24  N   UNL     1      50.058   5.530  19.096  0.00  0.00    +0.000 N 
ATOM     25  H   UNL     1      50.558   5.336  19.960  0.00  0.00    +0.000 HD
BRANCH  24  26
ATOM     26  C   UNL     1      49.756   4.348  18.398  0.00  0.00    +0.000 A 
ATOM     27  C   UNL     1      50.718   3.543  17.771  0.00  0.00    +0.000 A 
ATOM     28  C   UNL     1      50.355   2.416  17.025  0.00  0.00    +0.000 A 
ATOM     29  C   UNL     1      49.012   2.091  16.866  0.00  0.00    +0.000 A 
ATOM     30  C   UNL     1      48.039   2.894  17.452  0.00  0.00    +0.000 A 
ATOM     31  C   UNL     1      48.410   4.012  18.208  0.00  0.00    +0.000 A 
ENDBRANCH  24  26
ENDBRANCH  23  24
ENDBRANCH  22  23
ENDBRANCH   4  22
TORSDOF 7
ENDMDL
MODEL 7
REMARK VINA RESULT:    -6.486      4.059      8.704
REMARK INTER + INTRA:         -10.229
REMARK INTER:                  -9.059
REMARK INTRA:                  -1.170
REMARK UNBOUND:                -1.089
REMARK  Name = 
REMARK  7 active torsions:
REMARK  status: ('A' for Active; 'I' for Inactive)
REMARK    1  A    between atoms: C_2  and  C_20
REMARK    2  A    between atoms: N_3  and  C_4
REMARK    3  A    between atoms: C_4  and  C_5
REMARK    4  A    between atoms: C_8  and  C_9
REMARK    5  A    between atoms: C_9  and  C_10
REMARK    6  A    between atoms: C_10  and  N_11
REMARK    7  A    between atoms: N_11  and  C_12
REMARK                            x       y       z     vdW  Elec       q    Type
REMARK                         _______ _______ _______ _____ _____    ______ ____
ROOT
ATOM      1  C   UNL     1      48.805   3.670  17.240  0.00  0.00    +0.000 A 
ATOM      2  C   UNL     1      49.636   2.547  17.236  0.00  0.00    +0.000 A 
ATOM      3  C   UNL     1      51.008   2.677  17.453  0.00  0.00    +0.000 A 
ATOM      4  C   UNL     1      51.591   3.931  17.696  0.00  0.00    +0.000 A 
ATOM      5  C   UNL     1      50.749   5.052  17.728  0.00  0.00    +0.000 A 
ATOM      6  C   UNL     1      49.372   4.923  17.508  0.00  0.00    +0.000 A 
ENDROOT
BRANCH   1   7
ATOM      7  C   UNL     1      47.340   3.518  16.944  0.00  0.00    +0.000 C 
BRANCH   7  10
ATOM      8  O   UNL     1      47.331   3.040  14.241  0.00  0.00    +0.000 OA
ATOM      9  C   UNL     1      46.925   4.136  14.622  0.00  0.00    +0.000 C 
ATOM     10  N   UNL     1      46.873   4.462  15.960  0.00  0.00    +0.000 N 
ATOM     11  H   UNL     1      46.497   5.347  16.264  0.00  0.00    +0.000 HD
BRANCH   9  12
ATOM     12  C   UNL     1      46.487   5.171  13.688  0.00  0.00    +0.000 A 
ATOM     13  C   UNL     1      47.210   6.265  13.226  0.00  0.00    +0.000 A 
ATOM     14  N   UNL     1      46.430   6.955  12.330  0.00  0.00    +0.000 N 
ATOM     15  C   UNL     1      45.217   6.346  12.201  0.00  0.00    +0.000 A 
ATOM     16  N   UNL     1      44.236   6.777  11.387  0.00  0.00    +0.000 NA
ATOM     17  C   UNL     1      43.130   6.000  11.440  0.00  0.00    +0.000 A 
ATOM     18  C   UNL     1      42.968   4.875  12.237  0.00  0.00    +0.000 A 
ATOM     19  C   UNL     1      44.020   4.474  13.061  0.00  0.00    +0.000 A 
ATOM     20  C   UNL     1      45.203   5.239  13.041  0.00  0.00    +0.000 A 
ATOM     21  H   UNL     1      46.690   7.786  11.818  0.00  0.00    +0.000 HD
ENDBRANCH   9  12
ENDBRANCH   7  10
ENDBRANCH   1   7
BRANCH   4  22
ATOM     22  C   UNL     1      53.084   4.119  17.916  0.00  0.00    +0.000 C 
BRANCH  22  23
ATOM     23  C   UNL     1      53.581   5.557  17.720  0.00  0.00    +0.000 C 
BRANCH  23  24
ATOM     24  N   UNL     1      54.449   5.702  16.555  0.00  0.00    +0.000 N 
ATOM     25  H   UNL     1      55.434   5.836  16.771  0.00  0.00    +0.000 HD
BRANCH  24  26
ATOM     26  C   UNL     1      54.027   6.552  15.519  0.00  0.00    +0.000 A 
ATOM     27  C   UNL     1      54.804   6.856  14.392  0.00  0.00    +0.000 A 
ATOM     28  C   UNL     1      54.366   7.767  13.424  0.00  0.00    +0.000 A 
ATOM     29  C   UNL     1      53.150   8.420  13.586  0.00  0.00    +0.000 A 
ATOM     30  C   UNL     1      52.376   8.159  14.712  0.00  0.00    +0.000 A 
ATOM     31  C   UNL     1      52.814   7.236  15.669  0.00  0.00    +0.000 A 
ENDBRANCH  24  26
ENDBRANCH  23  24
ENDBRANCH  22  23
ENDBRANCH   4  22
TORSDOF 7
ENDMDL
MODEL 8
REMARK VINA RESULT:    -6.469      4.344      8.125
REMARK INTER + INTRA:         -10.206
REMARK INTER:                  -9.260
REMARK INTRA:                  -0.946
REMARK UNBOUND:                -1.089
REMARK  Name = 
REMARK  7 active torsions:
REMARK  status: ('A' for Active; 'I' for Inactive)
REMARK    1  A    between atoms: C_2  and  C_20
REMARK    2  A    between atoms: N_3  and  C_4
REMARK    3  A    between atoms: C_4  and  C_5
REMARK    4  A    between atoms: C_8  and  C_9
REMARK    5  A    between atoms: C_9  and  C_10
REMARK    6  A    between atoms: C_10  and  N_11
REMARK    7  A    between atoms: N_11  and  C_12
REMARK                            x       y       z     vdW  Elec       q    Type
REMARK                         _______ _______ _______ _____ _____    ______ ____
ROOT
ATOM      1  C   UNL     1      46.732   8.501  12.227  0.00  0.00    +0.000 A 
ATOM      2  C   UNL     1      47.894   7.785  11.927  0.00  0.00    +0.000 A 
ATOM      3  C   UNL     1      49.065   8.451  11.567  0.00  0.00    +0.000 A 
ATOM      4  C   UNL     1      49.118   9.853  11.508  0.00  0.00    +0.000 A 
ATOM      5  C   UNL     1      47.957  10.568  11.838  0.00  0.00    +0.000 A 
ATOM      6  C   UNL     1      46.779   9.900  12.198  0.00  0.00    +0.000 A 
ENDROOT
BRANCH   1   7
ATOM      7  C   UNL     1      45.463   7.764  12.553  0.00  0.00    +0.000 C 
BRANCH   7  10
ATOM      8  O   UNL     1      43.280   6.582  11.382  0.00  0.00    +0.000 OA
ATOM      9  C   UNL     1      44.303   5.907  11.482  0.00  0.00    +0.000 C 
ATOM     10  N   UNL     1      45.455   6.419  12.038  0.00  0.00    +0.000 N 
ATOM     11  H   UNL     1      46.300   5.870  12.075  0.00  0.00    +0.000 HD
BRANCH   9  12
ATOM     12  C   UNL     1      44.362   4.516  11.037  0.00  0.00    +0.000 A 
ATOM     13  C   UNL     1      43.816   3.397  11.656  0.00  0.00    +0.000 A 
ATOM     14  N   UNL     1      44.074   2.297  10.874  0.00  0.00    +0.000 N 
ATOM     15  C   UNL     1      44.780   2.668   9.767  0.00  0.00    +0.000 A 
ATOM     16  N   UNL     1      45.174   1.817   8.801  0.00  0.00    +0.000 NA
ATOM     17  C   UNL     1      45.860   2.430   7.809  0.00  0.00    +0.000 A 
ATOM     18  C   UNL     1      46.159   3.784   7.749  0.00  0.00    +0.000 A 
ATOM     19  C   UNL     1      45.723   4.619   8.778  0.00  0.00    +0.000 A 
ATOM     20  C   UNL     1      44.995   4.039   9.835  0.00  0.00    +0.000 A 
ATOM     21  H   UNL     1      43.789   1.347  11.057  0.00  0.00    +0.000 HD
ENDBRANCH   9  12
ENDBRANCH   7  10
ENDBRANCH   1   7
BRANCH   4  22
ATOM     22  C   UNL     1      50.368  10.616  11.100  0.00  0.00    +0.000 C 
BRANCH  22  23
ATOM     23  C   UNL     1      51.683   9.864  11.344  0.00  0.00    +0.000 C 
BRANCH  23  24
ATOM     24  N   UNL     1      52.529   9.804  10.157  0.00  0.00    +0.000 N 
ATOM     25  H   UNL     1      52.281  10.462   9.422  0.00  0.00    +0.000 HD
BRANCH  24  26
ATOM     26  C   UNL     1      52.843   8.539   9.632  0.00  0.00    +0.000 A 
ATOM     27  C   UNL     1      52.724   7.342  10.353  0.00  0.00    +0.000 A 
ATOM     28  C   UNL     1      53.122   6.116   9.807  0.00  0.00    +0.000 A 
ATOM     29  C   UNL     1      53.681   6.071   8.535  0.00  0.00    +0.000 A 
ATOM     30  C   UNL     1      53.838   7.249   7.814  0.00  0.00    +0.000 A 
ATOM     31  C   UNL     1      53.426   8.470   8.360  0.00  0.00    +0.000 A 
ENDBRANCH  24  26
ENDBRANCH  23  24
ENDBRANCH  22  23
ENDBRANCH   4  22
TORSDOF 7
ENDMDL
MODEL 9
REMARK VINA RESULT:    -6.321      4.091     10.118
REMARK INTER + INTRA:          -9.997
REMARK INTER:                  -8.917
REMARK INTRA:                  -1.080
REMARK UNBOUND:                -1.089
REMARK  Name = 
REMARK  7 active torsions:
REMARK  status: ('A' for Active; 'I' for Inactive)
REMARK    1  A    between atoms: C_2  and  C_20
REMARK    2  A    between atoms: N_3  and  C_4
REMARK    3  A    between atoms: C_4  and  C_5
REMARK    4  A    between atoms: C_8  and  C_9
REMARK    5  A    between atoms: C_9  and  C_10
REMARK    6  A    between atoms: C_10  and  N_11
REMARK    7  A    between atoms: N_11  and  C_12
REMARK                            x       y       z     vdW  Elec       q    Type
REMARK                         _______ _______ _______ _____ _____    ______ ____
ROOT
ATOM      1  C   UNL     1      47.822   4.428  18.053  0.00  0.00    +0.000 A 
ATOM      2  C   UNL     1      48.850   4.044  18.918  0.00  0.00    +0.000 A 
ATOM      3  C   UNL     1      48.991   4.649  20.167  0.00  0.00    +0.000 A 
ATOM      4  C   UNL     1      48.101   5.647  20.597  0.00  0.00    +0.000 A 
ATOM      5  C   UNL     1      47.055   6.009  19.737  0.00  0.00    +0.000 A 
ATOM      6  C   UNL     1      46.913   5.404  18.482  0.00  0.00    +0.000 A 
ENDROOT
BRANCH   1   7
ATOM      7  C   UNL     1      47.723   3.808  16.687  0.00  0.00    +0.000 C 
BRANCH   7  10
ATOM      8  O   UNL     1      47.324   3.155  14.052  0.00  0.00    +0.000 OA
ATOM      9  C   UNL     1      46.983   4.280  14.413  0.00  0.00    +0.000 C 
ATOM     10  N   UNL     1      47.126   4.694  15.719  0.00  0.00    +0.000 N 
ATOM     11  H   UNL     1      46.803   5.602  16.014  0.00  0.00    +0.000 HD
BRANCH   9  12
ATOM     12  C   UNL     1      46.422   5.259  13.483  0.00  0.00    +0.000 A 
ATOM     13  C   UNL     1      47.045   6.379  12.944  0.00  0.00    +0.000 A 
ATOM     14  N   UNL     1      46.167   6.995  12.085  0.00  0.00    +0.000 N 
ATOM     15  C   UNL     1      44.987   6.311  12.056  0.00  0.00    +0.000 A 
ATOM     16  N   UNL     1      43.930   6.659  11.299  0.00  0.00    +0.000 NA
ATOM     17  C   UNL     1      42.879   5.820  11.448  0.00  0.00    +0.000 A 
ATOM     18  C   UNL     1      42.839   4.713  12.283  0.00  0.00    +0.000 A 
ATOM     19  C   UNL     1      43.966   4.400  13.044  0.00  0.00    +0.000 A 
ATOM     20  C   UNL     1      45.096   5.231  12.923  0.00  0.00    +0.000 A 
ATOM     21  H   UNL     1      46.342   7.823  11.536  0.00  0.00    +0.000 HD
ENDBRANCH   9  12
ENDBRANCH   7  10
ENDBRANCH   1   7
BRANCH   4  22
ATOM     22  C   UNL     1      48.232   6.347  21.941  0.00  0.00    +0.000 C 
BRANCH  22  23
ATOM     23  C   UNL     1      47.580   7.734  22.004  0.00  0.00    +0.000 C 
BRANCH  23  24
ATOM     24  N   UNL     1      48.474   8.800  21.560  0.00  0.00    +0.000 N 
ATOM     25  H   UNL     1      48.873   9.361  22.309  0.00  0.00    +0.000 HD
BRANCH  24  26
ATOM     26  C   UNL     1      48.066   9.598  20.478  0.00  0.00    +0.000 A 
ATOM     27  C   UNL     1      48.268   9.255  19.133  0.00  0.00    +0.000 A 
ATOM     28  C   UNL     1      47.909  10.121  18.095  0.00  0.00    +0.000 A 
ATOM     29  C   UNL     1      47.368  11.368  18.386  0.00  0.00    +0.000 A 
ATOM     30  C   UNL     1      47.187  11.743  19.714  0.00  0.00    +0.000 A 
ATOM     31  C   UNL     1      47.536  10.866  20.747  0.00  0.00    +0.000 A 
ENDBRANCH  24  26
ENDBRANCH  23  24
ENDBRANCH  22  23
ENDBRANCH   4  22
TORSDOF 7
ENDMDL
