MODEL 1
REMARK VINA RESULT:    -8.627      0.000      0.000
REMARK INTER + INTRA:         -12.275
REMARK INTER:                 -11.149
REMARK INTRA:                  -1.126
REMARK UNBOUND:                -1.126
REMARK  Name = 
REMARK  5 active torsions:
REMARK  status: ('A' for Active; 'I' for Inactive)
REMARK    1  A    between atoms: C_2  and  C_4
REMARK    2  A    between atoms: C_7  and  N_8
REMARK    3  A    between atoms: N_8  and  C_9
REMARK    4  A    between atoms: C_9  and  C_10
REMARK    5  A    between atoms: C_15  and  C_16
REMARK                            x       y       z     vdW  Elec       q    Type
REMARK                         _______ _______ _______ _____ _____    ______ ____
ROOT
ATOM      1  C   UNL     1      43.477   4.436  11.347  0.00  0.00    +0.000 C 
ENDROOT
BRANCH   1   2
ATOM      2  C   UNL     1      44.741   4.805  12.084  0.00  0.00    +0.000 A 
ATOM      3  C   UNL     1      45.403   3.861  12.871  0.00  0.00    +0.000 A 
ATOM      4  C   UNL     1      46.615   4.189  13.462  0.00  0.00    +0.000 A 
ATOM      5  F   UNL     1      47.258   3.266  14.191  0.00  0.00    +0.000 F 
ATOM      6  C   UNL     1      47.199   5.438  13.272  0.00  0.00    +0.000 A 
ATOM      7  C   UNL     1      46.583   6.403  12.458  0.00  0.00    +0.000 A 
ATOM      8  C   UNL     1      45.330   6.072  11.901  0.00  0.00    +0.000 A 
BRANCH   7   9
ATOM      9  C   UNL     1      47.265   7.669  12.096  0.00  0.00    +0.000 A 
ATOM     10  C   UNL     1      46.603   8.905  12.224  0.00  0.00    +0.000 A 
ATOM     11  C   UNL     1      47.265  10.117  12.008  0.00  0.00    +0.000 A 
ATOM     12  C   UNL     1      48.611  10.122  11.659  0.00  0.00    +0.000 A 
ATOM     13  C   UNL     1      49.285   8.916  11.498  0.00  0.00    +0.000 A 
ATOM     14  C   UNL     1      48.616   7.703  11.704  0.00  0.00    +0.000 A 
ENDBRANCH   7   9
ENDBRANCH   1   2
BRANCH   1  15
ATOM     15  N   UNL     1      43.629   4.630   9.916  0.00  0.00    +0.000 N 
ATOM     16  H   UNL     1      42.751   4.639   9.399  0.00  0.00    +0.000 HD
BRANCH  15  20
ATOM     17  C   UNL     1      46.550   2.519   7.707  0.00  0.00    +0.000 A 
ATOM     18  C   UNL     1      46.523   3.913   7.654  0.00  0.00    +0.000 A 
ATOM     19  C   UNL     1      45.578   4.622   8.401  0.00  0.00    +0.000 A 
ATOM     20  C   UNL     1      44.657   3.968   9.234  0.00  0.00    +0.000 A 
ATOM     21  C   UNL     1      44.690   2.569   9.261  0.00  0.00    +0.000 A 
ATOM     22  C   UNL     1      45.622   1.845   8.501  0.00  0.00    +0.000 A 
BRANCH  17  24
ATOM     23  N   UNL     1      48.582   2.395   6.367  0.00  0.00    +0.000 N 
ATOM     24  C   UNL     1      47.507   1.731   6.892  0.00  0.00    +0.000 C 
ATOM     25  O   UNL     1      47.376   0.525   6.725  0.00  0.00    +0.000 OA
ATOM     26  H   UNL     1      49.281   1.828   5.903  0.00  0.00    +0.000 HD
ATOM     27  H   UNL     1      48.861   3.316   6.682  0.00  0.00    +0.000 HD
ENDBRANCH  17  24
ENDBRANCH  15  20
ENDBRANCH   1  15
TORSDOF 5
ENDMDL
MODEL 2
REMARK VINA RESULT:    -7.738      2.227      4.061
REMARK INTER + INTRA:         -11.126
REMARK INTER:                 -10.217
REMARK INTRA:                  -0.909
REMARK UNBOUND:                -1.126
REMARK  Name = 
REMARK  5 active torsions:
REMARK  status: ('A' for Active; 'I' for Inactive)
REMARK    1  A    between atoms: C_2  and  C_4
REMARK    2  A    between atoms: C_7  and  N_8
REMARK    3  A    between atoms: N_8  and  C_9
REMARK    4  A    between atoms: C_9  and  C_10
REMARK    5  A    between atoms: C_15  and  C_16
REMARK                            x       y       z     vdW  Elec       q    Type
REMARK                         _______ _______ _______ _____ _____    ______ ____
ROOT
ATOM      1  C   UNL     1      43.953   4.681  11.644  0.00  0.00    +0.000 C 
ENDROOT
BRANCH   1   2
ATOM      2  C   UNL     1      45.291   5.118  12.185  0.00  0.00    +0.000 A 
ATOM      3  C   UNL     1      45.967   6.199  11.616  0.00  0.00    +0.000 A 
ATOM      4  C   UNL     1      47.148   6.649  12.188  0.00  0.00    +0.000 A 
ATOM      5  F   UNL     1      47.773   7.707  11.653  0.00  0.00    +0.000 F 
ATOM      6  C   UNL     1      47.669   6.055  13.334  0.00  0.00    +0.000 A 
ATOM      7  C   UNL     1      47.002   4.988  13.958  0.00  0.00    +0.000 A 
ATOM      8  C   UNL     1      45.826   4.514  13.339  0.00  0.00    +0.000 A 
BRANCH   7   9
ATOM      9  C   UNL     1      47.438   4.457  15.272  0.00  0.00    +0.000 A 
ATOM     10  C   UNL     1      47.713   3.086  15.438  0.00  0.00    +0.000 A 
ATOM     11  C   UNL     1      48.243   2.584  16.630  0.00  0.00    +0.000 A 
ATOM     12  C   UNL     1      48.513   3.444  17.687  0.00  0.00    +0.000 A 
ATOM     13  C   UNL     1      48.226   4.800  17.564  0.00  0.00    +0.000 A 
ATOM     14  C   UNL     1      47.684   5.298  16.372  0.00  0.00    +0.000 A 
ENDBRANCH   7   9
ENDBRANCH   1   2
BRANCH   1  15
ATOM     15  N   UNL     1      43.900   4.820  10.199  0.00  0.00    +0.000 N 
ATOM     16  H   UNL     1      42.967   4.997   9.829  0.00  0.00    +0.000 HD
BRANCH  15  20
ATOM     17  C   UNL     1      46.383   2.310   7.874  0.00  0.00    +0.000 A 
ATOM     18  C   UNL     1      45.514   1.744   8.807  0.00  0.00    +0.000 A 
ATOM     19  C   UNL     1      44.669   2.562   9.563  0.00  0.00    +0.000 A 
ATOM     20  C   UNL     1      44.651   3.956   9.393  0.00  0.00    +0.000 A 
ATOM     21  C   UNL     1      45.540   4.506   8.463  0.00  0.00    +0.000 A 
ATOM     22  C   UNL     1      46.406   3.696   7.711  0.00  0.00    +0.000 A 
BRANCH  17  24
ATOM     23  N   UNL     1      46.992   0.165   6.890  0.00  0.00    +0.000 N 
ATOM     24  C   UNL     1      47.326   1.478   7.088  0.00  0.00    +0.000 C 
ATOM     25  O   UNL     1      48.344   1.944   6.593  0.00  0.00    +0.000 OA
ATOM     26  H   UNL     1      47.590  -0.364   6.266  0.00  0.00    +0.000 HD
ATOM     27  H   UNL     1      46.060  -0.192   7.059  0.00  0.00    +0.000 HD
ENDBRANCH  17  24
ENDBRANCH  15  20
ENDBRANCH   1  15
TORSDOF 5
ENDMDL
MODEL 3
REMARK VINA RESULT:    -7.734      1.849      2.611
REMARK INTER + INTRA:         -11.121
REMARK INTER:                 -10.044
REMARK INTRA:                  -1.076
REMARK UNBOUND:                -1.126
REMARK  Name = 
REMARK  5 active torsions:
REMARK  status: ('A' for Active; 'I' for Inactive)
REMARK    1  A    between atoms: C_2  and  C_4
REMARK    2  A    between atoms: C_7  and  N_8
REMARK    3  A    between atoms: N_8  and  C_9
REMARK    4  A    between atoms: C_9  and  C_10
REMARK    5  A    between atoms: C_15  and  C_16
REMARK                            x       y       z     vdW  Elec       q    Type
REMARK                         _______ _______ _______ _____ _____    ______ ____
ROOT
ATOM      1  C   UNL     1      44.135   4.091  12.045  0.00  0.00    +0.000 C 
ENDROOT
BRANCH   1   2
ATOM      2  C   UNL     1      44.998   5.303  12.292  0.00  0.00    +0.000 A 
ATOM      3  C   UNL     1      46.322   5.157  12.710  0.00  0.00    +0.000 A 
ATOM      4  C   UNL     1      47.129   6.278  12.838  0.00  0.00    +0.000 A 
ATOM      5  F   UNL     1      48.408   6.125  13.210  0.00  0.00    +0.000 F 
ATOM      6  C   UNL     1      46.653   7.551  12.538  0.00  0.00    +0.000 A 
ATOM      7  C   UNL     1      45.338   7.737  12.079  0.00  0.00    +0.000 A 
ATOM      8  C   UNL     1      44.516   6.594  11.998  0.00  0.00    +0.000 A 
BRANCH   7   9
ATOM      9  C   UNL     1      44.863   9.052  11.587  0.00  0.00    +0.000 A 
ATOM     10  C   UNL     1      43.651   9.160  10.880  0.00  0.00    +0.000 A 
ATOM     11  C   UNL     1      43.123  10.402  10.514  0.00  0.00    +0.000 A 
ATOM     12  C   UNL     1      43.797  11.570  10.850  0.00  0.00    +0.000 A 
ATOM     13  C   UNL     1      45.012  11.495  11.523  0.00  0.00    +0.000 A 
ATOM     14  C   UNL     1      45.544  10.249  11.878  0.00  0.00    +0.000 A 
ENDBRANCH   7   9
ENDBRANCH   1   2
BRANCH   1  15
ATOM     15  N   UNL     1      43.646   4.064  10.678  0.00  0.00    +0.000 N 
ATOM     16  H   UNL     1      42.687   3.734  10.582  0.00  0.00    +0.000 HD
BRANCH  15  20
ATOM     17  C   UNL     1      46.376   2.805   7.706  0.00  0.00    +0.000 A 
ATOM     18  C   UNL     1      45.718   1.852   8.483  0.00  0.00    +0.000 A 
ATOM     19  C   UNL     1      44.793   2.256   9.451  0.00  0.00    +0.000 A 
ATOM     20  C   UNL     1      44.484   3.610   9.653  0.00  0.00    +0.000 A 
ATOM     21  C   UNL     1      45.166   4.551   8.873  0.00  0.00    +0.000 A 
ATOM     22  C   UNL     1      46.110   4.159   7.911  0.00  0.00    +0.000 A 
BRANCH  17  24
ATOM     23  N   UNL     1      47.363   3.053   5.491  0.00  0.00    +0.000 N 
ATOM     24  C   UNL     1      47.397   2.417   6.702  0.00  0.00    +0.000 C 
ATOM     25  O   UNL     1      48.268   1.593   6.950  0.00  0.00    +0.000 OA
ATOM     26  H   UNL     1      48.125   2.855   4.855  0.00  0.00    +0.000 HD
ATOM     27  H   UNL     1      46.832   3.901   5.335  0.00  0.00    +0.000 HD
ENDBRANCH  17  24
ENDBRANCH  15  20
ENDBRANCH   1  15
TORSDOF 5
ENDMDL
MODEL 4
REMARK VINA RESULT:    -7.498      3.191      6.471
REMARK INTER + INTRA:         -10.817
REMARK INTER:                  -9.817
REMARK INTRA:                  -0.999
REMARK UNBOUND:                -1.126
REMARK  Name = 
REMARK  5 active torsions:
REMARK  status: ('A' for Active; 'I' for Inactive)
REMARK    1  A    between atoms: C_2  and  C_4
REMARK    2  A    between atoms: C_7  and  N_8
REMARK    3  A    between atoms: N_8  and  C_9
REMARK    4  A    between atoms: C_9  and  C_10
REMARK    5  A    between atoms: C_15  and  C_16
REMARK                            x       y       z     vdW  Elec       q    Type
REMARK                         _______ _______ _______ _____ _____    ______ ____
ROOT
ATOM      1  C   UNL     1      43.885   6.478  11.108  0.00  0.00    +0.000 C 
ENDROOT
BRANCH   1   2
ATOM      2  C   UNL     1      44.103   5.008  10.847  0.00  0.00    +0.000 A 
ATOM      3  C   UNL     1      43.380   4.047  11.557  0.00  0.00    +0.000 A 
ATOM      4  C   UNL     1      43.521   2.706  11.235  0.00  0.00    +0.000 A 
ATOM      5  F   UNL     1      42.801   1.793  11.901  0.00  0.00    +0.000 F 
ATOM      6  C   UNL     1      44.358   2.293  10.201  0.00  0.00    +0.000 A 
ATOM      7  C   UNL     1      45.074   3.230   9.438  0.00  0.00    +0.000 A 
ATOM      8  C   UNL     1      44.955   4.587   9.807  0.00  0.00    +0.000 A 
BRANCH   7   9
ATOM      9  C   UNL     1      45.829   2.835   8.225  0.00  0.00    +0.000 A 
ATOM     10  C   UNL     1      46.124   3.778   7.223  0.00  0.00    +0.000 A 
ATOM     11  C   UNL     1      46.939   3.459   6.132  0.00  0.00    +0.000 A 
ATOM     12  C   UNL     1      47.481   2.184   6.019  0.00  0.00    +0.000 A 
ATOM     13  C   UNL     1      47.185   1.222   6.980  0.00  0.00    +0.000 A 
ATOM     14  C   UNL     1      46.359   1.542   8.065  0.00  0.00    +0.000 A 
ENDBRANCH   7   9
ENDBRANCH   1   2
BRANCH   1  15
ATOM     15  N   UNL     1      44.437   6.870  12.393  0.00  0.00    +0.000 N 
ATOM     16  H   UNL     1      43.841   7.496  12.932  0.00  0.00    +0.000 HD
BRANCH  15  20
ATOM     17  C   UNL     1      48.586   7.671  12.501  0.00  0.00    +0.000 A 
ATOM     18  C   UNL     1      47.699   8.685  12.137  0.00  0.00    +0.000 A 
ATOM     19  C   UNL     1      46.323   8.439  12.124  0.00  0.00    +0.000 A 
ATOM     20  C   UNL     1      45.796   7.191  12.492  0.00  0.00    +0.000 A 
ATOM     21  C   UNL     1      46.702   6.183  12.839  0.00  0.00    +0.000 A 
ATOM     22  C   UNL     1      48.087   6.413  12.839  0.00  0.00    +0.000 A 
BRANCH  17  24
ATOM     23  N   UNL     1      50.756   7.330  11.443  0.00  0.00    +0.000 N 
ATOM     24  C   UNL     1      50.055   7.882  12.482  0.00  0.00    +0.000 C 
ATOM     25  O   UNL     1      50.623   8.557  13.330  0.00  0.00    +0.000 OA
ATOM     26  H   UNL     1      51.738   7.568  11.385  0.00  0.00    +0.000 HD
ATOM     27  H   UNL     1      50.307   6.989  10.603  0.00  0.00    +0.000 HD
ENDBRANCH  17  24
ENDBRANCH  15  20
ENDBRANCH   1  15
TORSDOF 5
ENDMDL
MODEL 5
REMARK VINA RESULT:    -7.291      3.981      7.421
REMARK INTER + INTRA:         -10.549
REMARK INTER:                  -9.741
REMARK INTRA:                  -0.808
REMARK UNBOUND:                -1.126
REMARK  Name = 
REMARK  5 active torsions:
REMARK  status: ('A' for Active; 'I' for Inactive)
REMARK    1  A    between atoms: C_2  and  C_4
REMARK    2  A    between atoms: C_7  and  N_8
REMARK    3  A    between atoms: N_8  and  C_9
REMARK    4  A    between atoms: C_9  and  C_10
REMARK    5  A    between atoms: C_15  and  C_16
REMARK                            x       y       z     vdW  Elec       q    Type
REMARK                         _______ _______ _______ _____ _____    ______ ____
ROOT
ATOM      1  C   UNL     1      46.198   7.260  12.418  0.00  0.00    +0.000 C 
ENDROOT
BRANCH   1   2
ATOM      2  C   UNL     1      45.291   6.229  11.794  0.00  0.00    +0.000 A 
ATOM      3  C   UNL     1      43.920   6.241  12.055  0.00  0.00    +0.000 A 
ATOM      4  C   UNL     1      43.088   5.347  11.396  0.00  0.00    +0.000 A 
ATOM      5  F   UNL     1      41.769   5.387  11.630  0.00  0.00    +0.000 F 
ATOM      6  C   UNL     1      43.589   4.445  10.462  0.00  0.00    +0.000 A 
ATOM      7  C   UNL     1      44.957   4.425  10.144  0.00  0.00    +0.000 A 
ATOM      8  C   UNL     1      45.797   5.309  10.854  0.00  0.00    +0.000 A 
BRANCH   7   9
ATOM      9  C   UNL     1      45.487   3.603   9.030  0.00  0.00    +0.000 A 
ATOM     10  C   UNL     1      46.080   4.209   7.907  0.00  0.00    +0.000 A 
ATOM     11  C   UNL     1      46.696   3.453   6.904  0.00  0.00    +0.000 A 
ATOM     12  C   UNL     1      46.735   2.068   7.004  0.00  0.00    +0.000 A 
ATOM     13  C   UNL     1      46.132   1.438   8.088  0.00  0.00    +0.000 A 
ATOM     14  C   UNL     1      45.506   2.197   9.084  0.00  0.00    +0.000 A 
ENDBRANCH   7   9
ENDBRANCH   1   2
BRANCH   1  15
ATOM     15  N   UNL     1      47.511   6.704  12.697  0.00  0.00    +0.000 N 
ATOM     16  H   UNL     1      47.929   6.203  11.915  0.00  0.00    +0.000 HD
BRANCH  15  20
ATOM     17  C   UNL     1      48.124   5.043  16.536  0.00  0.00    +0.000 A 
ATOM     18  C   UNL     1      47.298   4.383  15.625  0.00  0.00    +0.000 A 
ATOM     19  C   UNL     1      47.109   4.909  14.344  0.00  0.00    +0.000 A 
ATOM     20  C   UNL     1      47.752   6.087  13.930  0.00  0.00    +0.000 A 
ATOM     21  C   UNL     1      48.564   6.741  14.863  0.00  0.00    +0.000 A 
ATOM     22  C   UNL     1      48.747   6.232  16.158  0.00  0.00    +0.000 A 
BRANCH  17  24
ATOM     23  N   UNL     1      47.275   4.713  18.796  0.00  0.00    +0.000 N 
ATOM     24  C   UNL     1      48.311   4.540  17.919  0.00  0.00    +0.000 C 
ATOM     25  O   UNL     1      49.328   3.952  18.262  0.00  0.00    +0.000 OA
ATOM     26  H   UNL     1      47.374   4.274  19.704  0.00  0.00    +0.000 HD
ATOM     27  H   UNL     1      46.341   4.959  18.495  0.00  0.00    +0.000 HD
ENDBRANCH  17  24
ENDBRANCH  15  20
ENDBRANCH   1  15
TORSDOF 5
ENDMDL
MODEL 6
REMARK VINA RESULT:    -6.905      3.575      6.803
REMARK INTER + INTRA:         -10.050
REMARK INTER:                  -9.277
REMARK INTRA:                  -0.773
REMARK UNBOUND:                -1.126
REMARK  Name = 
REMARK  5 active torsions:
REMARK  status: ('A' for Active; 'I' for Inactive)
REMARK    1  A    between atoms: C_2  and  C_4
REMARK    2  A    between atoms: C_7  and  N_8
REMARK    3  A    between atoms: N_8  and  C_9
REMARK    4  A    between atoms: C_9  and  C_10
REMARK    5  A    between atoms: C_15  and  C_16
REMARK                            x       y       z     vdW  Elec       q    Type
REMARK                         _______ _______ _______ _____ _____    ______ ____
ROOT
ATOM      1  C   UNL     1      45.931   4.950  14.083  0.00  0.00    +0.000 C 
ENDROOT
BRANCH   1   2
ATOM      2  C   UNL     1      45.007   4.725  12.913  0.00  0.00    +0.000 A 
ATOM      3  C   UNL     1      43.724   5.276  12.906  0.00  0.00    +0.000 A 
ATOM      4  C   UNL     1      42.924   5.141  11.781  0.00  0.00    +0.000 A 
ATOM      5  F   UNL     1      41.706   5.700  11.772  0.00  0.00    +0.000 F 
ATOM      6  C   UNL     1      43.381   4.481  10.643  0.00  0.00    +0.000 A 
ATOM      7  C   UNL     1      44.678   3.945  10.595  0.00  0.00    +0.000 A 
ATOM      8  C   UNL     1      45.463   4.051  11.763  0.00  0.00    +0.000 A 
BRANCH   7   9
ATOM      9  C   UNL     1      45.250   3.397   9.342  0.00  0.00    +0.000 A 
ATOM     10  C   UNL     1      45.711   4.256   8.326  0.00  0.00    +0.000 A 
ATOM     11  C   UNL     1      46.365   3.765   7.191  0.00  0.00    +0.000 A 
ATOM     12  C   UNL     1      46.576   2.400   7.048  0.00  0.00    +0.000 A 
ATOM     13  C   UNL     1      46.108   1.523   8.021  0.00  0.00    +0.000 A 
ATOM     14  C   UNL     1      45.443   2.017   9.151  0.00  0.00    +0.000 A 
ENDBRANCH   7   9
ENDBRANCH   1   2
BRANCH   1  15
ATOM     15  N   UNL     1      47.271   5.287  13.637  0.00  0.00    +0.000 N 
ATOM     16  H   UNL     1      48.010   4.997  14.275  0.00  0.00    +0.000 HD
BRANCH  15  20
ATOM     17  C   UNL     1      47.998   9.165  12.121  0.00  0.00    +0.000 A 
ATOM     18  C   UNL     1      48.964   8.171  11.958  0.00  0.00    +0.000 A 
ATOM     19  C   UNL     1      48.723   6.878  12.432  0.00  0.00    +0.000 A 
ATOM     20  C   UNL     1      47.513   6.537  13.056  0.00  0.00    +0.000 A 
ATOM     21  C   UNL     1      46.563   7.552  13.222  0.00  0.00    +0.000 A 
ATOM     22  C   UNL     1      46.801   8.858  12.767  0.00  0.00    +0.000 A 
BRANCH  17  24
ATOM     23  N   UNL     1      49.297  10.777  10.833  0.00  0.00    +0.000 N 
ATOM     24  C   UNL     1      48.238  10.559  11.673  0.00  0.00    +0.000 C 
ATOM     25  O   UNL     1      47.498  11.480  11.997  0.00  0.00    +0.000 OA
ATOM     26  H   UNL     1      49.386  11.711  10.453  0.00  0.00    +0.000 HD
ATOM     27  H   UNL     1      49.770  10.027  10.347  0.00  0.00    +0.000 HD
ENDBRANCH  17  24
ENDBRANCH  15  20
ENDBRANCH   1  15
TORSDOF 5
ENDMDL
MODEL 7
REMARK VINA RESULT:    -6.858      3.597      6.778
REMARK INTER + INTRA:          -9.989
REMARK INTER:                  -9.116
REMARK INTRA:                  -0.872
REMARK UNBOUND:                -1.126
REMARK  Name = 
REMARK  5 active torsions:
REMARK  status: ('A' for Active; 'I' for Inactive)
REMARK    1  A    between atoms: C_2  and  C_4
REMARK    2  A    between atoms: C_7  and  N_8
REMARK    3  A    between atoms: N_8  and  C_9
REMARK    4  A    between atoms: C_9  and  C_10
REMARK    5  A    between atoms: C_15  and  C_16
REMARK                            x       y       z     vdW  Elec       q    Type
REMARK                         _______ _______ _______ _____ _____    ______ ____
ROOT
ATOM      1  C   UNL     1      46.095   5.533  13.813  0.00  0.00    +0.000 C 
ENDROOT
BRANCH   1   2
ATOM      2  C   UNL     1      45.137   5.081  12.740  0.00  0.00    +0.000 A 
ATOM      3  C   UNL     1      43.790   5.447  12.793  0.00  0.00    +0.000 A 
ATOM      4  C   UNL     1      42.945   5.106  11.748  0.00  0.00    +0.000 A 
ATOM      5  F   UNL     1      41.661   5.488  11.793  0.00  0.00    +0.000 F 
ATOM      6  C   UNL     1      43.414   4.420  10.631  0.00  0.00    +0.000 A 
ATOM      7  C   UNL     1      44.769   4.066  10.522  0.00  0.00    +0.000 A 
ATOM      8  C   UNL     1      45.607   4.379  11.613  0.00  0.00    +0.000 A 
BRANCH   7   9
ATOM      9  C   UNL     1      45.328   3.496   9.272  0.00  0.00    +0.000 A 
ATOM     10  C   UNL     1      45.799   4.337   8.246  0.00  0.00    +0.000 A 
ATOM     11  C   UNL     1      46.441   3.824   7.115  0.00  0.00    +0.000 A 
ATOM     12  C   UNL     1      46.630   2.454   6.984  0.00  0.00    +0.000 A 
ATOM     13  C   UNL     1      46.151   1.595   7.968  0.00  0.00    +0.000 A 
ATOM     14  C   UNL     1      45.498   2.111   9.095  0.00  0.00    +0.000 A 
ENDBRANCH   7   9
ENDBRANCH   1   2
BRANCH   1  15
ATOM     15  N   UNL     1      46.477   6.921  13.626  0.00  0.00    +0.000 N 
ATOM     16  H   UNL     1      45.789   7.481  13.125  0.00  0.00    +0.000 HD
BRANCH  15  20
ATOM     17  C   UNL     1      50.368   8.085  12.450  0.00  0.00    +0.000 A 
ATOM     18  C   UNL     1      50.065   7.969  13.807  0.00  0.00    +0.000 A 
ATOM     19  C   UNL     1      48.790   7.559  14.207  0.00  0.00    +0.000 A 
ATOM     20  C   UNL     1      47.795   7.234  13.272  0.00  0.00    +0.000 A 
ATOM     21  C   UNL     1      48.114   7.371  11.916  0.00  0.00    +0.000 A 
ATOM     22  C   UNL     1      49.385   7.799  11.502  0.00  0.00    +0.000 A 
BRANCH  17  24
ATOM     23  N   UNL     1      52.735   7.674  12.042  0.00  0.00    +0.000 N 
ATOM     24  C   UNL     1      51.695   8.562  11.990  0.00  0.00    +0.000 C 
ATOM     25  O   UNL     1      51.857   9.688  11.536  0.00  0.00    +0.000 OA
ATOM     26  H   UNL     1      53.609   7.977  11.629  0.00  0.00    +0.000 HD
ATOM     27  H   UNL     1      52.597   6.679  12.168  0.00  0.00    +0.000 HD
ENDBRANCH  17  24
ENDBRANCH  15  20
ENDBRANCH   1  15
TORSDOF 5
ENDMDL
MODEL 8
REMARK VINA RESULT:    -6.305      3.973      6.060
REMARK INTER + INTRA:          -9.275
REMARK INTER:                  -8.272
REMARK INTRA:                  -1.002
REMARK UNBOUND:                -1.126
REMARK  Name = 
REMARK  5 active torsions:
REMARK  status: ('A' for Active; 'I' for Inactive)
REMARK    1  A    between atoms: C_2  and  C_4
REMARK    2  A    between atoms: C_7  and  N_8
REMARK    3  A    between atoms: N_8  and  C_9
REMARK    4  A    between atoms: C_9  and  C_10
REMARK    5  A    between atoms: C_15  and  C_16
REMARK                            x       y       z     vdW  Elec       q    Type
REMARK                         _______ _______ _______ _____ _____    ______ ____
ROOT
ATOM      1  C   UNL     1      47.594   8.281  13.245  0.00  0.00    +0.000 C 
ENDROOT
BRANCH   1   2
ATOM      2  C   UNL     1      48.147   8.074  14.633  0.00  0.00    +0.000 A 
ATOM      3  C   UNL     1      48.149   9.119  15.558  0.00  0.00    +0.000 A 
ATOM      4  C   UNL     1      48.570   8.883  16.859  0.00  0.00    +0.000 A 
ATOM      5  F   UNL     1      48.539   9.886  17.748  0.00  0.00    +0.000 F 
ATOM      6  C   UNL     1      48.975   7.617  17.271  0.00  0.00    +0.000 A 
ATOM      7  C   UNL     1      48.953   6.530  16.381  0.00  0.00    +0.000 A 
ATOM      8  C   UNL     1      48.566   6.795  15.050  0.00  0.00    +0.000 A 
BRANCH   7   9
ATOM      9  C   UNL     1      49.208   5.143  16.838  0.00  0.00    +0.000 A 
ATOM     10  C   UNL     1      48.234   4.140  16.671  0.00  0.00    +0.000 A 
ATOM     11  C   UNL     1      48.498   2.803  16.980  0.00  0.00    +0.000 A 
ATOM     12  C   UNL     1      49.747   2.435  17.463  0.00  0.00    +0.000 A 
ATOM     13  C   UNL     1      50.722   3.407  17.666  0.00  0.00    +0.000 A 
ATOM     14  C   UNL     1      50.451   4.748  17.366  0.00  0.00    +0.000 A 
ENDBRANCH   7   9
ENDBRANCH   1   2
BRANCH   1  15
ATOM     15  N   UNL     1      46.185   7.936  13.184  0.00  0.00    +0.000 N 
ATOM     16  H   UNL     1      45.666   8.140  14.037  0.00  0.00    +0.000 HD
BRANCH  15  20
ATOM     17  C   UNL     1      44.775   4.326  11.496  0.00  0.00    +0.000 A 
ATOM     18  C   UNL     1      45.026   5.421  10.668  0.00  0.00    +0.000 A 
ATOM     19  C   UNL     1      45.517   6.611  11.211  0.00  0.00    +0.000 A 
ATOM     20  C   UNL     1      45.793   6.734  12.582  0.00  0.00    +0.000 A 
ATOM     21  C   UNL     1      45.520   5.631  13.398  0.00  0.00    +0.000 A 
ATOM     22  C   UNL     1      45.009   4.436  12.866  0.00  0.00    +0.000 A 
BRANCH  17  24
ATOM     23  N   UNL     1      44.967   2.366  10.059  0.00  0.00    +0.000 N 
ATOM     24  C   UNL     1      44.209   3.063  10.961  0.00  0.00    +0.000 C 
ATOM     25  O   UNL     1      43.128   2.628  11.337  0.00  0.00    +0.000 OA
ATOM     26  H   UNL     1      44.618   1.457   9.783  0.00  0.00    +0.000 HD
ATOM     27  H   UNL     1      45.952   2.552   9.916  0.00  0.00    +0.000 HD
ENDBRANCH  17  24
ENDBRANCH  15  20
ENDBRANCH   1  15
TORSDOF 5
ENDMDL
MODEL 9
REMARK VINA RESULT:    -6.266      4.966      7.898
REMARK INTER + INTRA:          -9.224
REMARK INTER:                  -8.539
REMARK INTRA:                  -0.685
REMARK UNBOUND:                -1.126
REMARK  Name = 
REMARK  5 active torsions:
REMARK  status: ('A' for Active; 'I' for Inactive)
REMARK    1  A    between atoms: C_2  and  C_4
REMARK    2  A    between atoms: C_7  and  N_8
REMARK    3  A    between atoms: N_8  and  C_9
REMARK    4  A    between atoms: C_9  and  C_10
REMARK    5  A    between atoms: C_15  and  C_16
REMARK                            x       y       z     vdW  Elec       q    Type
REMARK                         _______ _______ _______ _____ _____    ______ ____
ROOT
ATOM      1  C   UNL     1      48.336   7.303  13.728  0.00  0.00    +0.000 C 
ENDROOT
BRANCH   1   2
ATOM      2  C   UNL     1      47.033   7.330  12.968  0.00  0.00    +0.000 A 
ATOM      3  C   UNL     1      46.283   8.504  12.888  0.00  0.00    +0.000 A 
ATOM      4  C   UNL     1      45.139   8.537  12.104  0.00  0.00    +0.000 A 
ATOM      5  F   UNL     1      44.442   9.677  12.009  0.00  0.00    +0.000 F 
ATOM      6  C   UNL     1      44.729   7.423  11.375  0.00  0.00    +0.000 A 
ATOM      7  C   UNL     1      45.476   6.234  11.399  0.00  0.00    +0.000 A 
ATOM      8  C   UNL     1      46.611   6.202  12.236  0.00  0.00    +0.000 A 
BRANCH   7   9
ATOM      9  C   UNL     1      45.162   5.098  10.498  0.00  0.00    +0.000 A 
ATOM     10  C   UNL     1      45.600   5.099   9.160  0.00  0.00    +0.000 A 
ATOM     11  C   UNL     1      45.424   3.988   8.330  0.00  0.00    +0.000 A 
ATOM     12  C   UNL     1      44.805   2.845   8.822  0.00  0.00    +0.000 A 
ATOM     13  C   UNL     1      44.337   2.824  10.131  0.00  0.00    +0.000 A 
ATOM     14  C   UNL     1      44.504   3.942  10.957  0.00  0.00    +0.000 A 
ENDBRANCH   7   9
ENDBRANCH   1   2
BRANCH   1  15
ATOM     15  N   UNL     1      48.107   7.302  15.162  0.00  0.00    +0.000 N 
ATOM     16  H   UNL     1      47.970   8.227  15.565  0.00  0.00    +0.000 HD
BRANCH  15  20
ATOM     17  C   UNL     1      50.367   4.564  17.457  0.00  0.00    +0.000 A 
ATOM     18  C   UNL     1      50.974   5.724  16.976  0.00  0.00    +0.000 A 
ATOM     19  C   UNL     1      50.230   6.649  16.238  0.00  0.00    +0.000 A 
ATOM     20  C   UNL     1      48.863   6.456  15.982  0.00  0.00    +0.000 A 
ATOM     21  C   UNL     1      48.276   5.280  16.460  0.00  0.00    +0.000 A 
ATOM     22  C   UNL     1      49.018   4.334  17.186  0.00  0.00    +0.000 A 
BRANCH  17  24
ATOM     23  N   UNL     1      50.799   2.227  17.997  0.00  0.00    +0.000 N 
ATOM     24  C   UNL     1      51.136   3.538  18.203  0.00  0.00    +0.000 C 
ATOM     25  O   UNL     1      52.066   3.835  18.941  0.00  0.00    +0.000 OA
ATOM     26  H   UNL     1      51.398   1.534  18.430  0.00  0.00    +0.000 HD
ATOM     27  H   UNL     1      50.221   1.927  17.222  0.00  0.00    +0.000 HD
ENDBRANCH  17  24
ENDBRANCH  15  20
ENDBRANCH   1  15
TORSDOF 5
ENDMDL
