MODEL 1
REMARK VINA RESULT:    -7.085      0.000      0.000
REMARK INTER + INTRA:         -11.393
REMARK INTER:                  -9.984
REMARK INTRA:                  -1.409
REMARK UNBOUND:                -1.409
REMARK  Name = 
REMARK  7 active torsions:
REMARK  status: ('A' for Active; 'I' for Inactive)
REMARK    1  A    between atoms: C_2  and  C_3
REMARK    2  A    between atoms: C_8  and  C_9
REMARK    3  A    between atoms: N_11  and  C_12
REMARK    4  A    between atoms: C_12  and  C_13
REMARK    5  A    between atoms: C_16  and  C_17
REMARK    6  A    between atoms: C_17  and  N_18
REMARK    7  A    between atoms: C_19  and  C_21
REMARK                            x       y       z     vdW  Elec       q    Type
REMARK                         _______ _______ _______ _____ _____    ______ ____
ROOT
ATOM      1  C   UNL     1      46.016   7.804  12.497  0.00  0.00    +0.000 A 
ATOM      2  C   UNL     1      46.688   6.651  12.915  0.00  0.00    +0.000 A 
ATOM      3  C   UNL     1      47.744   6.725  13.835  0.00  0.00    +0.000 A 
ATOM      4  C   UNL     1      48.172   7.957  14.353  0.00  0.00    +0.000 A 
ATOM      5  C   UNL     1      47.532   9.114  13.890  0.00  0.00    +0.000 A 
ATOM      6  C   UNL     1      46.459   9.039  12.987  0.00  0.00    +0.000 A 
ENDROOT
BRANCH   1   7
ATOM      7  C   UNL     1      44.869   7.717  11.522  0.00  0.00    +0.000 C 
BRANCH   7  10
ATOM      8  C   UNL     1      43.844   5.647  10.713  0.00  0.00    +0.000 C 
ATOM      9  O   UNL     1      42.856   5.824  11.416  0.00  0.00    +0.000 OA
ATOM     10  N   UNL     1      44.908   6.523  10.696  0.00  0.00    +0.000 N 
ATOM     11  H   UNL     1      45.806   6.216  10.354  0.00  0.00    +0.000 HD
BRANCH   8  17
ATOM     12  C   UNL     1      43.963   3.102  10.590  0.00  0.00    +0.000 C 
ATOM     13  C   UNL     1      44.211   1.894   9.668  0.00  0.00    +0.000 C 
ATOM     14  C   UNL     1      45.474   2.032   8.817  0.00  0.00    +0.000 C 
ATOM     15  C   UNL     1      45.496   3.347   8.046  0.00  0.00    +0.000 C 
ATOM     16  C   UNL     1      45.293   4.544   8.968  0.00  0.00    +0.000 C 
ATOM     17  C   UNL     1      44.004   4.424   9.800  0.00  0.00    +0.000 C 
BRANCH  12  19
ATOM     18  N   UNL     1      45.682   3.104  12.591  0.00  0.00    +0.000 NA
ATOM     19  C   UNL     1      44.930   3.096  11.708  0.00  0.00    +0.000 C 
ENDBRANCH  12  19
ENDBRANCH   8  17
ENDBRANCH   7  10
ENDBRANCH   1   7
BRANCH   4  20
ATOM     20  C   UNL     1      49.284   8.063  15.378  0.00  0.00    +0.000 C 
BRANCH  20  21
ATOM     21  N   UNL     1      49.777   6.783  15.820  0.00  0.00    +0.000 N 
ATOM     22  C   UNL     1      49.334   6.170  16.959  0.00  0.00    +0.000 C 
ATOM     23  O   UNL     1      48.486   6.657  17.704  0.00  0.00    +0.000 OA
ATOM     24  H   UNL     1      50.695   6.512  15.485  0.00  0.00    +0.000 HD
BRANCH  22  25
ATOM     25  C   UNL     1      49.908   4.838  17.206  0.00  0.00    +0.000 A 
ATOM     26  C   UNL     1      49.103   3.710  17.163  0.00  0.00    +0.000 A 
ATOM     27  S   UNL     1      49.957   2.257  17.434  0.00  0.00    +0.000 S 
ATOM     28  C   UNL     1      51.425   3.091  17.657  0.00  0.00    +0.000 A 
ATOM     29  N   UNL     1      52.569   2.429  17.960  0.00  0.00    +0.000 NA
ATOM     30  C   UNL     1      53.606   3.198  18.128  0.00  0.00    +0.000 A 
ATOM     31  N   UNL     1      53.587   4.558  18.007  0.00  0.00    +0.000 N 
ATOM     32  C   UNL     1      52.467   5.262  17.633  0.00  0.00    +0.000 A 
ATOM     33  O   UNL     1      52.512   6.471  17.427  0.00  0.00    +0.000 OA
ATOM     34  C   UNL     1      51.271   4.456  17.489  0.00  0.00    +0.000 A 
ATOM     35  H   UNL     1      54.438   5.096  18.119  0.00  0.00    +0.000 HD
ENDBRANCH  22  25
ENDBRANCH  20  21
ENDBRANCH   4  20
TORSDOF 7
ENDMDL
MODEL 2
REMARK VINA RESULT:    -6.939      2.298      2.540
REMARK INTER + INTRA:         -11.188
REMARK INTER:                  -9.732
REMARK INTRA:                  -1.456
REMARK UNBOUND:                -1.409
REMARK  Name = 
REMARK  7 active torsions:
REMARK  status: ('A' for Active; 'I' for Inactive)
REMARK    1  A    between atoms: C_2  and  C_3
REMARK    2  A    between atoms: C_8  and  C_9
REMARK    3  A    between atoms: N_11  and  C_12
REMARK    4  A    between atoms: C_12  and  C_13
REMARK    5  A    between atoms: C_16  and  C_17
REMARK    6  A    between atoms: C_17  and  N_18
REMARK    7  A    between atoms: C_19  and  C_21
REMARK                            x       y       z     vdW  Elec       q    Type
REMARK                         _______ _______ _______ _____ _____    ______ ____
ROOT
ATOM      1  C   UNL     1      46.000   7.981  12.199  0.00  0.00    +0.000 A 
ATOM      2  C   UNL     1      46.929   6.957  12.406  0.00  0.00    +0.000 A 
ATOM      3  C   UNL     1      48.085   7.175  13.168  0.00  0.00    +0.000 A 
ATOM      4  C   UNL     1      48.359   8.430  13.734  0.00  0.00    +0.000 A 
ATOM      5  C   UNL     1      47.453   9.468  13.478  0.00  0.00    +0.000 A 
ATOM      6  C   UNL     1      46.283   9.245  12.734  0.00  0.00    +0.000 A 
ENDROOT
BRANCH   1   7
ATOM      7  C   UNL     1      44.748   7.737  11.395  0.00  0.00    +0.000 C 
BRANCH   7  10
ATOM      8  C   UNL     1      43.773   5.611  10.676  0.00  0.00    +0.000 C 
ATOM      9  O   UNL     1      42.800   5.774  11.402  0.00  0.00    +0.000 OA
ATOM     10  N   UNL     1      44.805   6.522  10.602  0.00  0.00    +0.000 N 
ATOM     11  H   UNL     1      45.703   6.235  10.242  0.00  0.00    +0.000 HD
BRANCH   8  17
ATOM     12  C   UNL     1      43.958   3.067  10.619  0.00  0.00    +0.000 C 
ATOM     13  C   UNL     1      44.221   1.841   9.725  0.00  0.00    +0.000 C 
ATOM     14  C   UNL     1      45.464   1.989   8.847  0.00  0.00    +0.000 C 
ATOM     15  C   UNL     1      45.437   3.282   8.040  0.00  0.00    +0.000 C 
ATOM     16  C   UNL     1      45.218   4.499   8.933  0.00  0.00    +0.000 C 
ATOM     17  C   UNL     1      43.948   4.368   9.793  0.00  0.00    +0.000 C 
BRANCH  12  19
ATOM     18  N   UNL     1      45.708   3.158  12.591  0.00  0.00    +0.000 NA
ATOM     19  C   UNL     1      44.945   3.118  11.718  0.00  0.00    +0.000 C 
ENDBRANCH  12  19
ENDBRANCH   8  17
ENDBRANCH   7  10
ENDBRANCH   1   7
BRANCH   4  20
ATOM     20  C   UNL     1      49.581   8.684  14.593  0.00  0.00    +0.000 C 
BRANCH  20  21
ATOM     21  N   UNL     1      49.607   7.891  15.796  0.00  0.00    +0.000 N 
ATOM     22  C   UNL     1      48.843   8.181  16.893  0.00  0.00    +0.000 C 
ATOM     23  O   UNL     1      48.076   9.140  16.949  0.00  0.00    +0.000 OA
ATOM     24  H   UNL     1      50.443   7.341  15.958  0.00  0.00    +0.000 HD
BRANCH  22  25
ATOM     25  C   UNL     1      48.958   7.216  17.997  0.00  0.00    +0.000 A 
ATOM     26  C   UNL     1      49.312   7.645  19.268  0.00  0.00    +0.000 A 
ATOM     27  S   UNL     1      49.353   6.387  20.421  0.00  0.00    +0.000 S 
ATOM     28  C   UNL     1      48.939   5.220  19.252  0.00  0.00    +0.000 A 
ATOM     29  N   UNL     1      48.838   3.907  19.576  0.00  0.00    +0.000 NA
ATOM     30  C   UNL     1      48.541   3.128  18.576  0.00  0.00    +0.000 A 
ATOM     31  N   UNL     1      48.330   3.559  17.297  0.00  0.00    +0.000 N 
ATOM     32  C   UNL     1      48.353   4.886  16.940  0.00  0.00    +0.000 A 
ATOM     33  O   UNL     1      48.051   5.248  15.807  0.00  0.00    +0.000 OA
ATOM     34  C   UNL     1      48.735   5.790  18.007  0.00  0.00    +0.000 A 
ATOM     35  H   UNL     1      48.070   2.904  16.570  0.00  0.00    +0.000 HD
ENDBRANCH  22  25
ENDBRANCH  20  21
ENDBRANCH   4  20
TORSDOF 7
ENDMDL
MODEL 3
REMARK VINA RESULT:    -6.826      2.379      3.427
REMARK INTER + INTRA:         -11.028
REMARK INTER:                  -9.781
REMARK INTRA:                  -1.247
REMARK UNBOUND:                -1.409
REMARK  Name = 
REMARK  7 active torsions:
REMARK  status: ('A' for Active; 'I' for Inactive)
REMARK    1  A    between atoms: C_2  and  C_3
REMARK    2  A    between atoms: C_8  and  C_9
REMARK    3  A    between atoms: N_11  and  C_12
REMARK    4  A    between atoms: C_12  and  C_13
REMARK    5  A    between atoms: C_16  and  C_17
REMARK    6  A    between atoms: C_17  and  N_18
REMARK    7  A    between atoms: C_19  and  C_21
REMARK                            x       y       z     vdW  Elec       q    Type
REMARK                         _______ _______ _______ _____ _____    ______ ____
ROOT
ATOM      1  C   UNL     1      46.535   7.745  12.549  0.00  0.00    +0.000 A 
ATOM      2  C   UNL     1      47.565   6.819  12.356  0.00  0.00    +0.000 A 
ATOM      3  C   UNL     1      48.707   6.830  13.169  0.00  0.00    +0.000 A 
ATOM      4  C   UNL     1      48.863   7.780  14.191  0.00  0.00    +0.000 A 
ATOM      5  C   UNL     1      47.854   8.740  14.345  0.00  0.00    +0.000 A 
ATOM      6  C   UNL     1      46.699   8.715  13.546  0.00  0.00    +0.000 A 
ENDROOT
BRANCH   1   7
ATOM      7  C   UNL     1      45.300   7.717  11.684  0.00  0.00    +0.000 C 
BRANCH   7  10
ATOM      8  C   UNL     1      44.078   5.763  10.858  0.00  0.00    +0.000 C 
ATOM      9  O   UNL     1      43.120   6.018  11.577  0.00  0.00    +0.000 OA
ATOM     10  N   UNL     1      45.218   6.538  10.840  0.00  0.00    +0.000 N 
ATOM     11  H   UNL     1      46.080   6.155  10.480  0.00  0.00    +0.000 HD
BRANCH   8  17
ATOM     12  C   UNL     1      43.990   3.219  10.697  0.00  0.00    +0.000 C 
ATOM     13  C   UNL     1      44.113   2.010   9.752  0.00  0.00    +0.000 C 
ATOM     14  C   UNL     1      45.359   2.060   8.866  0.00  0.00    +0.000 C 
ATOM     15  C   UNL     1      45.464   3.381   8.112  0.00  0.00    +0.000 C 
ATOM     16  C   UNL     1      45.384   4.576   9.056  0.00  0.00    +0.000 C 
ATOM     17  C   UNL     1      44.114   4.546   9.924  0.00  0.00    +0.000 C 
BRANCH  12  19
ATOM     18  N   UNL     1      45.755   3.047  12.650  0.00  0.00    +0.000 NA
ATOM     19  C   UNL     1      44.984   3.118  11.786  0.00  0.00    +0.000 C 
ENDBRANCH  12  19
ENDBRANCH   8  17
ENDBRANCH   7  10
ENDBRANCH   1   7
BRANCH   4  20
ATOM     20  C   UNL     1      50.069   7.792  15.109  0.00  0.00    +0.000 C 
BRANCH  20  21
ATOM     21  N   UNL     1      49.733   7.595  16.496  0.00  0.00    +0.000 N 
ATOM     22  C   UNL     1      49.312   6.394  16.995  0.00  0.00    +0.000 C 
ATOM     23  O   UNL     1      49.178   5.384  16.306  0.00  0.00    +0.000 OA
ATOM     24  H   UNL     1      49.468   8.422  17.019  0.00  0.00    +0.000 HD
BRANCH  22  25
ATOM     25  C   UNL     1      49.082   6.376  18.448  0.00  0.00    +0.000 A 
ATOM     26  C   UNL     1      49.569   5.332  19.221  0.00  0.00    +0.000 A 
ATOM     27  S   UNL     1      49.237   5.511  20.886  0.00  0.00    +0.000 S 
ATOM     28  C   UNL     1      48.397   6.969  20.624  0.00  0.00    +0.000 A 
ATOM     29  N   UNL     1      47.817   7.638  21.651  0.00  0.00    +0.000 NA
ATOM     30  C   UNL     1      47.187   8.721  21.299  0.00  0.00    +0.000 A 
ATOM     31  N   UNL     1      47.103   9.183  20.016  0.00  0.00    +0.000 N 
ATOM     32  C   UNL     1      47.734   8.575  18.957  0.00  0.00    +0.000 A 
ATOM     33  O   UNL     1      47.729   9.076  17.837  0.00  0.00    +0.000 OA
ATOM     34  C   UNL     1      48.403   7.332  19.289  0.00  0.00    +0.000 A 
ATOM     35  H   UNL     1      46.624  10.052  19.812  0.00  0.00    +0.000 HD
ENDBRANCH  22  25
ENDBRANCH  20  21
ENDBRANCH   4  20
TORSDOF 7
ENDMDL
MODEL 4
REMARK VINA RESULT:    -6.773      2.219      2.508
REMARK INTER + INTRA:         -10.954
REMARK INTER:                  -9.787
REMARK INTRA:                  -1.166
REMARK UNBOUND:                -1.409
REMARK  Name = 
REMARK  7 active torsions:
REMARK  status: ('A' for Active; 'I' for Inactive)
REMARK    1  A    between atoms: C_2  and  C_3
REMARK    2  A    between atoms: C_8  and  C_9
REMARK    3  A    between atoms: N_11  and  C_12
REMARK    4  A    between atoms: C_12  and  C_13
REMARK    5  A    between atoms: C_16  and  C_17
REMARK    6  A    between atoms: C_17  and  N_18
REMARK    7  A    between atoms: C_19  and  C_21
REMARK                            x       y       z     vdW  Elec       q    Type
REMARK                         _______ _______ _______ _____ _____    ______ ____
ROOT
ATOM      1  C   UNL     1      46.407   7.675  12.641  0.00  0.00    +0.000 A 
ATOM      2  C   UNL     1      46.633   8.754  13.501  0.00  0.00    +0.000 A 
ATOM      3  C   UNL     1      47.707   8.747  14.403  0.00  0.00    +0.000 A 
ATOM      4  C   UNL     1      48.580   7.651  14.484  0.00  0.00    +0.000 A 
ATOM      5  C   UNL     1      48.318   6.549  13.659  0.00  0.00    +0.000 A 
ATOM      6  C   UNL     1      47.257   6.566  12.740  0.00  0.00    +0.000 A 
ENDROOT
BRANCH   1   7
ATOM      7  C   UNL     1      45.262   7.696  11.660  0.00  0.00    +0.000 C 
BRANCH   7  10
ATOM      8  C   UNL     1      44.043   5.767  10.775  0.00  0.00    +0.000 C 
ATOM      9  O   UNL     1      43.048   6.056  11.428  0.00  0.00    +0.000 OA
ATOM     10  N   UNL     1      45.203   6.511  10.823  0.00  0.00    +0.000 N 
ATOM     11  H   UNL     1      46.075   6.101  10.525  0.00  0.00    +0.000 HD
BRANCH   8  17
ATOM     12  C   UNL     1      43.977   3.220  10.643  0.00  0.00    +0.000 C 
ATOM     13  C   UNL     1      44.128   2.001   9.715  0.00  0.00    +0.000 C 
ATOM     14  C   UNL     1      45.389   2.051   8.852  0.00  0.00    +0.000 C 
ATOM     15  C   UNL     1      45.498   3.364   8.084  0.00  0.00    +0.000 C 
ATOM     16  C   UNL     1      45.391   4.569   9.012  0.00  0.00    +0.000 C 
ATOM     17  C   UNL     1      44.105   4.540   9.857  0.00  0.00    +0.000 C 
BRANCH  12  19
ATOM     18  N   UNL     1      45.722   3.094  12.618  0.00  0.00    +0.000 NA
ATOM     19  C   UNL     1      44.953   3.141  11.752  0.00  0.00    +0.000 C 
ENDBRANCH  12  19
ENDBRANCH   8  17
ENDBRANCH   7  10
ENDBRANCH   1   7
BRANCH   4  20
ATOM     20  C   UNL     1      49.771   7.632  15.421  0.00  0.00    +0.000 C 
BRANCH  20  21
ATOM     21  N   UNL     1      49.416   7.362  16.791  0.00  0.00    +0.000 N 
ATOM     22  C   UNL     1      49.246   6.096  17.279  0.00  0.00    +0.000 C 
ATOM     23  O   UNL     1      49.374   5.084  16.593  0.00  0.00    +0.000 OA
ATOM     24  H   UNL     1      48.948   8.108  17.293  0.00  0.00    +0.000 HD
BRANCH  22  25
ATOM     25  C   UNL     1      48.952   6.023  18.718  0.00  0.00    +0.000 A 
ATOM     26  C   UNL     1      47.730   6.459  19.207  0.00  0.00    +0.000 A 
ATOM     27  S   UNL     1      47.562   6.256  20.893  0.00  0.00    +0.000 S 
ATOM     28  C   UNL     1      49.133   5.614  21.033  0.00  0.00    +0.000 A 
ATOM     29  N   UNL     1      49.641   5.258  22.239  0.00  0.00    +0.000 NA
ATOM     30  C   UNL     1      50.861   4.808  22.197  0.00  0.00    +0.000 A 
ATOM     31  N   UNL     1      51.599   4.681  21.054  0.00  0.00    +0.000 N 
ATOM     32  C   UNL     1      51.100   4.964  19.805  0.00  0.00    +0.000 A 
ATOM     33  O   UNL     1      51.751   4.735  18.790  0.00  0.00    +0.000 OA
ATOM     34  C   UNL     1      49.762   5.522  19.803  0.00  0.00    +0.000 A 
ATOM     35  H   UNL     1      52.534   4.294  21.086  0.00  0.00    +0.000 HD
ENDBRANCH  22  25
ENDBRANCH  20  21
ENDBRANCH   4  20
TORSDOF 7
ENDMDL
MODEL 5
REMARK VINA RESULT:    -6.434      2.903      9.171
REMARK INTER + INTRA:         -10.476
REMARK INTER:                  -9.097
REMARK INTRA:                  -1.379
REMARK UNBOUND:                -1.409
REMARK  Name = 
REMARK  7 active torsions:
REMARK  status: ('A' for Active; 'I' for Inactive)
REMARK    1  A    between atoms: C_2  and  C_3
REMARK    2  A    between atoms: C_8  and  C_9
REMARK    3  A    between atoms: N_11  and  C_12
REMARK    4  A    between atoms: C_12  and  C_13
REMARK    5  A    between atoms: C_16  and  C_17
REMARK    6  A    between atoms: C_17  and  N_18
REMARK    7  A    between atoms: C_19  and  C_21
REMARK                            x       y       z     vdW  Elec       q    Type
REMARK                         _______ _______ _______ _____ _____    ______ ____
ROOT
ATOM      1  C   UNL     1      50.412   7.504  15.087  0.00  0.00    +0.000 A 
ATOM      2  C   UNL     1      50.778   8.042  13.849  0.00  0.00    +0.000 A 
ATOM      3  C   UNL     1      49.868   8.086  12.784  0.00  0.00    +0.000 A 
ATOM      4  C   UNL     1      48.567   7.576  12.917  0.00  0.00    +0.000 A 
ATOM      5  C   UNL     1      48.222   6.989  14.142  0.00  0.00    +0.000 A 
ATOM      6  C   UNL     1      49.125   6.966  15.217  0.00  0.00    +0.000 A 
ENDROOT
BRANCH   1   7
ATOM      7  C   UNL     1      51.389   7.477  16.236  0.00  0.00    +0.000 C 
BRANCH   7  10
ATOM      8  C   UNL     1      50.941   6.041  18.167  0.00  0.00    +0.000 C 
ATOM      9  O   UNL     1      51.617   5.137  17.691  0.00  0.00    +0.000 OA
ATOM     10  N   UNL     1      50.754   7.245  17.521  0.00  0.00    +0.000 N 
ATOM     11  H   UNL     1      49.978   7.837  17.778  0.00  0.00    +0.000 HD
BRANCH   8  17
ATOM     12  C   UNL     1      49.314   4.671  19.576  0.00  0.00    +0.000 C 
ATOM     13  C   UNL     1      48.535   4.611  20.902  0.00  0.00    +0.000 C 
ATOM     14  C   UNL     1      47.780   5.903  21.218  0.00  0.00    +0.000 C 
ATOM     15  C   UNL     1      48.691   7.123  21.151  0.00  0.00    +0.000 C 
ATOM     16  C   UNL     1      49.430   7.202  19.819  0.00  0.00    +0.000 C 
ATOM     17  C   UNL     1      50.220   5.917  19.515  0.00  0.00    +0.000 C 
BRANCH  12  19
ATOM     18  N   UNL     1      47.636   4.573  17.543  0.00  0.00    +0.000 NA
ATOM     19  C   UNL     1      48.379   4.612  18.432  0.00  0.00    +0.000 C 
ENDBRANCH  12  19
ENDBRANCH   8  17
ENDBRANCH   7  10
ENDBRANCH   1   7
BRANCH   4  20
ATOM     20  C   UNL     1      47.550   7.645  11.795  0.00  0.00    +0.000 C 
BRANCH  20  21
ATOM     21  N   UNL     1      46.787   6.434  11.640  0.00  0.00    +0.000 N 
ATOM     22  C   UNL     1      45.421   6.419  11.578  0.00  0.00    +0.000 C 
ATOM     23  O   UNL     1      44.729   7.433  11.655  0.00  0.00    +0.000 OA
ATOM     24  H   UNL     1      47.237   5.574  11.935  0.00  0.00    +0.000 HD
BRANCH  22  25
ATOM     25  C   UNL     1      44.827   5.093  11.350  0.00  0.00    +0.000 A 
ATOM     26  C   UNL     1      44.028   4.507  12.321  0.00  0.00    +0.000 A 
ATOM     27  S   UNL     1      43.400   2.989  11.856  0.00  0.00    +0.000 S 
ATOM     28  C   UNL     1      44.207   3.047  10.357  0.00  0.00    +0.000 A 
ATOM     29  N   UNL     1      44.119   2.022   9.473  0.00  0.00    +0.000 NA
ATOM     30  C   UNL     1      44.808   2.193   8.383  0.00  0.00    +0.000 A 
ATOM     31  N   UNL     1      45.561   3.299   8.109  0.00  0.00    +0.000 N 
ATOM     32  C   UNL     1      45.622   4.389   8.945  0.00  0.00    +0.000 A 
ATOM     33  O   UNL     1      46.218   5.411   8.619  0.00  0.00    +0.000 OA
ATOM     34  C   UNL     1      44.914   4.225  10.200  0.00  0.00    +0.000 A 
ATOM     35  H   UNL     1      46.049   3.384   7.226  0.00  0.00    +0.000 HD
ENDBRANCH  22  25
ENDBRANCH  20  21
ENDBRANCH   4  20
TORSDOF 7
ENDMDL
MODEL 6
REMARK VINA RESULT:    -6.370      2.206      3.419
REMARK INTER + INTRA:         -10.386
REMARK INTER:                  -9.225
REMARK INTRA:                  -1.161
REMARK UNBOUND:                -1.409
REMARK  Name = 
REMARK  7 active torsions:
REMARK  status: ('A' for Active; 'I' for Inactive)
REMARK    1  A    between atoms: C_2  and  C_3
REMARK    2  A    between atoms: C_8  and  C_9
REMARK    3  A    between atoms: N_11  and  C_12
REMARK    4  A    between atoms: C_12  and  C_13
REMARK    5  A    between atoms: C_16  and  C_17
REMARK    6  A    between atoms: C_17  and  N_18
REMARK    7  A    between atoms: C_19  and  C_21
REMARK                            x       y       z     vdW  Elec       q    Type
REMARK                         _______ _______ _______ _____ _____    ______ ____
ROOT
ATOM      1  C   UNL     1      48.154   8.253  14.895  0.00  0.00    +0.000 A 
ATOM      2  C   UNL     1      48.381   9.304  15.788  0.00  0.00    +0.000 A 
ATOM      3  C   UNL     1      48.953   9.072  17.047  0.00  0.00    +0.000 A 
ATOM      4  C   UNL     1      49.301   7.776  17.459  0.00  0.00    +0.000 A 
ATOM      5  C   UNL     1      49.022   6.719  16.583  0.00  0.00    +0.000 A 
ATOM      6  C   UNL     1      48.470   6.954  15.314  0.00  0.00    +0.000 A 
ENDROOT
BRANCH   1   7
ATOM      7  C   UNL     1      47.556   8.511  13.535  0.00  0.00    +0.000 C 
BRANCH   7  10
ATOM      8  C   UNL     1      46.327   6.853  12.220  0.00  0.00    +0.000 C 
ATOM      9  O   UNL     1      47.276   6.704  11.460  0.00  0.00    +0.000 OA
ATOM     10  N   UNL     1      46.356   7.733  13.280  0.00  0.00    +0.000 N 
ATOM     11  H   UNL     1      45.492   8.051  13.693  0.00  0.00    +0.000 HD
BRANCH   8  17
ATOM     12  C   UNL     1      44.718   5.160  13.248  0.00  0.00    +0.000 C 
ATOM     13  C   UNL     1      43.433   4.343  13.023  0.00  0.00    +0.000 C 
ATOM     14  C   UNL     1      43.413   3.606  11.683  0.00  0.00    +0.000 C 
ATOM     15  C   UNL     1      43.700   4.543  10.516  0.00  0.00    +0.000 C 
ATOM     16  C   UNL     1      44.996   5.319  10.723  0.00  0.00    +0.000 C 
ATOM     17  C   UNL     1      45.005   6.092  12.054  0.00  0.00    +0.000 C 
BRANCH  12  19
ATOM     18  N   UNL     1      46.739   3.537  13.741  0.00  0.00    +0.000 NA
ATOM     19  C   UNL     1      45.854   4.256  13.529  0.00  0.00    +0.000 C 
ENDBRANCH  12  19
ENDBRANCH   8  17
ENDBRANCH   7  10
ENDBRANCH   1   7
BRANCH   4  20
ATOM     20  C   UNL     1      49.956   7.501  18.798  0.00  0.00    +0.000 C 
BRANCH  20  21
ATOM     21  N   UNL     1      50.702   6.269  18.826  0.00  0.00    +0.000 N 
ATOM     22  C   UNL     1      51.944   6.141  18.269  0.00  0.00    +0.000 C 
ATOM     23  O   UNL     1      52.525   7.058  17.692  0.00  0.00    +0.000 OA
ATOM     24  H   UNL     1      50.166   5.417  18.941  0.00  0.00    +0.000 HD
BRANCH  22  25
ATOM     25  C   UNL     1      52.573   4.825  18.459  0.00  0.00    +0.000 A 
ATOM     26  C   UNL     1      53.802   4.721  19.095  0.00  0.00    +0.000 A 
ATOM     27  S   UNL     1      54.347   3.112  19.258  0.00  0.00    +0.000 S 
ATOM     28  C   UNL     1      52.978   2.502  18.448  0.00  0.00    +0.000 A 
ATOM     29  N   UNL     1      52.834   1.174  18.215  0.00  0.00    +0.000 NA
ATOM     30  C   UNL     1      51.753   0.857  17.563  0.00  0.00    +0.000 A 
ATOM     31  N   UNL     1      50.814   1.755  17.142  0.00  0.00    +0.000 N 
ATOM     32  C   UNL     1      50.885   3.100  17.416  0.00  0.00    +0.000 A 
ATOM     33  O   UNL     1      49.971   3.862  17.119  0.00  0.00    +0.000 OA
ATOM     34  C   UNL     1      52.100   3.511  18.093  0.00  0.00    +0.000 A 
ATOM     35  H   UNL     1      49.977   1.439  16.666  0.00  0.00    +0.000 HD
ENDBRANCH  22  25
ENDBRANCH  20  21
ENDBRANCH   4  20
TORSDOF 7
ENDMDL
MODEL 7
REMARK VINA RESULT:    -6.156      3.291      9.366
REMARK INTER + INTRA:         -10.084
REMARK INTER:                  -8.938
REMARK INTRA:                  -1.146
REMARK UNBOUND:                -1.409
REMARK  Name = 
REMARK  7 active torsions:
REMARK  status: ('A' for Active; 'I' for Inactive)
REMARK    1  A    between atoms: C_2  and  C_3
REMARK    2  A    between atoms: C_8  and  C_9
REMARK    3  A    between atoms: N_11  and  C_12
REMARK    4  A    between atoms: C_12  and  C_13
REMARK    5  A    between atoms: C_16  and  C_17
REMARK    6  A    between atoms: C_17  and  N_18
REMARK    7  A    between atoms: C_19  and  C_21
REMARK                            x       y       z     vdW  Elec       q    Type
REMARK                         _______ _______ _______ _____ _____    ______ ____
ROOT
ATOM      1  C   UNL     1      49.436   8.429  15.551  0.00  0.00    +0.000 A 
ATOM      2  C   UNL     1      48.156   8.877  15.215  0.00  0.00    +0.000 A 
ATOM      3  C   UNL     1      47.626   8.655  13.936  0.00  0.00    +0.000 A 
ATOM      4  C   UNL     1      48.368   7.992  12.946  0.00  0.00    +0.000 A 
ATOM      5  C   UNL     1      49.672   7.593  13.271  0.00  0.00    +0.000 A 
ATOM      6  C   UNL     1      50.194   7.794  14.558  0.00  0.00    +0.000 A 
ENDROOT
BRANCH   1   7
ATOM      7  C   UNL     1      49.994   8.653  16.934  0.00  0.00    +0.000 C 
BRANCH   7  10
ATOM      8  C   UNL     1      48.402   7.956  18.657  0.00  0.00    +0.000 C 
ATOM      9  O   UNL     1      47.779   9.006  18.552  0.00  0.00    +0.000 OA
ATOM     10  N   UNL     1      49.525   7.682  17.906  0.00  0.00    +0.000 N 
ATOM     11  H   UNL     1      50.172   6.970  18.213  0.00  0.00    +0.000 HD
BRANCH   8  17
ATOM     12  C   UNL     1      47.812   7.401  21.077  0.00  0.00    +0.000 C 
ATOM     13  C   UNL     1      47.501   6.267  22.071  0.00  0.00    +0.000 C 
ATOM     14  C   UNL     1      48.510   5.119  22.013  0.00  0.00    +0.000 C 
ATOM     15  C   UNL     1      48.690   4.594  20.594  0.00  0.00    +0.000 C 
ATOM     16  C   UNL     1      49.040   5.714  19.619  0.00  0.00    +0.000 C 
ATOM     17  C   UNL     1      48.007   6.854  19.649  0.00  0.00    +0.000 C 
BRANCH  12  19
ATOM     18  N   UNL     1      49.908   8.785  21.883  0.00  0.00    +0.000 NA
ATOM     19  C   UNL     1      48.984   8.175  21.537  0.00  0.00    +0.000 C 
ENDBRANCH  12  19
ENDBRANCH   8  17
ENDBRANCH   7  10
ENDBRANCH   1   7
BRANCH   4  20
ATOM     20  C   UNL     1      47.807   7.704  11.568  0.00  0.00    +0.000 C 
BRANCH  20  21
ATOM     21  N   UNL     1      47.000   6.512  11.517  0.00  0.00    +0.000 N 
ATOM     22  C   UNL     1      45.634   6.537  11.565  0.00  0.00    +0.000 C 
ATOM     23  O   UNL     1      44.979   7.573  11.661  0.00  0.00    +0.000 OA
ATOM     24  H   UNL     1      47.448   5.649  11.805  0.00  0.00    +0.000 HD
BRANCH  22  25
ATOM     25  C   UNL     1      44.987   5.223  11.431  0.00  0.00    +0.000 A 
ATOM     26  C   UNL     1      44.257   4.691  12.484  0.00  0.00    +0.000 A 
ATOM     27  S   UNL     1      43.550   3.180  12.124  0.00  0.00    +0.000 S 
ATOM     28  C   UNL     1      44.230   3.166  10.562  0.00  0.00    +0.000 A 
ATOM     29  N   UNL     1      44.041   2.117   9.724  0.00  0.00    +0.000 NA
ATOM     30  C   UNL     1      44.641   2.233   8.575  0.00  0.00    +0.000 A 
ATOM     31  N   UNL     1      45.398   3.308   8.203  0.00  0.00    +0.000 N 
ATOM     32  C   UNL     1      45.558   4.421   8.993  0.00  0.00    +0.000 A 
ATOM     33  O   UNL     1      46.153   5.413   8.586  0.00  0.00    +0.000 OA
ATOM     34  C   UNL     1      44.954   4.317  10.307  0.00  0.00    +0.000 A 
ATOM     35  H   UNL     1      45.813   3.350   7.280  0.00  0.00    +0.000 HD
ENDBRANCH  22  25
ENDBRANCH  20  21
ENDBRANCH   4  20
TORSDOF 7
ENDMDL
MODEL 8
REMARK VINA RESULT:    -5.978      6.189      7.294
REMARK INTER + INTRA:          -9.833
REMARK INTER:                  -8.894
REMARK INTRA:                  -0.939
REMARK UNBOUND:                -1.409
REMARK  Name = 
REMARK  7 active torsions:
REMARK  status: ('A' for Active; 'I' for Inactive)
REMARK    1  A    between atoms: C_2  and  C_3
REMARK    2  A    between atoms: C_8  and  C_9
REMARK    3  A    between atoms: N_11  and  C_12
REMARK    4  A    between atoms: C_12  and  C_13
REMARK    5  A    between atoms: C_16  and  C_17
REMARK    6  A    between atoms: C_17  and  N_18
REMARK    7  A    between atoms: C_19  and  C_21
REMARK                            x       y       z     vdW  Elec       q    Type
REMARK                         _______ _______ _______ _____ _____    ______ ____
ROOT
ATOM      1  C   UNL     1      48.954   7.621  12.939  0.00  0.00    +0.000 A 
ATOM      2  C   UNL     1      49.793   8.446  13.694  0.00  0.00    +0.000 A 
ATOM      3  C   UNL     1      50.942   9.017  13.130  0.00  0.00    +0.000 A 
ATOM      4  C   UNL     1      51.299   8.766  11.796  0.00  0.00    +0.000 A 
ATOM      5  C   UNL     1      50.486   7.895  11.059  0.00  0.00    +0.000 A 
ATOM      6  C   UNL     1      49.322   7.341  11.617  0.00  0.00    +0.000 A 
ENDROOT
BRANCH   1   7
ATOM      7  C   UNL     1      47.708   7.025  13.545  0.00  0.00    +0.000 C 
BRANCH   7  10
ATOM      8  C   UNL     1      45.626   6.644  12.317  0.00  0.00    +0.000 C 
ATOM      9  O   UNL     1      45.096   7.611  12.851  0.00  0.00    +0.000 OA
ATOM     10  N   UNL     1      46.919   6.259  12.597  0.00  0.00    +0.000 N 
ATOM     11  H   UNL     1      47.221   5.320  12.382  0.00  0.00    +0.000 HD
BRANCH   8  17
ATOM     12  C   UNL     1      44.353   4.465  11.944  0.00  0.00    +0.000 C 
ATOM     13  C   UNL     1      43.701   3.549  10.892  0.00  0.00    +0.000 C 
ATOM     14  C   UNL     1      44.605   3.272   9.689  0.00  0.00    +0.000 C 
ATOM     15  C   UNL     1      45.134   4.560   9.069  0.00  0.00    +0.000 C 
ATOM     16  C   UNL     1      45.816   5.445  10.106  0.00  0.00    +0.000 C 
ATOM     17  C   UNL     1      44.897   5.756  11.300  0.00  0.00    +0.000 C 
BRANCH  12  19
ATOM     18  N   UNL     1      46.232   3.165  13.263  0.00  0.00    +0.000 NA
ATOM     19  C   UNL     1      45.403   3.729  12.680  0.00  0.00    +0.000 C 
ENDBRANCH  12  19
ENDBRANCH   8  17
ENDBRANCH   7  10
ENDBRANCH   1   7
BRANCH   4  20
ATOM     20  C   UNL     1      52.515   9.399  11.150  0.00  0.00    +0.000 C 
BRANCH  20  21
ATOM     21  N   UNL     1      52.780   8.904   9.823  0.00  0.00    +0.000 N 
ATOM     22  C   UNL     1      53.989   8.385   9.452  0.00  0.00    +0.000 C 
ATOM     23  O   UNL     1      54.952   8.304  10.211  0.00  0.00    +0.000 OA
ATOM     24  H   UNL     1      52.193   9.265   9.079  0.00  0.00    +0.000 HD
BRANCH  22  25
ATOM     25  C   UNL     1      54.043   7.870   8.075  0.00  0.00    +0.000 A 
ATOM     26  C   UNL     1      54.136   8.744   7.002  0.00  0.00    +0.000 A 
ATOM     27  S   UNL     1      54.228   7.955   5.491  0.00  0.00    +0.000 S 
ATOM     28  C   UNL     1      54.107   6.419   6.217  0.00  0.00    +0.000 A 
ATOM     29  N   UNL     1      54.090   5.289   5.469  0.00  0.00    +0.000 NA
ATOM     30  C   UNL     1      53.967   4.191   6.157  0.00  0.00    +0.000 A 
ATOM     31  N   UNL     1      53.871   4.139   7.518  0.00  0.00    +0.000 N 
ATOM     32  C   UNL     1      53.954   5.253   8.319  0.00  0.00    +0.000 A 
ATOM     33  O   UNL     1      53.975   5.161   9.542  0.00  0.00    +0.000 OA
ATOM     34  C   UNL     1      54.036   6.508   7.597  0.00  0.00    +0.000 A 
ATOM     35  H   UNL     1      53.809   3.248   7.996  0.00  0.00    +0.000 HD
ENDBRANCH  22  25
ENDBRANCH  20  21
ENDBRANCH   4  20
TORSDOF 7
ENDMDL
MODEL 9
REMARK VINA RESULT:    -5.942      2.116      2.845
REMARK INTER + INTRA:          -9.783
REMARK INTER:                  -8.631
REMARK INTRA:                  -1.152
REMARK UNBOUND:                -1.409
REMARK  Name = 
REMARK  7 active torsions:
REMARK  status: ('A' for Active; 'I' for Inactive)
REMARK    1  A    between atoms: C_2  and  C_3
REMARK    2  A    between atoms: C_8  and  C_9
REMARK    3  A    between atoms: N_11  and  C_12
REMARK    4  A    between atoms: C_12  and  C_13
REMARK    5  A    between atoms: C_16  and  C_17
REMARK    6  A    between atoms: C_17  and  N_18
REMARK    7  A    between atoms: C_19  and  C_21
REMARK                            x       y       z     vdW  Elec       q    Type
REMARK                         _______ _______ _______ _____ _____    ______ ____
ROOT
ATOM      1  C   UNL     1      47.224   7.705  12.547  0.00  0.00    +0.000 A 
ATOM      2  C   UNL     1      48.165   8.411  11.792  0.00  0.00    +0.000 A 
ATOM      3  C   UNL     1      49.488   8.550  12.235  0.00  0.00    +0.000 A 
ATOM      4  C   UNL     1      49.907   8.003  13.458  0.00  0.00    +0.000 A 
ATOM      5  C   UNL     1      48.947   7.344  14.237  0.00  0.00    +0.000 A 
ATOM      6  C   UNL     1      47.628   7.183  13.783  0.00  0.00    +0.000 A 
ENDROOT
BRANCH   1   7
ATOM      7  C   UNL     1      45.807   7.541  12.057  0.00  0.00    +0.000 C 
BRANCH   7  10
ATOM      8  C   UNL     1      44.364   5.907  10.945  0.00  0.00    +0.000 C 
ATOM      9  O   UNL     1      43.363   6.396  11.453  0.00  0.00    +0.000 OA
ATOM     10  N   UNL     1      45.631   6.394  11.185  0.00  0.00    +0.000 N 
ATOM     11  H   UNL     1      46.436   5.811  11.005  0.00  0.00    +0.000 HD
BRANCH   8  17
ATOM     12  C   UNL     1      44.095   3.375  10.780  0.00  0.00    +0.000 C 
ATOM     13  C   UNL     1      44.129   2.162   9.832  0.00  0.00    +0.000 C 
ATOM     14  C   UNL     1      45.371   2.127   8.940  0.00  0.00    +0.000 C 
ATOM     15  C   UNL     1      45.567   3.438   8.189  0.00  0.00    +0.000 C 
ATOM     16  C   UNL     1      45.575   4.634   9.135  0.00  0.00    +0.000 C 
ATOM     17  C   UNL     1      44.310   4.692  10.009  0.00  0.00    +0.000 C 
BRANCH  12  19
ATOM     18  N   UNL     1      45.859   3.053  12.715  0.00  0.00    +0.000 NA
ATOM     19  C   UNL     1      45.085   3.203  11.864  0.00  0.00    +0.000 C 
ENDBRANCH  12  19
ENDBRANCH   8  17
ENDBRANCH   7  10
ENDBRANCH   1   7
BRANCH   4  20
ATOM     20  C   UNL     1      51.339   8.105  13.943  0.00  0.00    +0.000 C 
BRANCH  20  21
ATOM     21  N   UNL     1      51.494   7.782  15.338  0.00  0.00    +0.000 N 
ATOM     22  C   UNL     1      52.635   7.228  15.850  0.00  0.00    +0.000 C 
ATOM     23  O   UNL     1      53.618   6.952  15.166  0.00  0.00    +0.000 OA
ATOM     24  H   UNL     1      50.641   7.635  15.867  0.00  0.00    +0.000 HD
BRANCH  22  25
ATOM     25  C   UNL     1      52.626   7.034  17.308  0.00  0.00    +0.000 A 
ATOM     26  C   UNL     1      53.539   7.704  18.109  0.00  0.00    +0.000 A 
ATOM     27  S   UNL     1      53.344   7.381  19.774  0.00  0.00    +0.000 S 
ATOM     28  C   UNL     1      52.059   6.304  19.477  0.00  0.00    +0.000 A 
ATOM     29  N   UNL     1      51.450   5.641  20.491  0.00  0.00    +0.000 NA
ATOM     30  C   UNL     1      50.503   4.833  20.113  0.00  0.00    +0.000 A 
ATOM     31  N   UNL     1      50.118   4.647  18.815  0.00  0.00    +0.000 N 
ATOM     32  C   UNL     1      50.660   5.348  17.765  0.00  0.00    +0.000 A 
ATOM     33  O   UNL     1      50.217   5.237  16.626  0.00  0.00    +0.000 OA
ATOM     34  C   UNL     1      51.759   6.222  18.128  0.00  0.00    +0.000 A 
ATOM     35  H   UNL     1      49.351   4.025  18.590  0.00  0.00    +0.000 HD
ENDBRANCH  22  25
ENDBRANCH  20  21
ENDBRANCH   4  20
TORSDOF 7
ENDMDL
