MODEL 1
REMARK VINA RESULT:    -8.774      0.000      0.000
REMARK INTER + INTRA:         -12.295
REMARK INTER:                 -11.339
REMARK INTRA:                  -0.956
REMARK UNBOUND:                -0.956
REMARK  Name = 
REMARK  6 active torsions:
REMARK  status: ('A' for Active; 'I' for Inactive)
REMARK    1  A    between atoms: C_1  and  C_2
REMARK    2  A    between atoms: C_2  and  N_3
REMARK    3  A    between atoms: C_2  and  C_16
REMARK    4  A    between atoms: C_4  and  C_6
REMARK    5  A    between atoms: C_19  and  C_20
REMARK    6  A    between atoms: C_20  and  C_21
REMARK                            x       y       z     vdW  Elec       q    Type
REMARK                         _______ _______ _______ _____ _____    ______ ____
ROOT
ATOM      1  C   UNL     1      45.459   8.662  12.908  0.00  0.00    +0.000 C 
ATOM      2  C   UNL     1      46.562   7.606  12.767  0.00  0.00    +0.000 C 
ENDROOT
BRANCH   2   3
ATOM      3  C   UNL     1      46.023   6.462  11.915  0.00  0.00    +0.000 A 
ATOM      4  C   UNL     1      46.361   6.392  10.554  0.00  0.00    +0.000 A 
ATOM      5  C   UNL     1      45.816   5.399   9.734  0.00  0.00    +0.000 A 
ATOM      6  C   UNL     1      44.921   4.453  10.251  0.00  0.00    +0.000 A 
ATOM      7  C   UNL     1      44.588   4.518  11.610  0.00  0.00    +0.000 A 
ATOM      8  C   UNL     1      45.120   5.518  12.426  0.00  0.00    +0.000 A 
BRANCH   6   9
ATOM      9  C   UNL     1      44.340   3.368   9.372  0.00  0.00    +0.000 C 
BRANCH   9  10
ATOM     10  C   UNL     1      45.338   2.795   8.393  0.00  0.00    +0.000 A 
ATOM     11  C   UNL     1      45.826   1.491   8.556  0.00  0.00    +0.000 A 
ATOM     12  C   UNL     1      46.807   0.988   7.700  0.00  0.00    +0.000 A 
ATOM     13  C   UNL     1      47.304   1.781   6.667  0.00  0.00    +0.000 A 
ATOM     14  C   UNL     1      46.810   3.071   6.480  0.00  0.00    +0.000 A 
ATOM     15  C   UNL     1      45.833   3.576   7.339  0.00  0.00    +0.000 A 
ENDBRANCH   9  10
ENDBRANCH   6   9
ENDBRANCH   2   3
BRANCH   2  16
ATOM     16  N   UNL     1      47.054   7.129  14.054  0.00  0.00    +0.000 N 
ATOM     17  C   UNL     1      48.351   6.715  14.229  0.00  0.00    +0.000 C 
ATOM     18  O   UNL     1      49.184   6.754  13.330  0.00  0.00    +0.000 OA
ATOM     19  H   UNL     1      46.355   6.762  14.698  0.00  0.00    +0.000 HD
BRANCH  17  20
ATOM     20  C   UNL     1      48.730   6.272  15.574  0.00  0.00    +0.000 A 
ATOM     21  C   UNL     1      49.706   6.972  16.270  0.00  0.00    +0.000 A 
ATOM     22  S   UNL     1      50.069   6.307  17.796  0.00  0.00    +0.000 S 
ATOM     23  C   UNL     1      48.955   5.042  17.565  0.00  0.00    +0.000 A 
ATOM     24  N   UNL     1      48.815   4.058  18.494  0.00  0.00    +0.000 NA
ATOM     25  C   UNL     1      47.959   3.146  18.176  0.00  0.00    +0.000 A 
ATOM     26  N   UNL     1      47.214   3.139  17.023  0.00  0.00    +0.000 N 
ATOM     27  C   UNL     1      47.284   4.139  16.081  0.00  0.00    +0.000 A 
ATOM     28  O   UNL     1      46.545   4.160  15.106  0.00  0.00    +0.000 OA
ATOM     29  C   UNL     1      48.277   5.156  16.365  0.00  0.00    +0.000 A 
ATOM     30  H   UNL     1      46.538   2.410  16.851  0.00  0.00    +0.000 HD
ENDBRANCH  17  20
ENDBRANCH   2  16
TORSDOF 5
ENDMDL
MODEL 2
REMARK VINA RESULT:    -8.016      2.723      4.134
REMARK INTER + INTRA:         -11.315
REMARK INTER:                 -10.064
REMARK INTRA:                  -1.251
REMARK UNBOUND:                -0.956
REMARK  Name = 
REMARK  6 active torsions:
REMARK  status: ('A' for Active; 'I' for Inactive)
REMARK    1  A    between atoms: C_1  and  C_2
REMARK    2  A    between atoms: C_2  and  N_3
REMARK    3  A    between atoms: C_2  and  C_16
REMARK    4  A    between atoms: C_4  and  C_6
REMARK    5  A    between atoms: C_19  and  C_20
REMARK    6  A    between atoms: C_20  and  C_21
REMARK                            x       y       z     vdW  Elec       q    Type
REMARK                         _______ _______ _______ _____ _____    ______ ____
ROOT
ATOM      1  C   UNL     1      46.551   4.641  14.425  0.00  0.00    +0.000 C 
ATOM      2  C   UNL     1      46.238   5.789  13.459  0.00  0.00    +0.000 C 
ENDROOT
BRANCH   2   3
ATOM      3  C   UNL     1      45.752   5.189  12.144  0.00  0.00    +0.000 A 
ATOM      4  C   UNL     1      45.224   3.887  12.129  0.00  0.00    +0.000 A 
ATOM      5  C   UNL     1      44.847   3.285  10.924  0.00  0.00    +0.000 A 
ATOM      6  C   UNL     1      44.987   3.965   9.708  0.00  0.00    +0.000 A 
ATOM      7  C   UNL     1      45.507   5.266   9.722  0.00  0.00    +0.000 A 
ATOM      8  C   UNL     1      45.898   5.862  10.922  0.00  0.00    +0.000 A 
BRANCH   6   9
ATOM      9  C   UNL     1      44.566   3.323   8.404  0.00  0.00    +0.000 C 
BRANCH   9  10
ATOM     10  C   UNL     1      45.714   2.684   7.657  0.00  0.00    +0.000 A 
ATOM     11  C   UNL     1      46.253   3.301   6.519  0.00  0.00    +0.000 A 
ATOM     12  C   UNL     1      47.259   2.674   5.782  0.00  0.00    +0.000 A 
ATOM     13  C   UNL     1      47.742   1.429   6.179  0.00  0.00    +0.000 A 
ATOM     14  C   UNL     1      47.230   0.816   7.322  0.00  0.00    +0.000 A 
ATOM     15  C   UNL     1      46.220   1.440   8.057  0.00  0.00    +0.000 A 
ENDBRANCH   9  10
ENDBRANCH   6   9
ENDBRANCH   2   3
BRANCH   2  16
ATOM     16  N   UNL     1      47.374   6.678  13.254  0.00  0.00    +0.000 N 
ATOM     17  C   UNL     1      47.245   8.045  13.292  0.00  0.00    +0.000 C 
ATOM     18  O   UNL     1      46.180   8.601  13.536  0.00  0.00    +0.000 OA
ATOM     19  H   UNL     1      48.158   6.298  12.726  0.00  0.00    +0.000 HD
BRANCH  17  20
ATOM     20  C   UNL     1      48.464   8.832  13.086  0.00  0.00    +0.000 A 
ATOM     21  C   UNL     1      48.413   9.965  12.283  0.00  0.00    +0.000 A 
ATOM     22  S   UNL     1      49.918  10.744  12.104  0.00  0.00    +0.000 S 
ATOM     23  C   UNL     1      50.695   9.576  13.068  0.00  0.00    +0.000 A 
ATOM     24  N   UNL     1      52.040   9.620  13.268  0.00  0.00    +0.000 NA
ATOM     25  C   UNL     1      52.499   8.655  13.992  0.00  0.00    +0.000 A 
ATOM     26  N   UNL     1      51.735   7.663  14.551  0.00  0.00    +0.000 N 
ATOM     27  C   UNL     1      50.367   7.608  14.419  0.00  0.00    +0.000 A 
ATOM     28  O   UNL     1      49.694   6.767  15.002  0.00  0.00    +0.000 OA
ATOM     29  C   UNL     1      49.809   8.637  13.563  0.00  0.00    +0.000 A 
ATOM     30  H   UNL     1      52.156   6.954  15.134  0.00  0.00    +0.000 HD
ENDBRANCH  17  20
ENDBRANCH   2  16
TORSDOF 5
ENDMDL
MODEL 3
REMARK VINA RESULT:    -7.919      1.708      2.188
REMARK INTER + INTRA:         -11.190
REMARK INTER:                 -10.091
REMARK INTRA:                  -1.099
REMARK UNBOUND:                -0.956
REMARK  Name = 
REMARK  6 active torsions:
REMARK  status: ('A' for Active; 'I' for Inactive)
REMARK    1  A    between atoms: C_1  and  C_2
REMARK    2  A    between atoms: C_2  and  N_3
REMARK    3  A    between atoms: C_2  and  C_16
REMARK    4  A    between atoms: C_4  and  C_6
REMARK    5  A    between atoms: C_19  and  C_20
REMARK    6  A    between atoms: C_20  and  C_21
REMARK                            x       y       z     vdW  Elec       q    Type
REMARK                         _______ _______ _______ _____ _____    ______ ____
ROOT
ATOM      1  C   UNL     1      46.525   8.375  13.336  0.00  0.00    +0.000 C 
ATOM      2  C   UNL     1      47.249   7.025  13.276  0.00  0.00    +0.000 C 
ENDROOT
BRANCH   2   3
ATOM      3  C   UNL     1      46.556   6.156  12.232  0.00  0.00    +0.000 A 
ATOM      4  C   UNL     1      46.539   6.567  10.889  0.00  0.00    +0.000 A 
ATOM      5  C   UNL     1      45.841   5.829   9.927  0.00  0.00    +0.000 A 
ATOM      6  C   UNL     1      45.146   4.666  10.281  0.00  0.00    +0.000 A 
ATOM      7  C   UNL     1      45.168   4.251  11.619  0.00  0.00    +0.000 A 
ATOM      8  C   UNL     1      45.851   4.995  12.583  0.00  0.00    +0.000 A 
BRANCH   6   9
ATOM      9  C   UNL     1      44.402   3.856   9.241  0.00  0.00    +0.000 C 
BRANCH   9  10
ATOM     10  C   UNL     1      45.315   3.052   8.346  0.00  0.00    +0.000 A 
ATOM     11  C   UNL     1      45.626   1.721   8.659  0.00  0.00    +0.000 A 
ATOM     12  C   UNL     1      46.532   1.001   7.878  0.00  0.00    +0.000 A 
ATOM     13  C   UNL     1      47.129   1.602   6.772  0.00  0.00    +0.000 A 
ATOM     14  C   UNL     1      46.810   2.917   6.437  0.00  0.00    +0.000 A 
ATOM     15  C   UNL     1      45.909   3.639   7.220  0.00  0.00    +0.000 A 
ENDBRANCH   9  10
ENDBRANCH   6   9
ENDBRANCH   2   3
BRANCH   2  16
ATOM     16  N   UNL     1      47.310   6.359  14.571  0.00  0.00    +0.000 N 
ATOM     17  C   UNL     1      48.496   6.163  15.234  0.00  0.00    +0.000 C 
ATOM     18  O   UNL     1      49.570   6.565  14.800  0.00  0.00    +0.000 OA
ATOM     19  H   UNL     1      46.541   5.729  14.793  0.00  0.00    +0.000 HD
BRANCH  17  20
ATOM     20  C   UNL     1      48.425   5.495  16.537  0.00  0.00    +0.000 A 
ATOM     21  C   UNL     1      48.305   4.112  16.585  0.00  0.00    +0.000 A 
ATOM     22  S   UNL     1      48.188   3.491  18.167  0.00  0.00    +0.000 S 
ATOM     23  C   UNL     1      48.263   5.052  18.841  0.00  0.00    +0.000 A 
ATOM     24  N   UNL     1      48.149   5.238  20.183  0.00  0.00    +0.000 NA
ATOM     25  C   UNL     1      48.192   6.475  20.552  0.00  0.00    +0.000 A 
ATOM     26  N   UNL     1      48.360   7.540  19.704  0.00  0.00    +0.000 N 
ATOM     27  C   UNL     1      48.531   7.396  18.346  0.00  0.00    +0.000 A 
ATOM     28  O   UNL     1      48.771   8.351  17.620  0.00  0.00    +0.000 OA
ATOM     29  C   UNL     1      48.430   6.028  17.875  0.00  0.00    +0.000 A 
ATOM     30  H   UNL     1      48.415   8.482  20.063  0.00  0.00    +0.000 HD
ENDBRANCH  17  20
ENDBRANCH   2  16
TORSDOF 5
ENDMDL
MODEL 4
REMARK VINA RESULT:    -7.788      2.076      2.801
REMARK INTER + INTRA:         -11.021
REMARK INTER:                  -9.986
REMARK INTRA:                  -1.035
REMARK UNBOUND:                -0.956
REMARK  Name = 
REMARK  6 active torsions:
REMARK  status: ('A' for Active; 'I' for Inactive)
REMARK    1  A    between atoms: C_1  and  C_2
REMARK    2  A    between atoms: C_2  and  N_3
REMARK    3  A    between atoms: C_2  and  C_16
REMARK    4  A    between atoms: C_4  and  C_6
REMARK    5  A    between atoms: C_19  and  C_20
REMARK    6  A    between atoms: C_20  and  C_21
REMARK                            x       y       z     vdW  Elec       q    Type
REMARK                         _______ _______ _______ _____ _____    ______ ____
ROOT
ATOM      1  C   UNL     1      49.341   8.221  13.522  0.00  0.00    +0.000 C 
ATOM      2  C   UNL     1      48.830   6.915  14.142  0.00  0.00    +0.000 C 
ENDROOT
BRANCH   2   3
ATOM      3  C   UNL     1      47.668   6.406  13.295  0.00  0.00    +0.000 A 
ATOM      4  C   UNL     1      47.020   5.213  13.653  0.00  0.00    +0.000 A 
ATOM      5  C   UNL     1      46.006   4.683  12.849  0.00  0.00    +0.000 A 
ATOM      6  C   UNL     1      45.613   5.332  11.671  0.00  0.00    +0.000 A 
ATOM      7  C   UNL     1      46.254   6.526  11.316  0.00  0.00    +0.000 A 
ATOM      8  C   UNL     1      47.277   7.047  12.110  0.00  0.00    +0.000 A 
BRANCH   6   9
ATOM      9  C   UNL     1      44.506   4.771  10.805  0.00  0.00    +0.000 C 
BRANCH   9  10
ATOM     10  C   UNL     1      45.013   3.905   9.676  0.00  0.00    +0.000 A 
ATOM     11  C   UNL     1      44.911   2.509   9.749  0.00  0.00    +0.000 A 
ATOM     12  C   UNL     1      45.450   1.704   8.744  0.00  0.00    +0.000 A 
ATOM     13  C   UNL     1      46.088   2.288   7.651  0.00  0.00    +0.000 A 
ATOM     14  C   UNL     1      46.175   3.676   7.555  0.00  0.00    +0.000 A 
ATOM     15  C   UNL     1      45.641   4.481   8.562  0.00  0.00    +0.000 A 
ENDBRANCH   9  10
ENDBRANCH   6   9
ENDBRANCH   2   3
BRANCH   2  16
ATOM     16  N   UNL     1      48.447   7.066  15.540  0.00  0.00    +0.000 N 
ATOM     17  C   UNL     1      49.240   6.613  16.565  0.00  0.00    +0.000 C 
ATOM     18  O   UNL     1      50.332   6.089  16.373  0.00  0.00    +0.000 OA
ATOM     19  H   UNL     1      47.451   7.165  15.729  0.00  0.00    +0.000 HD
BRANCH  17  20
ATOM     20  C   UNL     1      48.754   6.837  17.930  0.00  0.00    +0.000 A 
ATOM     21  C   UNL     1      48.424   8.126  18.329  0.00  0.00    +0.000 A 
ATOM     22  S   UNL     1      47.921   8.230  19.954  0.00  0.00    +0.000 S 
ATOM     23  C   UNL     1      48.157   6.561  20.187  0.00  0.00    +0.000 A 
ATOM     24  N   UNL     1      47.964   5.993  21.408  0.00  0.00    +0.000 NA
ATOM     25  C   UNL     1      48.211   4.726  21.448  0.00  0.00    +0.000 A 
ATOM     26  N   UNL     1      48.611   3.972  20.375  0.00  0.00    +0.000 N 
ATOM     27  C   UNL     1      48.768   4.492  19.111  0.00  0.00    +0.000 A 
ATOM     28  O   UNL     1      49.036   3.784  18.150  0.00  0.00    +0.000 OA
ATOM     29  C   UNL     1      48.561   5.925  19.027  0.00  0.00    +0.000 A 
ATOM     30  H   UNL     1      48.756   2.977  20.469  0.00  0.00    +0.000 HD
ENDBRANCH  17  20
ENDBRANCH   2  16
TORSDOF 5
ENDMDL
MODEL 5
REMARK VINA RESULT:    -7.787      4.052      9.578
REMARK INTER + INTRA:         -11.020
REMARK INTER:                  -9.607
REMARK INTRA:                  -1.413
REMARK UNBOUND:                -0.956
REMARK  Name = 
REMARK  6 active torsions:
REMARK  status: ('A' for Active; 'I' for Inactive)
REMARK    1  A    between atoms: C_1  and  C_2
REMARK    2  A    between atoms: C_2  and  N_3
REMARK    3  A    between atoms: C_2  and  C_16
REMARK    4  A    between atoms: C_4  and  C_6
REMARK    5  A    between atoms: C_19  and  C_20
REMARK    6  A    between atoms: C_20  and  C_21
REMARK                            x       y       z     vdW  Elec       q    Type
REMARK                         _______ _______ _______ _____ _____    ______ ____
ROOT
ATOM      1  C   UNL     1      47.677   3.081  16.788  0.00  0.00    +0.000 C 
ATOM      2  C   UNL     1      47.988   4.479  16.240  0.00  0.00    +0.000 C 
ENDROOT
BRANCH   2   3
ATOM      3  C   UNL     1      48.061   5.448  17.415  0.00  0.00    +0.000 A 
ATOM      4  C   UNL     1      49.061   6.435  17.440  0.00  0.00    +0.000 A 
ATOM      5  C   UNL     1      49.199   7.283  18.543  0.00  0.00    +0.000 A 
ATOM      6  C   UNL     1      48.343   7.169  19.646  0.00  0.00    +0.000 A 
ATOM      7  C   UNL     1      47.341   6.190  19.620  0.00  0.00    +0.000 A 
ATOM      8  C   UNL     1      47.213   5.333  18.526  0.00  0.00    +0.000 A 
BRANCH   6   9
ATOM      9  C   UNL     1      48.479   8.094  20.836  0.00  0.00    +0.000 C 
BRANCH   9  10
ATOM     10  C   UNL     1      47.346   9.087  20.950  0.00  0.00    +0.000 A 
ATOM     11  C   UNL     1      47.009   9.910  19.866  0.00  0.00    +0.000 A 
ATOM     12  C   UNL     1      46.016  10.883  19.995  0.00  0.00    +0.000 A 
ATOM     13  C   UNL     1      45.345  11.037  21.207  0.00  0.00    +0.000 A 
ATOM     14  C   UNL     1      45.655  10.210  22.285  0.00  0.00    +0.000 A 
ATOM     15  C   UNL     1      46.651   9.240  22.158  0.00  0.00    +0.000 A 
ENDBRANCH   9  10
ENDBRANCH   6   9
ENDBRANCH   2   3
BRANCH   2  16
ATOM     16  N   UNL     1      47.022   4.921  15.242  0.00  0.00    +0.000 N 
ATOM     17  C   UNL     1      47.399   5.629  14.128  0.00  0.00    +0.000 C 
ATOM     18  O   UNL     1      48.569   5.903  13.884  0.00  0.00    +0.000 OA
ATOM     19  H   UNL     1      46.059   5.025  15.557  0.00  0.00    +0.000 HD
BRANCH  17  20
ATOM     20  C   UNL     1      46.338   6.004  13.189  0.00  0.00    +0.000 A 
ATOM     21  C   UNL     1      46.146   7.344  12.880  0.00  0.00    +0.000 A 
ATOM     22  S   UNL     1      44.847   7.621  11.813  0.00  0.00    +0.000 S 
ATOM     23  C   UNL     1      44.477   5.961  11.751  0.00  0.00    +0.000 A 
ATOM     24  N   UNL     1      43.404   5.512  11.046  0.00  0.00    +0.000 NA
ATOM     25  C   UNL     1      43.224   4.235  11.113  0.00  0.00    +0.000 A 
ATOM     26  N   UNL     1      44.030   3.365  11.803  0.00  0.00    +0.000 N 
ATOM     27  C   UNL     1      45.154   3.768  12.486  0.00  0.00    +0.000 A 
ATOM     28  O   UNL     1      45.910   2.964  13.016  0.00  0.00    +0.000 OA
ATOM     29  C   UNL     1      45.366   5.202  12.491  0.00  0.00    +0.000 A 
ATOM     30  H   UNL     1      43.849   2.372  11.787  0.00  0.00    +0.000 HD
ENDBRANCH  17  20
ENDBRANCH   2  16
TORSDOF 5
ENDMDL
MODEL 6
REMARK VINA RESULT:    -7.595      3.365      7.962
REMARK INTER + INTRA:         -10.772
REMARK INTER:                  -9.426
REMARK INTRA:                  -1.345
REMARK UNBOUND:                -0.956
REMARK  Name = 
REMARK  6 active torsions:
REMARK  status: ('A' for Active; 'I' for Inactive)
REMARK    1  A    between atoms: C_1  and  C_2
REMARK    2  A    between atoms: C_2  and  N_3
REMARK    3  A    between atoms: C_2  and  C_16
REMARK    4  A    between atoms: C_4  and  C_6
REMARK    5  A    between atoms: C_19  and  C_20
REMARK    6  A    between atoms: C_20  and  C_21
REMARK                            x       y       z     vdW  Elec       q    Type
REMARK                         _______ _______ _______ _____ _____    ______ ____
ROOT
ATOM      1  C   UNL     1      49.613   7.778  12.556  0.00  0.00    +0.000 C 
ATOM      2  C   UNL     1      48.353   7.301  13.288  0.00  0.00    +0.000 C 
ENDROOT
BRANCH   2   3
ATOM      3  C   UNL     1      48.771   6.735  14.641  0.00  0.00    +0.000 A 
ATOM      4  C   UNL     1      50.016   7.089  15.186  0.00  0.00    +0.000 A 
ATOM      5  C   UNL     1      50.456   6.522  16.386  0.00  0.00    +0.000 A 
ATOM      6  C   UNL     1      49.666   5.591  17.071  0.00  0.00    +0.000 A 
ATOM      7  C   UNL     1      48.420   5.242  16.533  0.00  0.00    +0.000 A 
ATOM      8  C   UNL     1      47.987   5.796  15.327  0.00  0.00    +0.000 A 
BRANCH   6   9
ATOM      9  C   UNL     1      50.131   4.985  18.377  0.00  0.00    +0.000 C 
BRANCH   9  10
ATOM     10  C   UNL     1      51.021   3.779  18.192  0.00  0.00    +0.000 A 
ATOM     11  C   UNL     1      52.361   3.812  18.605  0.00  0.00    +0.000 A 
ATOM     12  C   UNL     1      53.205   2.728  18.362  0.00  0.00    +0.000 A 
ATOM     13  C   UNL     1      52.717   1.596  17.712  0.00  0.00    +0.000 A 
ATOM     14  C   UNL     1      51.382   1.541  17.318  0.00  0.00    +0.000 A 
ATOM     15  C   UNL     1      50.537   2.627  17.555  0.00  0.00    +0.000 A 
ENDBRANCH   9  10
ENDBRANCH   6   9
ENDBRANCH   2   3
BRANCH   2  16
ATOM     16  N   UNL     1      47.586   6.330  12.516  0.00  0.00    +0.000 N 
ATOM     17  C   UNL     1      46.480   6.690  11.788  0.00  0.00    +0.000 C 
ATOM     18  O   UNL     1      46.089   7.850  11.709  0.00  0.00    +0.000 OA
ATOM     19  H   UNL     1      47.652   5.359  12.816  0.00  0.00    +0.000 HD
BRANCH  17  20
ATOM     20  C   UNL     1      45.802   5.626  11.041  0.00  0.00    +0.000 A 
ATOM     21  C   UNL     1      45.845   5.637   9.653  0.00  0.00    +0.000 A 
ATOM     22  S   UNL     1      44.973   4.365   8.931  0.00  0.00    +0.000 S 
ATOM     23  C   UNL     1      44.482   3.772  10.449  0.00  0.00    +0.000 A 
ATOM     24  N   UNL     1      43.642   2.707  10.543  0.00  0.00    +0.000 NA
ATOM     25  C   UNL     1      43.328   2.385  11.754  0.00  0.00    +0.000 A 
ATOM     26  N   UNL     1      43.794   3.018  12.878  0.00  0.00    +0.000 N 
ATOM     27  C   UNL     1      44.685   4.065  12.833  0.00  0.00    +0.000 A 
ATOM     28  O   UNL     1      45.158   4.555  13.850  0.00  0.00    +0.000 OA
ATOM     29  C   UNL     1      45.021   4.503  11.492  0.00  0.00    +0.000 A 
ATOM     30  H   UNL     1      43.531   2.695  13.798  0.00  0.00    +0.000 HD
ENDBRANCH  17  20
ENDBRANCH   2  16
TORSDOF 5
ENDMDL
MODEL 7
REMARK VINA RESULT:    -7.482      2.475      3.261
REMARK INTER + INTRA:         -10.625
REMARK INTER:                  -9.352
REMARK INTRA:                  -1.273
REMARK UNBOUND:                -0.956
REMARK  Name = 
REMARK  6 active torsions:
REMARK  status: ('A' for Active; 'I' for Inactive)
REMARK    1  A    between atoms: C_1  and  C_2
REMARK    2  A    between atoms: C_2  and  N_3
REMARK    3  A    between atoms: C_2  and  C_16
REMARK    4  A    between atoms: C_4  and  C_6
REMARK    5  A    between atoms: C_19  and  C_20
REMARK    6  A    between atoms: C_20  and  C_21
REMARK                            x       y       z     vdW  Elec       q    Type
REMARK                         _______ _______ _______ _____ _____    ______ ____
ROOT
ATOM      1  C   UNL     1      48.951   8.422  13.958  0.00  0.00    +0.000 C 
ATOM      2  C   UNL     1      48.807   6.939  14.318  0.00  0.00    +0.000 C 
ENDROOT
BRANCH   2   3
ATOM      3  C   UNL     1      47.726   6.333  13.429  0.00  0.00    +0.000 A 
ATOM      4  C   UNL     1      47.367   6.982  12.236  0.00  0.00    +0.000 A 
ATOM      5  C   UNL     1      46.324   6.491  11.444  0.00  0.00    +0.000 A 
ATOM      6  C   UNL     1      45.617   5.342  11.821  0.00  0.00    +0.000 A 
ATOM      7  C   UNL     1      45.979   4.690  13.007  0.00  0.00    +0.000 A 
ATOM      8  C   UNL     1      47.009   5.188  13.806  0.00  0.00    +0.000 A 
BRANCH   6   9
ATOM      9  C   UNL     1      44.498   4.798  10.960  0.00  0.00    +0.000 C 
BRANCH   9  10
ATOM     10  C   UNL     1      44.990   3.978   9.790  0.00  0.00    +0.000 A 
ATOM     11  C   UNL     1      44.915   2.578   9.821  0.00  0.00    +0.000 A 
ATOM     12  C   UNL     1      45.441   1.816   8.777  0.00  0.00    +0.000 A 
ATOM     13  C   UNL     1      46.041   2.446   7.688  0.00  0.00    +0.000 A 
ATOM     14  C   UNL     1      46.102   3.837   7.635  0.00  0.00    +0.000 A 
ATOM     15  C   UNL     1      45.580   4.600   8.681  0.00  0.00    +0.000 A 
ENDBRANCH   9  10
ENDBRANCH   6   9
ENDBRANCH   2   3
BRANCH   2  16
ATOM     16  N   UNL     1      48.516   6.727  15.731  0.00  0.00    +0.000 N 
ATOM     17  C   UNL     1      49.461   6.247  16.604  0.00  0.00    +0.000 C 
ATOM     18  O   UNL     1      50.613   6.002  16.262  0.00  0.00    +0.000 OA
ATOM     19  H   UNL     1      47.538   6.584  15.976  0.00  0.00    +0.000 HD
BRANCH  17  20
ATOM     20  C   UNL     1      49.054   6.092  18.004  0.00  0.00    +0.000 A 
ATOM     21  C   UNL     1      49.188   4.853  18.616  0.00  0.00    +0.000 A 
ATOM     22  S   UNL     1      48.628   4.821  20.225  0.00  0.00    +0.000 S 
ATOM     23  C   UNL     1      48.159   6.455  20.148  0.00  0.00    +0.000 A 
ATOM     24  N   UNL     1      47.535   7.052  21.199  0.00  0.00    +0.000 NA
ATOM     25  C   UNL     1      47.208   8.283  20.991  0.00  0.00    +0.000 A 
ATOM     26  N   UNL     1      47.465   8.978  19.836  0.00  0.00    +0.000 N 
ATOM     27  C   UNL     1      48.138   8.431  18.769  0.00  0.00    +0.000 A 
ATOM     28  O   UNL     1      48.439   9.096  17.786  0.00  0.00    +0.000 OA
ATOM     29  C   UNL     1      48.475   7.030  18.931  0.00  0.00    +0.000 A 
ATOM     30  H   UNL     1      47.208   9.950  19.752  0.00  0.00    +0.000 HD
ENDBRANCH  17  20
ENDBRANCH   2  16
TORSDOF 5
ENDMDL
MODEL 8
REMARK VINA RESULT:    -7.196      3.873      9.466
REMARK INTER + INTRA:         -10.256
REMARK INTER:                  -9.101
REMARK INTRA:                  -1.156
REMARK UNBOUND:                -0.956
REMARK  Name = 
REMARK  6 active torsions:
REMARK  status: ('A' for Active; 'I' for Inactive)
REMARK    1  A    between atoms: C_1  and  C_2
REMARK    2  A    between atoms: C_2  and  N_3
REMARK    3  A    between atoms: C_2  and  C_16
REMARK    4  A    between atoms: C_4  and  C_6
REMARK    5  A    between atoms: C_19  and  C_20
REMARK    6  A    between atoms: C_20  and  C_21
REMARK                            x       y       z     vdW  Elec       q    Type
REMARK                         _______ _______ _______ _____ _____    ______ ____
ROOT
ATOM      1  C   UNL     1      46.984   4.711  18.333  0.00  0.00    +0.000 C 
ATOM      2  C   UNL     1      47.564   4.133  17.037  0.00  0.00    +0.000 C 
ENDROOT
BRANCH   2   3
ATOM      3  C   UNL     1      49.074   4.007  17.202  0.00  0.00    +0.000 A 
ATOM      4  C   UNL     1      49.648   2.738  17.385  0.00  0.00    +0.000 A 
ATOM      5  C   UNL     1      51.020   2.603  17.620  0.00  0.00    +0.000 A 
ATOM      6  C   UNL     1      51.852   3.729  17.676  0.00  0.00    +0.000 A 
ATOM      7  C   UNL     1      51.282   4.995  17.487  0.00  0.00    +0.000 A 
ATOM      8  C   UNL     1      49.910   5.132  17.268  0.00  0.00    +0.000 A 
BRANCH   6   9
ATOM      9  C   UNL     1      53.339   3.587  17.914  0.00  0.00    +0.000 C 
BRANCH   9  10
ATOM     10  C   UNL     1      53.686   3.283  19.353  0.00  0.00    +0.000 A 
ATOM     11  C   UNL     1      53.126   4.037  20.394  0.00  0.00    +0.000 A 
ATOM     12  C   UNL     1      53.506   3.810  21.718  0.00  0.00    +0.000 A 
ATOM     13  C   UNL     1      54.443   2.822  22.015  0.00  0.00    +0.000 A 
ATOM     14  C   UNL     1      54.989   2.051  20.991  0.00  0.00    +0.000 A 
ATOM     15  C   UNL     1      54.614   2.280  19.666  0.00  0.00    +0.000 A 
ENDBRANCH   9  10
ENDBRANCH   6   9
ENDBRANCH   2   3
BRANCH   2  16
ATOM     16  N   UNL     1      47.218   4.926  15.863  0.00  0.00    +0.000 N 
ATOM     17  C   UNL     1      47.139   4.372  14.609  0.00  0.00    +0.000 C 
ATOM     18  O   UNL     1      47.315   3.177  14.402  0.00  0.00    +0.000 OA
ATOM     19  H   UNL     1      47.403   5.926  15.921  0.00  0.00    +0.000 HD
BRANCH  17  20
ATOM     20  C   UNL     1      46.768   5.269  13.510  0.00  0.00    +0.000 A 
ATOM     21  C   UNL     1      47.707   6.167  13.020  0.00  0.00    +0.000 A 
ATOM     22  S   UNL     1      47.111   7.170  11.779  0.00  0.00    +0.000 S 
ATOM     23  C   UNL     1      45.568   6.459  11.875  0.00  0.00    +0.000 A 
ATOM     24  N   UNL     1      44.542   6.913  11.106  0.00  0.00    +0.000 NA
ATOM     25  C   UNL     1      43.421   6.304  11.305  0.00  0.00    +0.000 A 
ATOM     26  N   UNL     1      43.238   5.270  12.187  0.00  0.00    +0.000 N 
ATOM     27  C   UNL     1      44.257   4.744  12.946  0.00  0.00    +0.000 A 
ATOM     28  O   UNL     1      44.092   3.762  13.658  0.00  0.00    +0.000 OA
ATOM     29  C   UNL     1      45.524   5.435  12.803  0.00  0.00    +0.000 A 
ATOM     30  H   UNL     1      42.339   4.816  12.270  0.00  0.00    +0.000 HD
ENDBRANCH  17  20
ENDBRANCH   2  16
TORSDOF 5
ENDMDL
MODEL 9
REMARK VINA RESULT:    -7.087      3.319      8.733
REMARK INTER + INTRA:         -10.115
REMARK INTER:                  -8.886
REMARK INTRA:                  -1.229
REMARK UNBOUND:                -0.956
REMARK  Name = 
REMARK  6 active torsions:
REMARK  status: ('A' for Active; 'I' for Inactive)
REMARK    1  A    between atoms: C_1  and  C_2
REMARK    2  A    between atoms: C_2  and  N_3
REMARK    3  A    between atoms: C_2  and  C_16
REMARK    4  A    between atoms: C_4  and  C_6
REMARK    5  A    between atoms: C_19  and  C_20
REMARK    6  A    between atoms: C_20  and  C_21
REMARK                            x       y       z     vdW  Elec       q    Type
REMARK                         _______ _______ _______ _____ _____    ______ ____
ROOT
ATOM      1  C   UNL     1      49.535   7.596  12.805  0.00  0.00    +0.000 C 
ATOM      2  C   UNL     1      48.276   7.073  13.508  0.00  0.00    +0.000 C 
ENDROOT
BRANCH   2   3
ATOM      3  C   UNL     1      48.695   6.439  14.830  0.00  0.00    +0.000 A 
ATOM      4  C   UNL     1      47.929   5.394  15.371  0.00  0.00    +0.000 A 
ATOM      5  C   UNL     1      48.246   4.851  16.620  0.00  0.00    +0.000 A 
ATOM      6  C   UNL     1      49.333   5.336  17.358  0.00  0.00    +0.000 A 
ATOM      7  C   UNL     1      50.102   6.374  16.817  0.00  0.00    +0.000 A 
ATOM      8  C   UNL     1      49.777   6.928  15.578  0.00  0.00    +0.000 A 
BRANCH   6   9
ATOM      9  C   UNL     1      49.688   4.741  18.704  0.00  0.00    +0.000 C 
BRANCH   9  10
ATOM     10  C   UNL     1      48.942   5.378  19.853  0.00  0.00    +0.000 A 
ATOM     11  C   UNL     1      48.731   4.669  21.044  0.00  0.00    +0.000 A 
ATOM     12  C   UNL     1      47.974   5.225  22.076  0.00  0.00    +0.000 A 
ATOM     13  C   UNL     1      47.427   6.499  21.931  0.00  0.00    +0.000 A 
ATOM     14  C   UNL     1      47.649   7.223  20.761  0.00  0.00    +0.000 A 
ATOM     15  C   UNL     1      48.402   6.666  19.727  0.00  0.00    +0.000 A 
ENDBRANCH   9  10
ENDBRANCH   6   9
ENDBRANCH   2   3
BRANCH   2  16
ATOM     16  N   UNL     1      47.517   6.140  12.684  0.00  0.00    +0.000 N 
ATOM     17  C   UNL     1      46.459   6.548  11.911  0.00  0.00    +0.000 C 
ATOM     18  O   UNL     1      46.109   7.720  11.835  0.00  0.00    +0.000 OA
ATOM     19  H   UNL     1      47.538   5.163  12.970  0.00  0.00    +0.000 HD
BRANCH  17  20
ATOM     20  C   UNL     1      45.784   5.518  11.114  0.00  0.00    +0.000 A 
ATOM     21  C   UNL     1      45.815   5.604   9.728  0.00  0.00    +0.000 A 
ATOM     22  S   UNL     1      44.947   4.363   8.947  0.00  0.00    +0.000 S 
ATOM     23  C   UNL     1      44.476   3.686  10.436  0.00  0.00    +0.000 A 
ATOM     24  N   UNL     1      43.647   2.609  10.481  0.00  0.00    +0.000 NA
ATOM     25  C   UNL     1      43.346   2.221  11.675  0.00  0.00    +0.000 A 
ATOM     26  N   UNL     1      43.816   2.798  12.827  0.00  0.00    +0.000 N 
ATOM     27  C   UNL     1      44.697   3.854  12.830  0.00  0.00    +0.000 A 
ATOM     28  O   UNL     1      45.175   4.294  13.867  0.00  0.00    +0.000 OA
ATOM     29  C   UNL     1      45.018   4.365  11.512  0.00  0.00    +0.000 A 
ATOM     30  H   UNL     1      43.565   2.423  13.731  0.00  0.00    +0.000 HD
ENDBRANCH  17  20
ENDBRANCH   2  16
TORSDOF 5
ENDMDL
