MODEL 1
REMARK VINA RESULT:    -6.909      0.000      0.000
REMARK INTER + INTRA:          -8.946
REMARK INTER:                  -8.525
REMARK INTRA:                  -0.421
REMARK UNBOUND:                -0.421
REMARK  Name = 
REMARK  4 active torsions:
REMARK  status: ('A' for Active; 'I' for Inactive)
REMARK    1  A    between atoms: C_2  and  C_4
REMARK    2  A    between atoms: C_7  and  C_8
REMARK    3  A    between atoms: C_9  and  C_10
REMARK    4  A    between atoms: C_14  and  N_15
REMARK                            x       y       z     vdW  Elec       q    Type
REMARK                         _______ _______ _______ _____ _____    ______ ____
ROOT
ATOM      1  C   UNL     1      46.816   4.578  14.846  0.00  0.00    +0.000 C 
ATOM      2  C   UNL     1      46.087   4.584  13.890  0.00  0.00    +0.000 C 
ENDROOT
BRANCH   1   6
ATOM      3  C   UNL     1      49.050   4.595  18.436  0.00  0.00    +0.000 A 
ATOM      4  C   UNL     1      49.195   5.642  17.517  0.00  0.00    +0.000 A 
ATOM      5  C   UNL     1      48.474   5.628  16.319  0.00  0.00    +0.000 A 
ATOM      6  C   UNL     1      47.608   4.568  16.037  0.00  0.00    +0.000 A 
ATOM      7  C   UNL     1      47.486   3.507  16.939  0.00  0.00    +0.000 A 
ATOM      8  C   UNL     1      48.211   3.517  18.133  0.00  0.00    +0.000 A 
BRANCH   3  10
ATOM      9  N   UNL     1      49.032   4.235  20.841  0.00  0.00    +0.000 N 
ATOM     10  C   UNL     1      49.760   4.593  19.740  0.00  0.00    +0.000 C 
ATOM     11  O   UNL     1      50.955   4.848  19.826  0.00  0.00    +0.000 OA
ATOM     12  H   UNL     1      49.554   4.105  21.699  0.00  0.00    +0.000 HD
ATOM     13  H   UNL     1      48.139   3.768  20.764  0.00  0.00    +0.000 HD
ENDBRANCH   3  10
ENDBRANCH   1   6
BRANCH   2  14
ATOM     14  C   UNL     1      45.149   4.583  12.811  0.00  0.00    +0.000 A 
ATOM     15  C   UNL     1      43.909   5.181  12.967  0.00  0.00    +0.000 A 
ATOM     16  N   UNL     1      42.977   5.234  11.994  0.00  0.00    +0.000 NA
ATOM     17  C   UNL     1      43.317   4.659  10.812  0.00  0.00    +0.000 A 
ATOM     18  C   UNL     1      44.533   4.026  10.520  0.00  0.00    +0.000 A 
ATOM     19  C   UNL     1      45.455   4.005  11.576  0.00  0.00    +0.000 A 
BRANCH  18  20
ATOM     20  N   UNL     1      44.811   3.476   9.285  0.00  0.00    +0.000 N 
ATOM     21  C   UNL     1      44.693   2.040   8.998  0.00  0.00    +0.000 C 
ATOM     22  C   UNL     1      46.012   1.499   8.405  0.00  0.00    +0.000 C 
ATOM     23  N   UNL     1      46.484   2.258   7.225  0.00  0.00    +0.000 NA
ATOM     24  C   UNL     1      46.602   3.685   7.593  0.00  0.00    +0.000 C 
ATOM     25  C   UNL     1      45.299   4.297   8.166  0.00  0.00    +0.000 C 
ATOM     26  H   UNL     1      45.775   2.180   6.496  0.00  0.00    +0.000 HD
ENDBRANCH  18  20
ENDBRANCH   2  14
TORSDOF 4
ENDMDL
MODEL 2
REMARK VINA RESULT:    -6.538      5.532      9.702
REMARK INTER + INTRA:          -8.487
REMARK INTER:                  -8.060
REMARK INTRA:                  -0.427
REMARK UNBOUND:                -0.421
REMARK  Name = 
REMARK  4 active torsions:
REMARK  status: ('A' for Active; 'I' for Inactive)
REMARK    1  A    between atoms: C_2  and  C_4
REMARK    2  A    between atoms: C_7  and  C_8
REMARK    3  A    between atoms: C_9  and  C_10
REMARK    4  A    between atoms: C_14  and  N_15
REMARK                            x       y       z     vdW  Elec       q    Type
REMARK                         _______ _______ _______ _____ _____    ______ ____
ROOT
ATOM      1  C   UNL     1      45.888   3.572   8.511  0.00  0.00    +0.000 C 
ATOM      2  C   UNL     1      45.518   4.215   9.458  0.00  0.00    +0.000 C 
ENDROOT
BRANCH   1   6
ATOM      3  C   UNL     1      46.970   1.065   5.282  0.00  0.00    +0.000 A 
ATOM      4  C   UNL     1      46.980   0.565   6.590  0.00  0.00    +0.000 A 
ATOM      5  C   UNL     1      46.644   1.398   7.661  0.00  0.00    +0.000 A 
ATOM      6  C   UNL     1      46.298   2.731   7.429  0.00  0.00    +0.000 A 
ATOM      7  C   UNL     1      46.318   3.241   6.128  0.00  0.00    +0.000 A 
ATOM      8  C   UNL     1      46.660   2.412   5.056  0.00  0.00    +0.000 A 
BRANCH   3  10
ATOM      9  N   UNL     1      46.987  -1.127   4.230  0.00  0.00    +0.000 N 
ATOM     10  C   UNL     1      47.275   0.205   4.111  0.00  0.00    +0.000 C 
ATOM     11  O   UNL     1      47.713   0.667   3.066  0.00  0.00    +0.000 OA
ATOM     12  H   UNL     1      47.069  -1.679   3.386  0.00  0.00    +0.000 HD
ATOM     13  H   UNL     1      46.387  -1.483   4.962  0.00  0.00    +0.000 HD
ENDBRANCH   3  10
ENDBRANCH   1   6
BRANCH   2  14
ATOM     14  C   UNL     1      45.047   4.901  10.619  0.00  0.00    +0.000 A 
ATOM     15  C   UNL     1      43.968   4.402  11.332  0.00  0.00    +0.000 A 
ATOM     16  N   UNL     1      43.474   4.982  12.445  0.00  0.00    +0.000 NA
ATOM     17  C   UNL     1      44.101   6.116  12.853  0.00  0.00    +0.000 A 
ATOM     18  C   UNL     1      45.199   6.725  12.229  0.00  0.00    +0.000 A 
ATOM     19  C   UNL     1      45.660   6.069  11.078  0.00  0.00    +0.000 A 
BRANCH  18  20
ATOM     20  N   UNL     1      45.792   7.871  12.715  0.00  0.00    +0.000 N 
ATOM     21  C   UNL     1      45.175   9.201  12.615  0.00  0.00    +0.000 C 
ATOM     22  C   UNL     1      46.148  10.198  11.948  0.00  0.00    +0.000 C 
ATOM     23  N   UNL     1      47.474  10.256  12.603  0.00  0.00    +0.000 NA
ATOM     24  C   UNL     1      48.043   8.892  12.646  0.00  0.00    +0.000 C 
ATOM     25  C   UNL     1      47.126   7.850  13.334  0.00  0.00    +0.000 C 
ATOM     26  H   UNL     1      47.338  10.569  13.564  0.00  0.00    +0.000 HD
ENDBRANCH  18  20
ENDBRANCH   2  14
TORSDOF 4
ENDMDL
MODEL 3
REMARK VINA RESULT:    -5.870      6.339      8.169
REMARK INTER + INTRA:          -7.664
REMARK INTER:                  -7.221
REMARK INTRA:                  -0.443
REMARK UNBOUND:                -0.421
REMARK  Name = 
REMARK  4 active torsions:
REMARK  status: ('A' for Active; 'I' for Inactive)
REMARK    1  A    between atoms: C_2  and  C_4
REMARK    2  A    between atoms: C_7  and  C_8
REMARK    3  A    between atoms: C_9  and  C_10
REMARK    4  A    between atoms: C_14  and  N_15
REMARK                            x       y       z     vdW  Elec       q    Type
REMARK                         _______ _______ _______ _____ _____    ______ ____
ROOT
ATOM      1  C   UNL     1      48.724   7.152  12.074  0.00  0.00    +0.000 C 
ATOM      2  C   UNL     1      49.811   7.558  11.760  0.00  0.00    +0.000 C 
ENDROOT
BRANCH   1   6
ATOM      3  C   UNL     1      44.921   5.478  12.860  0.00  0.00    +0.000 A 
ATOM      4  C   UNL     1      45.039   6.569  11.988  0.00  0.00    +0.000 A 
ATOM      5  C   UNL     1      46.293   7.137  11.744  0.00  0.00    +0.000 A 
ATOM      6  C   UNL     1      47.429   6.620  12.370  0.00  0.00    +0.000 A 
ATOM      7  C   UNL     1      47.309   5.552  13.264  0.00  0.00    +0.000 A 
ATOM      8  C   UNL     1      46.056   4.987  13.514  0.00  0.00    +0.000 A 
BRANCH   3  10
ATOM      9  N   UNL     1      42.492   5.572  12.933  0.00  0.00    +0.000 N 
ATOM     10  C   UNL     1      43.617   4.814  13.112  0.00  0.00    +0.000 C 
ATOM     11  O   UNL     1      43.542   3.631  13.413  0.00  0.00    +0.000 OA
ATOM     12  H   UNL     1      41.610   5.077  12.974  0.00  0.00    +0.000 HD
ATOM     13  H   UNL     1      42.511   6.450  12.433  0.00  0.00    +0.000 HD
ENDBRANCH   3  10
ENDBRANCH   1   6
BRANCH   2  14
ATOM     14  C   UNL     1      51.099   7.986  11.312  0.00  0.00    +0.000 A 
ATOM     15  C   UNL     1      51.793   8.958  12.016  0.00  0.00    +0.000 A 
ATOM     16  N   UNL     1      53.017   9.403  11.667  0.00  0.00    +0.000 NA
ATOM     17  C   UNL     1      53.561   8.841  10.558  0.00  0.00    +0.000 A 
ATOM     18  C   UNL     1      52.972   7.851   9.758  0.00  0.00    +0.000 A 
ATOM     19  C   UNL     1      51.700   7.435  10.178  0.00  0.00    +0.000 A 
BRANCH  18  20
ATOM     20  N   UNL     1      53.597   7.316   8.651  0.00  0.00    +0.000 N 
ATOM     21  C   UNL     1      54.041   8.124   7.507  0.00  0.00    +0.000 C 
ATOM     22  C   UNL     1      53.461   7.560   6.191  0.00  0.00    +0.000 C 
ATOM     23  N   UNL     1      53.746   6.122   5.990  0.00  0.00    +0.000 NA
ATOM     24  C   UNL     1      53.252   5.370   7.164  0.00  0.00    +0.000 C 
ATOM     25  C   UNL     1      53.824   5.869   8.515  0.00  0.00    +0.000 C 
ATOM     26  H   UNL     1      54.758   6.005   5.945  0.00  0.00    +0.000 HD
ENDBRANCH  18  20
ENDBRANCH   2  14
TORSDOF 4
ENDMDL
MODEL 4
REMARK VINA RESULT:    -5.779      3.383      9.756
REMARK INTER + INTRA:          -7.552
REMARK INTER:                  -7.106
REMARK INTRA:                  -0.446
REMARK UNBOUND:                -0.421
REMARK  Name = 
REMARK  4 active torsions:
REMARK  status: ('A' for Active; 'I' for Inactive)
REMARK    1  A    between atoms: C_2  and  C_4
REMARK    2  A    between atoms: C_7  and  C_8
REMARK    3  A    between atoms: C_9  and  C_10
REMARK    4  A    between atoms: C_14  and  N_15
REMARK                            x       y       z     vdW  Elec       q    Type
REMARK                         _______ _______ _______ _____ _____    ______ ____
ROOT
ATOM      1  C   UNL     1      47.639   6.101  13.969  0.00  0.00    +0.000 C 
ATOM      2  C   UNL     1      48.367   6.502  14.838  0.00  0.00    +0.000 C 
ENDROOT
BRANCH   1   6
ATOM      3  C   UNL     1      45.065   4.437  11.055  0.00  0.00    +0.000 A 
ATOM      4  C   UNL     1      45.721   5.648  10.800  0.00  0.00    +0.000 A 
ATOM      5  C   UNL     1      46.556   6.211  11.770  0.00  0.00    +0.000 A 
ATOM      6  C   UNL     1      46.735   5.567  12.997  0.00  0.00    +0.000 A 
ATOM      7  C   UNL     1      46.058   4.375  13.265  0.00  0.00    +0.000 A 
ATOM      8  C   UNL     1      45.218   3.814  12.299  0.00  0.00    +0.000 A 
BRANCH   3  10
ATOM      9  N   UNL     1      44.063   4.426   8.839  0.00  0.00    +0.000 N 
ATOM     10  C   UNL     1      44.208   3.780  10.037  0.00  0.00    +0.000 C 
ATOM     11  O   UNL     1      43.694   2.686  10.232  0.00  0.00    +0.000 OA
ATOM     12  H   UNL     1      43.592   3.909   8.108  0.00  0.00    +0.000 HD
ATOM     13  H   UNL     1      44.679   5.176   8.557  0.00  0.00    +0.000 HD
ENDBRANCH   3  10
ENDBRANCH   1   6
BRANCH   2  14
ATOM     14  C   UNL     1      49.187   6.923  15.929  0.00  0.00    +0.000 A 
ATOM     15  C   UNL     1      50.250   7.785  15.709  0.00  0.00    +0.000 A 
ATOM     16  N   UNL     1      51.060   8.240  16.687  0.00  0.00    +0.000 NA
ATOM     17  C   UNL     1      50.780   7.803  17.941  0.00  0.00    +0.000 A 
ATOM     18  C   UNL     1      49.739   6.937  18.303  0.00  0.00    +0.000 A 
ATOM     19  C   UNL     1      48.938   6.502  17.238  0.00  0.00    +0.000 A 
BRANCH  18  20
ATOM     20  N   UNL     1      49.509   6.550  19.607  0.00  0.00    +0.000 N 
ATOM     21  C   UNL     1      49.938   5.254  20.151  0.00  0.00    +0.000 C 
ATOM     22  C   UNL     1      48.741   4.516  20.791  0.00  0.00    +0.000 C 
ATOM     23  N   UNL     1      48.023   5.324  21.802  0.00  0.00    +0.000 NA
ATOM     24  C   UNL     1      47.601   6.598  21.180  0.00  0.00    +0.000 C 
ATOM     25  C   UNL     1      48.764   7.402  20.547  0.00  0.00    +0.000 C 
ATOM     26  H   UNL     1      48.676   5.542  22.553  0.00  0.00    +0.000 HD
ENDBRANCH  18  20
ENDBRANCH   2  14
TORSDOF 4
ENDMDL
MODEL 5
REMARK VINA RESULT:    -5.514      3.811      9.594
REMARK INTER + INTRA:          -7.225
REMARK INTER:                  -6.779
REMARK INTRA:                  -0.446
REMARK UNBOUND:                -0.421
REMARK  Name = 
REMARK  4 active torsions:
REMARK  status: ('A' for Active; 'I' for Inactive)
REMARK    1  A    between atoms: C_2  and  C_4
REMARK    2  A    between atoms: C_7  and  C_8
REMARK    3  A    between atoms: C_9  and  C_10
REMARK    4  A    between atoms: C_14  and  N_15
REMARK                            x       y       z     vdW  Elec       q    Type
REMARK                         _______ _______ _______ _____ _____    ______ ____
ROOT
ATOM      1  C   UNL     1      47.863   6.649  13.557  0.00  0.00    +0.000 C 
ATOM      2  C   UNL     1      48.699   7.109  14.290  0.00  0.00    +0.000 C 
ENDROOT
BRANCH   1   6
ATOM      3  C   UNL     1      45.022   4.713  11.095  0.00  0.00    +0.000 A 
ATOM      4  C   UNL     1      45.667   5.871  10.642  0.00  0.00    +0.000 A 
ATOM      5  C   UNL     1      46.590   6.525  11.463  0.00  0.00    +0.000 A 
ATOM      6  C   UNL     1      46.870   6.026  12.737  0.00  0.00    +0.000 A 
ATOM      7  C   UNL     1      46.205   4.888  13.203  0.00  0.00    +0.000 A 
ATOM      8  C   UNL     1      45.276   4.237  12.386  0.00  0.00    +0.000 A 
BRANCH   3  10
ATOM      9  N   UNL     1      44.020   4.305   8.917  0.00  0.00    +0.000 N 
ATOM     10  C   UNL     1      44.069   3.961  10.240  0.00  0.00    +0.000 C 
ATOM     11  O   UNL     1      43.395   3.039  10.679  0.00  0.00    +0.000 OA
ATOM     12  H   UNL     1      43.472   3.701   8.318  0.00  0.00    +0.000 HD
ATOM     13  H   UNL     1      44.742   4.863   8.481  0.00  0.00    +0.000 HD
ENDBRANCH   3  10
ENDBRANCH   1   6
BRANCH   2  14
ATOM     14  C   UNL     1      49.684   7.579  15.211  0.00  0.00    +0.000 A 
ATOM     15  C   UNL     1      50.174   8.871  15.107  0.00  0.00    +0.000 A 
ATOM     16  N   UNL     1      51.093   9.392  15.945  0.00  0.00    +0.000 NA
ATOM     17  C   UNL     1      51.533   8.570  16.931  0.00  0.00    +0.000 A 
ATOM     18  C   UNL     1      51.122   7.248  17.151  0.00  0.00    +0.000 A 
ATOM     19  C   UNL     1      50.167   6.770  16.243  0.00  0.00    +0.000 A 
BRANCH  18  20
ATOM     20  N   UNL     1      51.607   6.478  18.189  0.00  0.00    +0.000 N 
ATOM     21  C   UNL     1      52.826   5.665  18.087  0.00  0.00    +0.000 C 
ATOM     22  C   UNL     1      52.532   4.201  18.483  0.00  0.00    +0.000 C 
ATOM     23  N   UNL     1      51.893   4.067  19.811  0.00  0.00    +0.000 NA
ATOM     24  C   UNL     1      50.664   4.889  19.833  0.00  0.00    +0.000 C 
ATOM     25  C   UNL     1      50.898   6.378  19.474  0.00  0.00    +0.000 C 
ATOM     26  H   UNL     1      52.534   4.443  20.509  0.00  0.00    +0.000 HD
ENDBRANCH  18  20
ENDBRANCH   2  14
TORSDOF 4
ENDMDL
MODEL 6
REMARK VINA RESULT:    -5.388      4.177      4.781
REMARK INTER + INTRA:          -7.068
REMARK INTER:                  -6.619
REMARK INTRA:                  -0.449
REMARK UNBOUND:                -0.421
REMARK  Name = 
REMARK  4 active torsions:
REMARK  status: ('A' for Active; 'I' for Inactive)
REMARK    1  A    between atoms: C_2  and  C_4
REMARK    2  A    between atoms: C_7  and  C_8
REMARK    3  A    between atoms: C_9  and  C_10
REMARK    4  A    between atoms: C_14  and  N_15
REMARK                            x       y       z     vdW  Elec       q    Type
REMARK                         _______ _______ _______ _____ _____    ______ ____
ROOT
ATOM      1  C   UNL     1      46.884   7.784  12.907  0.00  0.00    +0.000 C 
ATOM      2  C   UNL     1      46.138   6.915  12.543  0.00  0.00    +0.000 C 
ENDROOT
BRANCH   1   6
ATOM      3  C   UNL     1      49.800  10.561  14.198  0.00  0.00    +0.000 A 
ATOM      4  C   UNL     1      49.011   9.886  15.139  0.00  0.00    +0.000 A 
ATOM      5  C   UNL     1      48.032   8.984  14.713  0.00  0.00    +0.000 A 
ATOM      6  C   UNL     1      47.837   8.755  13.349  0.00  0.00    +0.000 A 
ATOM      7  C   UNL     1      48.602   9.451  12.409  0.00  0.00    +0.000 A 
ATOM      8  C   UNL     1      49.577  10.358  12.832  0.00  0.00    +0.000 A 
BRANCH   3  10
ATOM      9  N   UNL     1      51.066  11.677  15.949  0.00  0.00    +0.000 N 
ATOM     10  C   UNL     1      50.883  11.491  14.607  0.00  0.00    +0.000 C 
ATOM     11  O   UNL     1      51.616  12.029  13.787  0.00  0.00    +0.000 OA
ATOM     12  H   UNL     1      51.887  12.203  16.220  0.00  0.00    +0.000 HD
ATOM     13  H   UNL     1      50.665  11.054  16.636  0.00  0.00    +0.000 HD
ENDBRANCH   3  10
ENDBRANCH   1   6
BRANCH   2  14
ATOM     14  C   UNL     1      45.322   5.822  12.115  0.00  0.00    +0.000 A 
ATOM     15  C   UNL     1      44.277   5.381  12.910  0.00  0.00    +0.000 A 
ATOM     16  N   UNL     1      43.454   4.368  12.570  0.00  0.00    +0.000 NA
ATOM     17  C   UNL     1      43.701   3.778  11.373  0.00  0.00    +0.000 A 
ATOM     18  C   UNL     1      44.718   4.125  10.473  0.00  0.00    +0.000 A 
ATOM     19  C   UNL     1      45.536   5.185  10.890  0.00  0.00    +0.000 A 
BRANCH  18  20
ATOM     20  N   UNL     1      44.895   3.485   9.264  0.00  0.00    +0.000 N 
ATOM     21  C   UNL     1      44.734   2.035   9.088  0.00  0.00    +0.000 C 
ATOM     22  C   UNL     1      45.998   1.428   8.441  0.00  0.00    +0.000 C 
ATOM     23  N   UNL     1      46.392   2.093   7.179  0.00  0.00    +0.000 NA
ATOM     24  C   UNL     1      46.558   3.540   7.435  0.00  0.00    +0.000 C 
ATOM     25  C   UNL     1      45.310   4.215   8.056  0.00  0.00    +0.000 C 
ATOM     26  H   UNL     1      45.629   1.978   6.511  0.00  0.00    +0.000 HD
ENDBRANCH  18  20
ENDBRANCH   2  14
TORSDOF 4
ENDMDL
MODEL 7
REMARK VINA RESULT:    -5.348      6.561      7.948
REMARK INTER + INTRA:          -7.019
REMARK INTER:                  -6.599
REMARK INTRA:                  -0.420
REMARK UNBOUND:                -0.421
REMARK  Name = 
REMARK  4 active torsions:
REMARK  status: ('A' for Active; 'I' for Inactive)
REMARK    1  A    between atoms: C_2  and  C_4
REMARK    2  A    between atoms: C_7  and  C_8
REMARK    3  A    between atoms: C_9  and  C_10
REMARK    4  A    between atoms: C_14  and  N_15
REMARK                            x       y       z     vdW  Elec       q    Type
REMARK                         _______ _______ _______ _____ _____    ______ ____
ROOT
ATOM      1  C   UNL     1      49.601   8.688  11.653  0.00  0.00    +0.000 C 
ATOM      2  C   UNL     1      48.878   7.877  12.167  0.00  0.00    +0.000 C 
ENDROOT
BRANCH   1   6
ATOM      3  C   UNL     1      52.276  11.322   9.705  0.00  0.00    +0.000 A 
ATOM      4  C   UNL     1      52.686  10.022  10.029  0.00  0.00    +0.000 A 
ATOM      5  C   UNL     1      51.810   9.156  10.692  0.00  0.00    +0.000 A 
ATOM      6  C   UNL     1      50.526   9.588  11.035  0.00  0.00    +0.000 A 
ATOM      7  C   UNL     1      50.127  10.894  10.740  0.00  0.00    +0.000 A 
ATOM      8  C   UNL     1      51.003  11.763  10.083  0.00  0.00    +0.000 A 
BRANCH   3  10
ATOM      9  N   UNL     1      52.626  12.853   7.849  0.00  0.00    +0.000 N 
ATOM     10  C   UNL     1      53.156  12.257   8.960  0.00  0.00    +0.000 C 
ATOM     11  O   UNL     1      54.285  12.529   9.347  0.00  0.00    +0.000 OA
ATOM     12  H   UNL     1      53.180  13.587   7.428  0.00  0.00    +0.000 HD
ATOM     13  H   UNL     1      51.632  12.857   7.665  0.00  0.00    +0.000 HD
ENDBRANCH   3  10
ENDBRANCH   1   6
BRANCH   2  14
ATOM     14  C   UNL     1      48.084   6.850  12.763  0.00  0.00    +0.000 A 
ATOM     15  C   UNL     1      48.395   6.375  14.028  0.00  0.00    +0.000 A 
ATOM     16  N   UNL     1      47.687   5.420  14.664  0.00  0.00    +0.000 NA
ATOM     17  C   UNL     1      46.617   4.924  13.989  0.00  0.00    +0.000 A 
ATOM     18  C   UNL     1      46.191   5.314  12.712  0.00  0.00    +0.000 A 
ATOM     19  C   UNL     1      46.973   6.310  12.110  0.00  0.00    +0.000 A 
BRANCH  18  20
ATOM     20  N   UNL     1      45.081   4.773  12.098  0.00  0.00    +0.000 N 
ATOM     21  C   UNL     1      43.894   4.317  12.836  0.00  0.00    +0.000 C 
ATOM     22  C   UNL     1      43.556   2.857  12.463  0.00  0.00    +0.000 C 
ATOM     23  N   UNL     1      43.414   2.639  11.006  0.00  0.00    +0.000 NA
ATOM     24  C   UNL     1      44.649   3.095  10.333  0.00  0.00    +0.000 C 
ATOM     25  C   UNL     1      45.025   4.566  10.643  0.00  0.00    +0.000 C 
ATOM     26  H   UNL     1      42.643   3.218  10.674  0.00  0.00    +0.000 HD
ENDBRANCH  18  20
ENDBRANCH   2  14
TORSDOF 4
ENDMDL
MODEL 8
REMARK VINA RESULT:    -5.303      3.429     10.177
REMARK INTER + INTRA:          -6.963
REMARK INTER:                  -6.534
REMARK INTRA:                  -0.430
REMARK UNBOUND:                -0.421
REMARK  Name = 
REMARK  4 active torsions:
REMARK  status: ('A' for Active; 'I' for Inactive)
REMARK    1  A    between atoms: C_2  and  C_4
REMARK    2  A    between atoms: C_7  and  C_8
REMARK    3  A    between atoms: C_9  and  C_10
REMARK    4  A    between atoms: C_14  and  N_15
REMARK                            x       y       z     vdW  Elec       q    Type
REMARK                         _______ _______ _______ _____ _____    ______ ____
ROOT
ATOM      1  C   UNL     1      47.354   4.642  15.212  0.00  0.00    +0.000 C 
ATOM      2  C   UNL     1      47.974   4.676  16.242  0.00  0.00    +0.000 C 
ENDROOT
BRANCH   1   6
ATOM      3  C   UNL     1      45.190   4.779  11.581  0.00  0.00    +0.000 A 
ATOM      4  C   UNL     1      45.473   3.545  12.181  0.00  0.00    +0.000 A 
ATOM      5  C   UNL     1      46.207   3.496  13.370  0.00  0.00    +0.000 A 
ATOM      6  C   UNL     1      46.661   4.678  13.961  0.00  0.00    +0.000 A 
ATOM      7  C   UNL     1      46.406   5.908  13.348  0.00  0.00    +0.000 A 
ATOM      8  C   UNL     1      45.678   5.958  12.156  0.00  0.00    +0.000 A 
BRANCH   3  10
ATOM      9  N   UNL     1      45.042   4.796   9.154  0.00  0.00    +0.000 N 
ATOM     10  C   UNL     1      44.375   4.881  10.345  0.00  0.00    +0.000 C 
ATOM     11  O   UNL     1      43.155   4.982  10.381  0.00  0.00    +0.000 OA
ATOM     12  H   UNL     1      44.468   4.730   8.323  0.00  0.00    +0.000 HD
ATOM     13  H   UNL     1      45.990   4.448   9.094  0.00  0.00    +0.000 HD
ENDBRANCH   3  10
ENDBRANCH   1   6
BRANCH   2  14
ATOM     14  C   UNL     1      48.756   4.789  17.432  0.00  0.00    +0.000 A 
ATOM     15  C   UNL     1      49.963   4.117  17.538  0.00  0.00    +0.000 A 
ATOM     16  N   UNL     1      50.765   4.185  18.621  0.00  0.00    +0.000 NA
ATOM     17  C   UNL     1      50.324   4.967  19.639  0.00  0.00    +0.000 A 
ATOM     18  C   UNL     1      49.129   5.700  19.662  0.00  0.00    +0.000 A 
ATOM     19  C   UNL     1      48.345   5.583  18.506  0.00  0.00    +0.000 A 
BRANCH  18  20
ATOM     20  N   UNL     1      48.758   6.488  20.732  0.00  0.00    +0.000 N 
ATOM     21  C   UNL     1      47.380   6.949  20.952  0.00  0.00    +0.000 C 
ATOM     22  C   UNL     1      47.346   8.485  21.114  0.00  0.00    +0.000 C 
ATOM     23  N   UNL     1      48.266   8.988  22.157  0.00  0.00    +0.000 NA
ATOM     24  C   UNL     1      49.633   8.508  21.859  0.00  0.00    +0.000 C 
ATOM     25  C   UNL     1      49.739   6.969  21.717  0.00  0.00    +0.000 C 
ATOM     26  H   UNL     1      47.980   8.587  23.050  0.00  0.00    +0.000 HD
ENDBRANCH  18  20
ENDBRANCH   2  14
TORSDOF 4
ENDMDL
MODEL 9
REMARK VINA RESULT:    -5.167      3.599      9.773
REMARK INTER + INTRA:          -6.797
REMARK INTER:                  -6.371
REMARK INTRA:                  -0.425
REMARK UNBOUND:                -0.421
REMARK  Name = 
REMARK  4 active torsions:
REMARK  status: ('A' for Active; 'I' for Inactive)
REMARK    1  A    between atoms: C_2  and  C_4
REMARK    2  A    between atoms: C_7  and  C_8
REMARK    3  A    between atoms: C_9  and  C_10
REMARK    4  A    between atoms: C_14  and  N_15
REMARK                            x       y       z     vdW  Elec       q    Type
REMARK                         _______ _______ _______ _____ _____    ______ ____
ROOT
ATOM      1  C   UNL     1      47.302   4.638  15.158  0.00  0.00    +0.000 C 
ATOM      2  C   UNL     1      47.921   4.669  16.188  0.00  0.00    +0.000 C 
ENDROOT
BRANCH   1   6
ATOM      3  C   UNL     1      45.164   4.766  11.512  0.00  0.00    +0.000 A 
ATOM      4  C   UNL     1      45.439   3.533  12.118  0.00  0.00    +0.000 A 
ATOM      5  C   UNL     1      46.164   3.488  13.313  0.00  0.00    +0.000 A 
ATOM      6  C   UNL     1      46.618   4.670  13.902  0.00  0.00    +0.000 A 
ATOM      7  C   UNL     1      46.371   5.898  13.281  0.00  0.00    +0.000 A 
ATOM      8  C   UNL     1      45.652   5.946  12.084  0.00  0.00    +0.000 A 
BRANCH   3  10
ATOM      9  N   UNL     1      45.030   4.748   9.084  0.00  0.00    +0.000 N 
ATOM     10  C   UNL     1      44.357   4.865  10.269  0.00  0.00    +0.000 C 
ATOM     11  O   UNL     1      43.140   4.991  10.297  0.00  0.00    +0.000 OA
ATOM     12  H   UNL     1      44.458   4.681   8.251  0.00  0.00    +0.000 HD
ATOM     13  H   UNL     1      45.970   4.381   9.034  0.00  0.00    +0.000 HD
ENDBRANCH   3  10
ENDBRANCH   1   6
BRANCH   2  14
ATOM     14  C   UNL     1      48.709   4.772  17.376  0.00  0.00    +0.000 A 
ATOM     15  C   UNL     1      48.158   4.455  18.606  0.00  0.00    +0.000 A 
ATOM     16  N   UNL     1      48.839   4.512  19.769  0.00  0.00    +0.000 NA
ATOM     17  C   UNL     1      50.135   4.908  19.680  0.00  0.00    +0.000 A 
ATOM     18  C   UNL     1      50.815   5.255  18.504  0.00  0.00    +0.000 A 
ATOM     19  C   UNL     1      50.047   5.174  17.334  0.00  0.00    +0.000 A 
BRANCH  18  20
ATOM     20  N   UNL     1      52.142   5.633  18.494  0.00  0.00    +0.000 N 
ATOM     21  C   UNL     1      53.070   5.286  17.409  0.00  0.00    +0.000 C 
ATOM     22  C   UNL     1      54.325   4.588  17.978  0.00  0.00    +0.000 C 
ATOM     23  N   UNL     1      54.996   5.360  19.047  0.00  0.00    +0.000 NA
ATOM     24  C   UNL     1      54.012   5.652  20.112  0.00  0.00    +0.000 C 
ATOM     25  C   UNL     1      52.741   6.382  19.610  0.00  0.00    +0.000 C 
ATOM     26  H   UNL     1      55.301   6.249  18.650  0.00  0.00    +0.000 HD
ENDBRANCH  18  20
ENDBRANCH   2  14
TORSDOF 4
ENDMDL
