MODEL 1
REMARK VINA RESULT:    -8.401      0.000      0.000
REMARK INTER + INTRA:         -13.092
REMARK INTER:                 -11.839
REMARK INTRA:                  -1.253
REMARK UNBOUND:                -1.253
REMARK  Name = 
REMARK  8 active torsions:
REMARK  status: ('A' for Active; 'I' for Inactive)
REMARK    1  A    between atoms: C_1  and  C_2
REMARK    2  A    between atoms: C_2  and  N_3
REMARK    3  A    between atoms: C_2  and  C_25
REMARK    4  A    between atoms: N_3  and  C_4
REMARK    5  A    between atoms: C_4  and  C_5
REMARK    6  A    between atoms: C_9  and  C_10
REMARK    7  A    between atoms: C_10  and  N_11
REMARK    8  A    between atoms: C_12  and  C_14
REMARK                            x       y       z     vdW  Elec       q    Type
REMARK                         _______ _______ _______ _____ _____    ______ ____
ROOT
ATOM      1  C   UNL     1      45.514   6.636  11.688  0.00  0.00    +0.000 A 
ATOM      2  C   UNL     1      44.621   7.638  11.318  0.00  0.00    +0.000 A 
ATOM      3  N   UNL     1      44.720   8.930  11.711  0.00  0.00    +0.000 NA
ATOM      4  C   UNL     1      45.757   9.242  12.517  0.00  0.00    +0.000 A 
ATOM      5  C   UNL     1      46.698   8.323  12.963  0.00  0.00    +0.000 A 
ATOM      6  C   UNL     1      46.574   7.002  12.523  0.00  0.00    +0.000 A 
ENDROOT
BRANCH   1   7
ATOM      7  C   UNL     1      45.373   5.231  11.161  0.00  0.00    +0.000 C 
BRANCH   7   8
ATOM      8  N   UNL     1      44.770   5.201   9.827  0.00  0.00    +0.000 NA
ATOM      9  H   UNL     1      43.938   5.790   9.829  0.00  0.00    +0.000 HD
BRANCH   8  11
ATOM     10  C   UNL     1      44.033   2.924  10.568  0.00  0.00    +0.000 C 
ATOM     11  C   UNL     1      44.362   3.855   9.395  0.00  0.00    +0.000 C 
BRANCH  11  12
ATOM     12  C   UNL     1      45.446   3.195   8.546  0.00  0.00    +0.000 A 
ATOM     13  C   UNL     1      46.221   3.978   7.672  0.00  0.00    +0.000 A 
ATOM     14  C   UNL     1      47.156   3.388   6.818  0.00  0.00    +0.000 A 
ATOM     15  C   UNL     1      47.337   2.007   6.828  0.00  0.00    +0.000 A 
ATOM     16  C   UNL     1      46.587   1.220   7.698  0.00  0.00    +0.000 A 
ATOM     17 CL   UNL     1      46.816  -0.486   7.714  0.00  0.00    +0.000 Cl
ATOM     18  C   UNL     1      45.644   1.803   8.547  0.00  0.00    +0.000 A 
ENDBRANCH  11  12
ENDBRANCH   8  11
ENDBRANCH   7   8
ENDBRANCH   1   7
BRANCH   5  19
ATOM     19  C   UNL     1      47.833   8.754  13.838  0.00  0.00    +0.000 C 
BRANCH  19  20
ATOM     20  N   UNL     1      48.015   7.848  14.942  0.00  0.00    +0.000 N 
ATOM     21  C   UNL     1      49.202   7.206  15.176  0.00  0.00    +0.000 C 
ATOM     22  O   UNL     1      50.185   7.360  14.455  0.00  0.00    +0.000 OA
ATOM     23  H   UNL     1      47.174   7.513  15.401  0.00  0.00    +0.000 HD
BRANCH  21  24
ATOM     24  C   UNL     1      49.261   6.376  16.385  0.00  0.00    +0.000 A 
ATOM     25  C   UNL     1      50.117   6.731  17.419  0.00  0.00    +0.000 A 
ATOM     26  S   UNL     1      50.027   5.691  18.766  0.00  0.00    +0.000 S 
ATOM     27  C   UNL     1      48.879   4.701  17.996  0.00  0.00    +0.000 A 
ATOM     28  N   UNL     1      48.390   3.590  18.608  0.00  0.00    +0.000 NA
ATOM     29  C   UNL     1      47.551   2.913  17.897  0.00  0.00    +0.000 A 
ATOM     30  N   UNL     1      47.142   3.255  16.630  0.00  0.00    +0.000 N 
ATOM     31  C   UNL     1      47.560   4.403  16.001  0.00  0.00    +0.000 A 
ATOM     32  O   UNL     1      47.091   4.737  14.919  0.00  0.00    +0.000 OA
ATOM     33  C   UNL     1      48.541   5.175  16.740  0.00  0.00    +0.000 A 
ATOM     34  H   UNL     1      46.463   2.696  16.140  0.00  0.00    +0.000 HD
ENDBRANCH  21  24
ENDBRANCH  19  20
ENDBRANCH   5  19
TORSDOF 7
ENDMDL
MODEL 2
REMARK VINA RESULT:    -7.975      1.414      2.060
REMARK INTER + INTRA:         -12.491
REMARK INTER:                 -11.305
REMARK INTRA:                  -1.186
REMARK UNBOUND:                -1.253
REMARK  Name = 
REMARK  8 active torsions:
REMARK  status: ('A' for Active; 'I' for Inactive)
REMARK    1  A    between atoms: C_1  and  C_2
REMARK    2  A    between atoms: C_2  and  N_3
REMARK    3  A    between atoms: C_2  and  C_25
REMARK    4  A    between atoms: N_3  and  C_4
REMARK    5  A    between atoms: C_4  and  C_5
REMARK    6  A    between atoms: C_9  and  C_10
REMARK    7  A    between atoms: C_10  and  N_11
REMARK    8  A    between atoms: C_12  and  C_14
REMARK                            x       y       z     vdW  Elec       q    Type
REMARK                         _______ _______ _______ _____ _____    ______ ____
ROOT
ATOM      1  C   UNL     1      43.982   6.919  11.501  0.00  0.00    +0.000 A 
ATOM      2  C   UNL     1      43.550   8.141  10.993  0.00  0.00    +0.000 A 
ATOM      3  N   UNL     1      44.220   9.308  11.142  0.00  0.00    +0.000 NA
ATOM      4  C   UNL     1      45.376   9.261  11.837  0.00  0.00    +0.000 A 
ATOM      5  C   UNL     1      45.895   8.103  12.403  0.00  0.00    +0.000 A 
ATOM      6  C   UNL     1      45.185   6.914  12.213  0.00  0.00    +0.000 A 
ENDROOT
BRANCH   1   7
ATOM      7  C   UNL     1      43.212   5.650  11.242  0.00  0.00    +0.000 C 
BRANCH   7   8
ATOM      8  N   UNL     1      43.611   5.011   9.986  0.00  0.00    +0.000 NA
ATOM      9  H   UNL     1      42.831   5.056   9.332  0.00  0.00    +0.000 HD
BRANCH   8  11
ATOM     10  C   UNL     1      44.494   3.259  11.544  0.00  0.00    +0.000 C 
ATOM     11  C   UNL     1      43.984   3.595  10.138  0.00  0.00    +0.000 C 
BRANCH  11  12
ATOM     12  C   UNL     1      45.057   3.195   9.129  0.00  0.00    +0.000 A 
ATOM     13  C   UNL     1      45.652   4.177   8.317  0.00  0.00    +0.000 A 
ATOM     14  C   UNL     1      46.569   3.828   7.322  0.00  0.00    +0.000 A 
ATOM     15  C   UNL     1      46.913   2.492   7.128  0.00  0.00    +0.000 A 
ATOM     16  C   UNL     1      46.343   1.510   7.934  0.00  0.00    +0.000 A 
ATOM     17 CL   UNL     1      46.772  -0.140   7.697  0.00  0.00    +0.000 Cl
ATOM     18  C   UNL     1      45.418   1.852   8.922  0.00  0.00    +0.000 A 
ENDBRANCH  11  12
ENDBRANCH   8  11
ENDBRANCH   7   8
ENDBRANCH   1   7
BRANCH   5  19
ATOM     19  C   UNL     1      47.197   8.128  13.140  0.00  0.00    +0.000 C 
BRANCH  19  20
ATOM     20  N   UNL     1      47.203   7.182  14.225  0.00  0.00    +0.000 N 
ATOM     21  C   UNL     1      48.321   6.471  14.571  0.00  0.00    +0.000 C 
ATOM     22  O   UNL     1      49.388   6.593  13.974  0.00  0.00    +0.000 OA
ATOM     23  H   UNL     1      46.298   6.880  14.571  0.00  0.00    +0.000 HD
BRANCH  21  24
ATOM     24  C   UNL     1      48.195   5.604  15.749  0.00  0.00    +0.000 A 
ATOM     25  C   UNL     1      47.382   4.480  15.688  0.00  0.00    +0.000 A 
ATOM     26  S   UNL     1      47.386   3.558  17.122  0.00  0.00    +0.000 S 
ATOM     27  C   UNL     1      48.434   4.653  17.891  0.00  0.00    +0.000 A 
ATOM     28  N   UNL     1      48.823   4.463  19.179  0.00  0.00    +0.000 NA
ATOM     29  C   UNL     1      49.593   5.388  19.648  0.00  0.00    +0.000 A 
ATOM     30  N   UNL     1      50.023   6.484  18.938  0.00  0.00    +0.000 N 
ATOM     31  C   UNL     1      49.707   6.681  17.616  0.00  0.00    +0.000 A 
ATOM     32  O   UNL     1      50.197   7.609  16.980  0.00  0.00    +0.000 OA
ATOM     33  C   UNL     1      48.805   5.693  17.055  0.00  0.00    +0.000 A 
ATOM     34  H   UNL     1      50.645   7.156  19.357  0.00  0.00    +0.000 HD
ENDBRANCH  21  24
ENDBRANCH  19  20
ENDBRANCH   5  19
TORSDOF 7
ENDMDL
MODEL 3
REMARK VINA RESULT:    -7.570      4.533      9.851
REMARK INTER + INTRA:         -11.921
REMARK INTER:                 -10.381
REMARK INTRA:                  -1.540
REMARK UNBOUND:                -1.253
REMARK  Name = 
REMARK  8 active torsions:
REMARK  status: ('A' for Active; 'I' for Inactive)
REMARK    1  A    between atoms: C_1  and  C_2
REMARK    2  A    between atoms: C_2  and  N_3
REMARK    3  A    between atoms: C_2  and  C_25
REMARK    4  A    between atoms: N_3  and  C_4
REMARK    5  A    between atoms: C_4  and  C_5
REMARK    6  A    between atoms: C_9  and  C_10
REMARK    7  A    between atoms: C_10  and  N_11
REMARK    8  A    between atoms: C_12  and  C_14
REMARK                            x       y       z     vdW  Elec       q    Type
REMARK                         _______ _______ _______ _____ _____    ______ ____
ROOT
ATOM      1  C   UNL     1      50.857   3.739  17.926  0.00  0.00    +0.000 A 
ATOM      2  C   UNL     1      51.262   2.523  17.382  0.00  0.00    +0.000 A 
ATOM      3  N   UNL     1      50.439   1.663  16.738  0.00  0.00    +0.000 NA
ATOM      4  C   UNL     1      49.143   2.027  16.632  0.00  0.00    +0.000 A 
ATOM      5  C   UNL     1      48.623   3.207  17.149  0.00  0.00    +0.000 A 
ATOM      6  C   UNL     1      49.507   4.078  17.793  0.00  0.00    +0.000 A 
ENDROOT
BRANCH   1   7
ATOM      7  C   UNL     1      51.845   4.672  18.577  0.00  0.00    +0.000 C 
BRANCH   7   8
ATOM      8  N   UNL     1      51.935   4.457  20.022  0.00  0.00    +0.000 NA
ATOM      9  H   UNL     1      51.268   3.734  20.289  0.00  0.00    +0.000 HD
BRANCH   8  11
ATOM     10  C   UNL     1      52.182   5.585  22.246  0.00  0.00    +0.000 C 
ATOM     11  C   UNL     1      51.632   5.659  20.816  0.00  0.00    +0.000 C 
BRANCH  11  12
ATOM     12  C   UNL     1      50.128   5.908  20.891  0.00  0.00    +0.000 A 
ATOM     13  C   UNL     1      49.304   5.000  21.580  0.00  0.00    +0.000 A 
ATOM     14  C   UNL     1      47.915   5.153  21.587  0.00  0.00    +0.000 A 
ATOM     15  C   UNL     1      47.328   6.221  20.911  0.00  0.00    +0.000 A 
ATOM     16  C   UNL     1      48.132   7.136  20.237  0.00  0.00    +0.000 A 
ATOM     17 CL   UNL     1      47.405   8.458  19.408  0.00  0.00    +0.000 Cl
ATOM     18  C   UNL     1      49.519   6.982  20.218  0.00  0.00    +0.000 A 
ENDBRANCH  11  12
ENDBRANCH   8  11
ENDBRANCH   7   8
ENDBRANCH   1   7
BRANCH   5  19
ATOM     19  C   UNL     1      47.177   3.549  16.970  0.00  0.00    +0.000 C 
BRANCH  19  20
ATOM     20  N   UNL     1      47.001   4.560  15.959  0.00  0.00    +0.000 N 
ATOM     21  C   UNL     1      47.006   4.267  14.622  0.00  0.00    +0.000 C 
ATOM     22  O   UNL     1      47.167   3.125  14.200  0.00  0.00    +0.000 OA
ATOM     23  H   UNL     1      47.112   5.524  16.255  0.00  0.00    +0.000 HD
BRANCH  21  24
ATOM     24  C   UNL     1      46.734   5.389  13.714  0.00  0.00    +0.000 A 
ATOM     25  C   UNL     1      47.726   6.330  13.473  0.00  0.00    +0.000 A 
ATOM     26  S   UNL     1      47.264   7.537  12.361  0.00  0.00    +0.000 S 
ATOM     27  C   UNL     1      45.707   6.873  12.201  0.00  0.00    +0.000 A 
ATOM     28  N   UNL     1      44.777   7.455  11.399  0.00  0.00    +0.000 NA
ATOM     29  C   UNL     1      43.627   6.865  11.397  0.00  0.00    +0.000 A 
ATOM     30  N   UNL     1      43.326   5.732  12.116  0.00  0.00    +0.000 N 
ATOM     31  C   UNL     1      44.255   5.076  12.887  0.00  0.00    +0.000 A 
ATOM     32  O   UNL     1      43.986   4.008  13.426  0.00  0.00    +0.000 OA
ATOM     33  C   UNL     1      45.549   5.725  12.960  0.00  0.00    +0.000 A 
ATOM     34  H   UNL     1      42.416   5.307  12.048  0.00  0.00    +0.000 HD
ENDBRANCH  21  24
ENDBRANCH  19  20
ENDBRANCH   5  19
TORSDOF 7
ENDMDL
MODEL 4
REMARK VINA RESULT:    -7.348      4.539      9.835
REMARK INTER + INTRA:         -11.609
REMARK INTER:                  -9.624
REMARK INTRA:                  -1.985
REMARK UNBOUND:                -1.253
REMARK  Name = 
REMARK  8 active torsions:
REMARK  status: ('A' for Active; 'I' for Inactive)
REMARK    1  A    between atoms: C_1  and  C_2
REMARK    2  A    between atoms: C_2  and  N_3
REMARK    3  A    between atoms: C_2  and  C_25
REMARK    4  A    between atoms: N_3  and  C_4
REMARK    5  A    between atoms: C_4  and  C_5
REMARK    6  A    between atoms: C_9  and  C_10
REMARK    7  A    between atoms: C_10  and  N_11
REMARK    8  A    between atoms: C_12  and  C_14
REMARK                            x       y       z     vdW  Elec       q    Type
REMARK                         _______ _______ _______ _____ _____    ______ ____
ROOT
ATOM      1  C   UNL     1      50.881   3.711  17.934  0.00  0.00    +0.000 A 
ATOM      2  C   UNL     1      51.264   2.486  17.394  0.00  0.00    +0.000 A 
ATOM      3  N   UNL     1      50.432   1.653  16.727  0.00  0.00    +0.000 NA
ATOM      4  C   UNL     1      49.149   2.054  16.593  0.00  0.00    +0.000 A 
ATOM      5  C   UNL     1      48.652   3.246  17.104  0.00  0.00    +0.000 A 
ATOM      6  C   UNL     1      49.545   4.089  17.772  0.00  0.00    +0.000 A 
ENDROOT
BRANCH   1   7
ATOM      7  C   UNL     1      51.880   4.613  18.611  0.00  0.00    +0.000 C 
BRANCH   7   8
ATOM      8  N   UNL     1      51.928   4.393  20.058  0.00  0.00    +0.000 NA
ATOM      9  H   UNL     1      51.233   3.691  20.307  0.00  0.00    +0.000 HD
BRANCH   8  11
ATOM     10  C   UNL     1      52.170   5.515  22.285  0.00  0.00    +0.000 C 
ATOM     11  C   UNL     1      51.644   5.602  20.847  0.00  0.00    +0.000 C 
BRANCH  11  12
ATOM     12  C   UNL     1      50.146   5.889  20.899  0.00  0.00    +0.000 A 
ATOM     13  C   UNL     1      49.288   5.001  21.573  0.00  0.00    +0.000 A 
ATOM     14  C   UNL     1      47.904   5.189  21.559  0.00  0.00    +0.000 A 
ATOM     15  C   UNL     1      47.354   6.273  20.878  0.00  0.00    +0.000 A 
ATOM     16  C   UNL     1      48.191   7.169  20.219  0.00  0.00    +0.000 A 
ATOM     17 CL   UNL     1      47.511   8.511  19.383  0.00  0.00    +0.000 Cl
ATOM     18  C   UNL     1      49.575   6.980  20.220  0.00  0.00    +0.000 A 
ENDBRANCH  11  12
ENDBRANCH   8  11
ENDBRANCH   7   8
ENDBRANCH   1   7
BRANCH   5  19
ATOM     19  C   UNL     1      47.221   3.631  16.893  0.00  0.00    +0.000 C 
BRANCH  19  20
ATOM     20  N   UNL     1      47.096   4.650  15.884  0.00  0.00    +0.000 N 
ATOM     21  C   UNL     1      47.063   4.357  14.547  0.00  0.00    +0.000 C 
ATOM     22  O   UNL     1      47.142   3.206  14.125  0.00  0.00    +0.000 OA
ATOM     23  H   UNL     1      47.275   5.606  16.177  0.00  0.00    +0.000 HD
BRANCH  21  24
ATOM     24  C   UNL     1      46.852   5.493  13.642  0.00  0.00    +0.000 A 
ATOM     25  C   UNL     1      45.739   5.510  12.811  0.00  0.00    +0.000 A 
ATOM     26  S   UNL     1      45.619   6.920  11.862  0.00  0.00    +0.000 S 
ATOM     27  C   UNL     1      47.074   7.535  12.490  0.00  0.00    +0.000 A 
ATOM     28  N   UNL     1      47.571   8.727  12.065  0.00  0.00    +0.000 NA
ATOM     29  C   UNL     1      48.699   9.058  12.600  0.00  0.00    +0.000 A 
ATOM     30  N   UNL     1      49.371   8.309  13.537  0.00  0.00    +0.000 N 
ATOM     31  C   UNL     1      48.873   7.132  14.041  0.00  0.00    +0.000 A 
ATOM     32  O   UNL     1      49.442   6.546  14.956  0.00  0.00    +0.000 OA
ATOM     33  C   UNL     1      47.630   6.693  13.437  0.00  0.00    +0.000 A 
ATOM     34  H   UNL     1      50.235   8.639  13.935  0.00  0.00    +0.000 HD
ENDBRANCH  21  24
ENDBRANCH  19  20
ENDBRANCH   5  19
TORSDOF 7
ENDMDL
MODEL 5
REMARK VINA RESULT:    -7.317      3.843      7.937
REMARK INTER + INTRA:         -11.564
REMARK INTER:                  -9.832
REMARK INTRA:                  -1.732
REMARK UNBOUND:                -1.253
REMARK  Name = 
REMARK  8 active torsions:
REMARK  status: ('A' for Active; 'I' for Inactive)
REMARK    1  A    between atoms: C_1  and  C_2
REMARK    2  A    between atoms: C_2  and  N_3
REMARK    3  A    between atoms: C_2  and  C_25
REMARK    4  A    between atoms: N_3  and  C_4
REMARK    5  A    between atoms: C_4  and  C_5
REMARK    6  A    between atoms: C_9  and  C_10
REMARK    7  A    between atoms: C_10  and  N_11
REMARK    8  A    between atoms: C_12  and  C_14
REMARK                            x       y       z     vdW  Elec       q    Type
REMARK                         _______ _______ _______ _____ _____    ______ ____
ROOT
ATOM      1  C   UNL     1      48.709   8.212  18.918  0.00  0.00    +0.000 A 
ATOM      2  C   UNL     1      48.076   9.451  18.901  0.00  0.00    +0.000 A 
ATOM      3  N   UNL     1      47.760  10.131  17.774  0.00  0.00    +0.000 NA
ATOM      4  C   UNL     1      48.094   9.551  16.601  0.00  0.00    +0.000 A 
ATOM      5  C   UNL     1      48.741   8.327  16.497  0.00  0.00    +0.000 A 
ATOM      6  C   UNL     1      49.036   7.646  17.682  0.00  0.00    +0.000 A 
ENDROOT
BRANCH   1   7
ATOM      7  C   UNL     1      48.974   7.487  20.213  0.00  0.00    +0.000 C 
BRANCH   7   8
ATOM      8  N   UNL     1      47.941   6.493  20.508  0.00  0.00    +0.000 NA
ATOM      9  H   UNL     1      47.531   6.704  21.417  0.00  0.00    +0.000 HD
BRANCH   8  11
ATOM     10  C   UNL     1      49.882   5.023  21.100  0.00  0.00    +0.000 C 
ATOM     11  C   UNL     1      48.450   5.112  20.559  0.00  0.00    +0.000 C 
BRANCH  11  12
ATOM     12  C   UNL     1      48.415   4.459  19.180  0.00  0.00    +0.000 A 
ATOM     13  C   UNL     1      47.291   4.635  18.352  0.00  0.00    +0.000 A 
ATOM     14  C   UNL     1      47.192   3.975  17.125  0.00  0.00    +0.000 A 
ATOM     15  C   UNL     1      48.219   3.135  16.700  0.00  0.00    +0.000 A 
ATOM     16  C   UNL     1      49.344   2.962  17.502  0.00  0.00    +0.000 A 
ATOM     17 CL   UNL     1      50.614   1.927  16.973  0.00  0.00    +0.000 Cl
ATOM     18  C   UNL     1      49.444   3.610  18.734  0.00  0.00    +0.000 A 
ENDBRANCH  11  12
ENDBRANCH   8  11
ENDBRANCH   7   8
ENDBRANCH   1   7
BRANCH   5  19
ATOM     19  C   UNL     1      49.058   7.740  15.157  0.00  0.00    +0.000 C 
BRANCH  19  20
ATOM     20  N   UNL     1      47.857   7.422  14.429  0.00  0.00    +0.000 N 
ATOM     21  C   UNL     1      47.864   6.623  13.317  0.00  0.00    +0.000 C 
ATOM     22  O   UNL     1      48.897   6.131  12.868  0.00  0.00    +0.000 OA
ATOM     23  H   UNL     1      47.042   7.997  14.619  0.00  0.00    +0.000 HD
BRANCH  21  24
ATOM     24  C   UNL     1      46.553   6.322  12.729  0.00  0.00    +0.000 A 
ATOM     25  C   UNL     1      45.797   7.350  12.180  0.00  0.00    +0.000 A 
ATOM     26  S   UNL     1      44.326   6.824  11.498  0.00  0.00    +0.000 S 
ATOM     27  C   UNL     1      44.624   5.214  11.956  0.00  0.00    +0.000 A 
ATOM     28  N   UNL     1      43.721   4.233  11.692  0.00  0.00    +0.000 NA
ATOM     29  C   UNL     1      44.059   3.063  12.124  0.00  0.00    +0.000 A 
ATOM     30  N   UNL     1      45.230   2.782  12.788  0.00  0.00    +0.000 N 
ATOM     31  C   UNL     1      46.198   3.730  13.018  0.00  0.00    +0.000 A 
ATOM     32  O   UNL     1      47.277   3.423  13.512  0.00  0.00    +0.000 OA
ATOM     33  C   UNL     1      45.845   5.071  12.592  0.00  0.00    +0.000 A 
ATOM     34  H   UNL     1      45.445   1.841  13.075  0.00  0.00    +0.000 HD
ENDBRANCH  21  24
ENDBRANCH  19  20
ENDBRANCH   5  19
TORSDOF 7
ENDMDL
MODEL 6
REMARK VINA RESULT:    -7.298      3.981      8.347
REMARK INTER + INTRA:         -11.537
REMARK INTER:                 -10.383
REMARK INTRA:                  -1.154
REMARK UNBOUND:                -1.253
REMARK  Name = 
REMARK  8 active torsions:
REMARK  status: ('A' for Active; 'I' for Inactive)
REMARK    1  A    between atoms: C_1  and  C_2
REMARK    2  A    between atoms: C_2  and  N_3
REMARK    3  A    between atoms: C_2  and  C_25
REMARK    4  A    between atoms: N_3  and  C_4
REMARK    5  A    between atoms: C_4  and  C_5
REMARK    6  A    between atoms: C_9  and  C_10
REMARK    7  A    between atoms: C_10  and  N_11
REMARK    8  A    between atoms: C_12  and  C_14
REMARK                            x       y       z     vdW  Elec       q    Type
REMARK                         _______ _______ _______ _____ _____    ______ ____
ROOT
ATOM      1  C   UNL     1      49.559   7.095  15.195  0.00  0.00    +0.000 A 
ATOM      2  C   UNL     1      50.734   7.825  15.035  0.00  0.00    +0.000 A 
ATOM      3  N   UNL     1      51.049   8.527  13.921  0.00  0.00    +0.000 NA
ATOM      4  C   UNL     1      50.153   8.499  12.911  0.00  0.00    +0.000 A 
ATOM      5  C   UNL     1      48.958   7.793  12.953  0.00  0.00    +0.000 A 
ATOM      6  C   UNL     1      48.658   7.094  14.126  0.00  0.00    +0.000 A 
ENDROOT
BRANCH   1   7
ATOM      7  C   UNL     1      49.250   6.387  16.489  0.00  0.00    +0.000 C 
BRANCH   7   8
ATOM      8  N   UNL     1      48.931   4.974  16.280  0.00  0.00    +0.000 NA
ATOM      9  H   UNL     1      47.982   4.901  15.915  0.00  0.00    +0.000 HD
BRANCH   8  11
ATOM     10  C   UNL     1      48.845   5.006  18.784  0.00  0.00    +0.000 C 
ATOM     11  C   UNL     1      48.998   4.167  17.510  0.00  0.00    +0.000 C 
BRANCH  11  12
ATOM     12  C   UNL     1      50.313   3.397  17.595  0.00  0.00    +0.000 A 
ATOM     13  C   UNL     1      50.344   2.030  17.264  0.00  0.00    +0.000 A 
ATOM     14  C   UNL     1      51.512   1.280  17.420  0.00  0.00    +0.000 A 
ATOM     15  C   UNL     1      52.671   1.885  17.902  0.00  0.00    +0.000 A 
ATOM     16  C   UNL     1      52.660   3.240  18.220  0.00  0.00    +0.000 A 
ATOM     17 CL   UNL     1      54.094   3.988  18.809  0.00  0.00    +0.000 Cl
ATOM     18  C   UNL     1      51.493   3.993  18.076  0.00  0.00    +0.000 A 
ENDBRANCH  11  12
ENDBRANCH   8  11
ENDBRANCH   7   8
ENDBRANCH   1   7
BRANCH   5  19
ATOM     19  C   UNL     1      48.006   7.831  11.799  0.00  0.00    +0.000 C 
BRANCH  19  20
ATOM     20  N   UNL     1      47.189   6.647  11.756  0.00  0.00    +0.000 N 
ATOM     21  C   UNL     1      45.820   6.700  11.771  0.00  0.00    +0.000 C 
ATOM     22  O   UNL     1      45.205   7.761  11.828  0.00  0.00    +0.000 OA
ATOM     23  H   UNL     1      47.652   5.765  11.955  0.00  0.00    +0.000 HD
BRANCH  21  24
ATOM     24  C   UNL     1      45.123   5.414  11.641  0.00  0.00    +0.000 A 
ATOM     25  C   UNL     1      44.421   4.903  12.725  0.00  0.00    +0.000 A 
ATOM     26  S   UNL     1      43.631   3.430  12.391  0.00  0.00    +0.000 S 
ATOM     27  C   UNL     1      44.239   3.398  10.804  0.00  0.00    +0.000 A 
ATOM     28  N   UNL     1      43.957   2.365   9.967  0.00  0.00    +0.000 NA
ATOM     29  C   UNL     1      44.509   2.453   8.803  0.00  0.00    +0.000 A 
ATOM     30  N   UNL     1      45.311   3.491   8.392  0.00  0.00    +0.000 N 
ATOM     31  C   UNL     1      45.569   4.585   9.183  0.00  0.00    +0.000 A 
ATOM     32  O   UNL     1      46.195   5.546   8.747  0.00  0.00    +0.000 OA
ATOM     33  C   UNL     1      45.008   4.513  10.518  0.00  0.00    +0.000 A 
ATOM     34  H   UNL     1      45.690   3.511   7.460  0.00  0.00    +0.000 HD
ENDBRANCH  21  24
ENDBRANCH  19  20
ENDBRANCH   5  19
TORSDOF 7
ENDMDL
MODEL 7
REMARK VINA RESULT:    -7.250      4.208      8.422
REMARK INTER + INTRA:         -11.470
REMARK INTER:                  -9.675
REMARK INTRA:                  -1.795
REMARK UNBOUND:                -1.253
REMARK  Name = 
REMARK  8 active torsions:
REMARK  status: ('A' for Active; 'I' for Inactive)
REMARK    1  A    between atoms: C_1  and  C_2
REMARK    2  A    between atoms: C_2  and  N_3
REMARK    3  A    between atoms: C_2  and  C_25
REMARK    4  A    between atoms: N_3  and  C_4
REMARK    5  A    between atoms: C_4  and  C_5
REMARK    6  A    between atoms: C_9  and  C_10
REMARK    7  A    between atoms: C_10  and  N_11
REMARK    8  A    between atoms: C_12  and  C_14
REMARK                            x       y       z     vdW  Elec       q    Type
REMARK                         _______ _______ _______ _____ _____    ______ ____
ROOT
ATOM      1  C   UNL     1      50.930   3.964  17.716  0.00  0.00    +0.000 A 
ATOM      2  C   UNL     1      51.341   2.686  17.351  0.00  0.00    +0.000 A 
ATOM      3  N   UNL     1      50.516   1.728  16.867  0.00  0.00    +0.000 NA
ATOM      4  C   UNL     1      49.212   2.055  16.743  0.00  0.00    +0.000 A 
ATOM      5  C   UNL     1      48.686   3.293  17.091  0.00  0.00    +0.000 A 
ATOM      6  C   UNL     1      49.571   4.263  17.571  0.00  0.00    +0.000 A 
ENDROOT
BRANCH   1   7
ATOM      7  C   UNL     1      51.918   4.998  18.190  0.00  0.00    +0.000 C 
BRANCH   7   8
ATOM      8  N   UNL     1      51.543   6.351  17.774  0.00  0.00    +0.000 NA
ATOM      9  H   UNL     1      50.561   6.504  18.002  0.00  0.00    +0.000 HD
BRANCH   8  11
ATOM     10  C   UNL     1      53.122   7.047  15.958  0.00  0.00    +0.000 C 
ATOM     11  C   UNL     1      51.707   6.590  16.331  0.00  0.00    +0.000 C 
BRANCH  11  12
ATOM     12  C   UNL     1      50.715   7.635  15.827  0.00  0.00    +0.000 A 
ATOM     13  C   UNL     1      49.537   7.886  16.554  0.00  0.00    +0.000 A 
ATOM     14  C   UNL     1      48.569   8.769  16.069  0.00  0.00    +0.000 A 
ATOM     15  C   UNL     1      48.766   9.422  14.854  0.00  0.00    +0.000 A 
ATOM     16  C   UNL     1      49.933   9.194  14.131  0.00  0.00    +0.000 A 
ATOM     17 CL   UNL     1      50.178  10.006  12.632  0.00  0.00    +0.000 Cl
ATOM     18  C   UNL     1      50.899   8.305  14.604  0.00  0.00    +0.000 A 
ENDBRANCH  11  12
ENDBRANCH   8  11
ENDBRANCH   7   8
ENDBRANCH   1   7
BRANCH   5  19
ATOM     19  C   UNL     1      47.230   3.586  16.902  0.00  0.00    +0.000 C 
BRANCH  19  20
ATOM     20  N   UNL     1      47.024   4.559  15.861  0.00  0.00    +0.000 N 
ATOM     21  C   UNL     1      47.043   4.227  14.533  0.00  0.00    +0.000 C 
ATOM     22  O   UNL     1      47.242   3.078  14.146  0.00  0.00    +0.000 OA
ATOM     23  H   UNL     1      47.102   5.536  16.128  0.00  0.00    +0.000 HD
BRANCH  21  24
ATOM     24  C   UNL     1      46.736   5.312  13.592  0.00  0.00    +0.000 A 
ATOM     25  C   UNL     1      47.733   6.211  13.235  0.00  0.00    +0.000 A 
ATOM     26  S   UNL     1      47.225   7.376  12.100  0.00  0.00    +0.000 S 
ATOM     27  C   UNL     1      45.643   6.752  12.082  0.00  0.00    +0.000 A 
ATOM     28  N   UNL     1      44.674   7.322  11.319  0.00  0.00    +0.000 NA
ATOM     29  C   UNL     1      43.512   6.767  11.426  0.00  0.00    +0.000 A 
ATOM     30  N   UNL     1      43.234   5.680  12.220  0.00  0.00    +0.000 N 
ATOM     31  C   UNL     1      44.197   5.034  12.956  0.00  0.00    +0.000 A 
ATOM     32  O   UNL     1      43.939   4.001  13.565  0.00  0.00    +0.000 OA
ATOM     33  C   UNL     1      45.510   5.647  12.906  0.00  0.00    +0.000 A 
ATOM     34  H   UNL     1      42.310   5.279  12.237  0.00  0.00    +0.000 HD
ENDBRANCH  21  24
ENDBRANCH  19  20
ENDBRANCH   5  19
TORSDOF 7
ENDMDL
MODEL 8
REMARK VINA RESULT:    -7.196      3.560      5.843
REMARK INTER + INTRA:         -11.394
REMARK INTER:                  -9.665
REMARK INTRA:                  -1.729
REMARK UNBOUND:                -1.253
REMARK  Name = 
REMARK  8 active torsions:
REMARK  status: ('A' for Active; 'I' for Inactive)
REMARK    1  A    between atoms: C_1  and  C_2
REMARK    2  A    between atoms: C_2  and  N_3
REMARK    3  A    between atoms: C_2  and  C_25
REMARK    4  A    between atoms: N_3  and  C_4
REMARK    5  A    between atoms: C_4  and  C_5
REMARK    6  A    between atoms: C_9  and  C_10
REMARK    7  A    between atoms: C_10  and  N_11
REMARK    8  A    between atoms: C_12  and  C_14
REMARK                            x       y       z     vdW  Elec       q    Type
REMARK                         _______ _______ _______ _____ _____    ______ ____
ROOT
ATOM      1  C   UNL     1      44.411   6.144  11.529  0.00  0.00    +0.000 A 
ATOM      2  C   UNL     1      43.465   5.313  10.935  0.00  0.00    +0.000 A 
ATOM      3  N   UNL     1      43.440   3.967  11.072  0.00  0.00    +0.000 NA
ATOM      4  C   UNL     1      44.407   3.415  11.835  0.00  0.00    +0.000 A 
ATOM      5  C   UNL     1      45.411   4.142  12.462  0.00  0.00    +0.000 A 
ATOM      6  C   UNL     1      45.395   5.532  12.312  0.00  0.00    +0.000 A 
ENDROOT
BRANCH   1   7
ATOM      7  C   UNL     1      44.339   7.642  11.380  0.00  0.00    +0.000 C 
BRANCH   7   8
ATOM      8  N   UNL     1      44.841   8.337  12.566  0.00  0.00    +0.000 NA
ATOM      9  H   UNL     1      44.098   8.376  13.263  0.00  0.00    +0.000 HD
BRANCH   8  11
ATOM     10  C   UNL     1      44.462  10.396  11.189  0.00  0.00    +0.000 C 
ATOM     11  C   UNL     1      45.275   9.718  12.299  0.00  0.00    +0.000 C 
BRANCH  11  12
ATOM     12  C   UNL     1      46.751   9.770  11.915  0.00  0.00    +0.000 A 
ATOM     13  C   UNL     1      47.595   8.694  12.243  0.00  0.00    +0.000 A 
ATOM     14  C   UNL     1      48.967   8.753  11.986  0.00  0.00    +0.000 A 
ATOM     15  C   UNL     1      49.517   9.885  11.389  0.00  0.00    +0.000 A 
ATOM     16  C   UNL     1      48.692  10.952  11.046  0.00  0.00    +0.000 A 
ATOM     17 CL   UNL     1      49.372  12.349  10.303  0.00  0.00    +0.000 Cl
ATOM     18  C   UNL     1      47.322  10.904  11.310  0.00  0.00    +0.000 A 
ENDBRANCH  11  12
ENDBRANCH   8  11
ENDBRANCH   7   8
ENDBRANCH   1   7
BRANCH   5  19
ATOM     19  C   UNL     1      46.436   3.458  13.311  0.00  0.00    +0.000 C 
BRANCH  19  20
ATOM     20  N   UNL     1      46.728   4.222  14.496  0.00  0.00    +0.000 N 
ATOM     21  C   UNL     1      47.546   3.752  15.488  0.00  0.00    +0.000 C 
ATOM     22  O   UNL     1      48.079   2.646  15.431  0.00  0.00    +0.000 OA
ATOM     23  H   UNL     1      46.124   5.015  14.687  0.00  0.00    +0.000 HD
BRANCH  21  24
ATOM     24  C   UNL     1      47.815   4.677  16.596  0.00  0.00    +0.000 A 
ATOM     25  C   UNL     1      47.412   4.339  17.882  0.00  0.00    +0.000 A 
ATOM     26  S   UNL     1      47.843   5.498  19.056  0.00  0.00    +0.000 S 
ATOM     27  C   UNL     1      48.537   6.513  17.882  0.00  0.00    +0.000 A 
ATOM     28  N   UNL     1      49.077   7.712  18.225  0.00  0.00    +0.000 NA
ATOM     29  C   UNL     1      49.539   8.395  17.231  0.00  0.00    +0.000 A 
ATOM     30  N   UNL     1      49.523   7.980  15.920  0.00  0.00    +0.000 N 
ATOM     31  C   UNL     1      49.046   6.749  15.538  0.00  0.00    +0.000 A 
ATOM     32  O   UNL     1      49.148   6.364  14.379  0.00  0.00    +0.000 OA
ATOM     33  C   UNL     1      48.472   5.963  16.613  0.00  0.00    +0.000 A 
ATOM     34  H   UNL     1      49.925   8.551  15.195  0.00  0.00    +0.000 HD
ENDBRANCH  21  24
ENDBRANCH  19  20
ENDBRANCH   5  19
TORSDOF 7
ENDMDL
MODEL 9
REMARK VINA RESULT:    -6.985      3.957      6.286
REMARK INTER + INTRA:         -11.096
REMARK INTER:                  -8.768
REMARK INTRA:                  -2.329
REMARK UNBOUND:                -1.253
REMARK  Name = 
REMARK  8 active torsions:
REMARK  status: ('A' for Active; 'I' for Inactive)
REMARK    1  A    between atoms: C_1  and  C_2
REMARK    2  A    between atoms: C_2  and  N_3
REMARK    3  A    between atoms: C_2  and  C_25
REMARK    4  A    between atoms: N_3  and  C_4
REMARK    5  A    between atoms: C_4  and  C_5
REMARK    6  A    between atoms: C_9  and  C_10
REMARK    7  A    between atoms: C_10  and  N_11
REMARK    8  A    between atoms: C_12  and  C_14
REMARK                            x       y       z     vdW  Elec       q    Type
REMARK                         _______ _______ _______ _____ _____    ______ ____
ROOT
ATOM      1  C   UNL     1      45.773   6.932  12.904  0.00  0.00    +0.000 A 
ATOM      2  C   UNL     1      44.595   6.471  12.323  0.00  0.00    +0.000 A 
ATOM      3  N   UNL     1      44.178   5.185  12.363  0.00  0.00    +0.000 NA
ATOM      4  C   UNL     1      44.974   4.307  13.011  0.00  0.00    +0.000 A 
ATOM      5  C   UNL     1      46.178   4.650  13.613  0.00  0.00    +0.000 A 
ATOM      6  C   UNL     1      46.568   5.992  13.566  0.00  0.00    +0.000 A 
ENDROOT
BRANCH   1   7
ATOM      7  C   UNL     1      46.142   8.393  12.869  0.00  0.00    +0.000 C 
BRANCH   7   8
ATOM      8  N   UNL     1      46.908   8.795  14.050  0.00  0.00    +0.000 NA
ATOM      9  H   UNL     1      46.363   9.474  14.581  0.00  0.00    +0.000 HD
BRANCH   8  11
ATOM     10  C   UNL     1      48.446   9.545  12.220  0.00  0.00    +0.000 C 
ATOM     11  C   UNL     1      48.203   9.417  13.729  0.00  0.00    +0.000 C 
BRANCH  11  12
ATOM     12  C   UNL     1      49.360   8.631  14.339  0.00  0.00    +0.000 A 
ATOM     13  C   UNL     1      49.127   7.784  15.437  0.00  0.00    +0.000 A 
ATOM     14  C   UNL     1      50.181   7.124  16.072  0.00  0.00    +0.000 A 
ATOM     15  C   UNL     1      51.487   7.294  15.615  0.00  0.00    +0.000 A 
ATOM     16  C   UNL     1      51.732   8.118  14.520  0.00  0.00    +0.000 A 
ATOM     17 CL   UNL     1      53.345   8.322  13.954  0.00  0.00    +0.000 Cl
ATOM     18  C   UNL     1      50.683   8.788  13.888  0.00  0.00    +0.000 A 
ENDBRANCH  11  12
ENDBRANCH   8  11
ENDBRANCH   7   8
ENDBRANCH   1   7
BRANCH   5  19
ATOM     19  C   UNL     1      46.994   3.622  14.333  0.00  0.00    +0.000 C 
BRANCH  19  20
ATOM     20  N   UNL     1      47.704   4.202  15.443  0.00  0.00    +0.000 N 
ATOM     21  C   UNL     1      47.364   3.947  16.744  0.00  0.00    +0.000 C 
ATOM     22  O   UNL     1      46.427   3.212  17.046  0.00  0.00    +0.000 OA
ATOM     23  H   UNL     1      48.310   4.990  15.235  0.00  0.00    +0.000 HD
BRANCH  21  24
ATOM     24  C   UNL     1      48.230   4.545  17.767  0.00  0.00    +0.000 A 
ATOM     25  C   UNL     1      47.748   5.587  18.549  0.00  0.00    +0.000 A 
ATOM     26  S   UNL     1      48.862   6.133  19.718  0.00  0.00    +0.000 S 
ATOM     27  C   UNL     1      50.044   5.032  19.188  0.00  0.00    +0.000 A 
ATOM     28  N   UNL     1      51.275   4.995  19.764  0.00  0.00    +0.000 NA
ATOM     29  C   UNL     1      52.085   4.135  19.243  0.00  0.00    +0.000 A 
ATOM     30  N   UNL     1      51.770   3.293  18.203  0.00  0.00    +0.000 N 
ATOM     31  C   UNL     1      50.520   3.252  17.635  0.00  0.00    +0.000 A 
ATOM     32  O   UNL     1      50.239   2.413  16.786  0.00  0.00    +0.000 OA
ATOM     33  C   UNL     1      49.587   4.233  18.155  0.00  0.00    +0.000 A 
ATOM     34  H   UNL     1      52.441   2.625  17.860  0.00  0.00    +0.000 HD
ENDBRANCH  21  24
ENDBRANCH  19  20
ENDBRANCH   5  19
TORSDOF 7
ENDMDL
