MODEL 1
REMARK VINA RESULT:    -7.694      0.000      0.000
REMARK INTER + INTRA:         -11.020
REMARK INTER:                 -10.393
REMARK INTRA:                  -0.627
REMARK UNBOUND:                -0.627
REMARK  Name = 
REMARK  6 active torsions:
REMARK  status: ('A' for Active; 'I' for Inactive)
REMARK    1  A    between atoms: C_2  and  C_20
REMARK    2  A    between atoms: N_3  and  C_4
REMARK    3  A    between atoms: C_4  and  C_5
REMARK    4  A    between atoms: C_8  and  C_9
REMARK    5  A    between atoms: C_10  and  C_11
REMARK    6  A    between atoms: C_11  and  N_12
REMARK                            x       y       z     vdW  Elec       q    Type
REMARK                         _______ _______ _______ _____ _____    ______ ____
ROOT
ATOM      1  C   UNL     1      43.853   4.138  11.576  0.00  0.00    +0.000 C 
ENDROOT
BRANCH   1   2
ATOM      2  C   UNL     1      44.512   3.787  10.273  0.00  0.00    +0.000 A 
ATOM      3  C   UNL     1      44.446   2.479   9.775  0.00  0.00    +0.000 A 
ATOM      4  C   UNL     1      45.065   2.152   8.566  0.00  0.00    +0.000 A 
ATOM      5  C   UNL     1      45.766   3.123   7.850  0.00  0.00    +0.000 A 
ATOM      6  C   UNL     1      45.828   4.431   8.331  0.00  0.00    +0.000 A 
ATOM      7  C   UNL     1      45.207   4.760   9.541  0.00  0.00    +0.000 A 
BRANCH   5   8
ATOM      8  C   UNL     1      46.400   2.763   6.620  0.00  0.00    +0.000 C 
ATOM      9  C   UNL     1      46.840   2.399   5.560  0.00  0.00    +0.000 C 
BRANCH   9  10
ATOM     10  C   UNL     1      47.227   1.909   4.228  0.00  0.00    +0.000 C 
BRANCH  10  11
ATOM     11  N   UNL     1      46.402   0.751   3.838  0.00  0.00    +0.000 NA
ATOM     12  C   UNL     1      45.776   0.961   2.522  0.00  0.00    +0.000 C 
ATOM     13  C   UNL     1      44.851  -0.199   2.162  0.00  0.00    +0.000 C 
ATOM     14  C   UNL     1      45.597  -1.526   2.188  0.00  0.00    +0.000 C 
ATOM     15  C   UNL     1      46.327  -1.700   3.514  0.00  0.00    +0.000 C 
ATOM     16  C   UNL     1      47.200  -0.484   3.840  0.00  0.00    +0.000 C 
ENDBRANCH  10  11
ENDBRANCH   9  10
ENDBRANCH   5   8
ENDBRANCH   1   2
BRANCH   1  19
ATOM     17  O   UNL     1      45.837   2.773  12.902  0.00  0.00    +0.000 OA
ATOM     18  C   UNL     1      45.735   3.980  13.109  0.00  0.00    +0.000 C 
ATOM     19  N   UNL     1      44.761   4.748  12.512  0.00  0.00    +0.000 N 
ATOM     20  H   UNL     1      44.785   5.750  12.667  0.00  0.00    +0.000 HD
BRANCH  18  21
ATOM     21  C   UNL     1      46.655   4.707  13.997  0.00  0.00    +0.000 A 
ATOM     22  N   UNL     1      46.791   4.423  15.313  0.00  0.00    +0.000 NA
ATOM     23  N   UNL     1      47.735   5.302  15.727  0.00  0.00    +0.000 N 
ATOM     24  C   UNL     1      48.173   6.152  14.755  0.00  0.00    +0.000 A 
ATOM     25  N   UNL     1      49.077   7.139  14.897  0.00  0.00    +0.000 NA
ATOM     26  C   UNL     1      49.289   7.820  13.744  0.00  0.00    +0.000 A 
ATOM     27  C   UNL     1      48.682   7.559  12.520  0.00  0.00    +0.000 A 
ATOM     28  C   UNL     1      47.764   6.513  12.433  0.00  0.00    +0.000 A 
ATOM     29  C   UNL     1      47.496   5.789  13.604  0.00  0.00    +0.000 A 
ATOM     30  H   UNL     1      48.043   5.286  16.692  0.00  0.00    +0.000 HD
ENDBRANCH  18  21
ENDBRANCH   1  19
TORSDOF 6
ENDMDL
MODEL 2
REMARK VINA RESULT:    -7.456      1.415      2.106
REMARK INTER + INTRA:         -10.698
REMARK INTER:                 -10.242
REMARK INTRA:                  -0.457
REMARK UNBOUND:                -0.627
REMARK  Name = 
REMARK  6 active torsions:
REMARK  status: ('A' for Active; 'I' for Inactive)
REMARK    1  A    between atoms: C_2  and  C_20
REMARK    2  A    between atoms: N_3  and  C_4
REMARK    3  A    between atoms: C_4  and  C_5
REMARK    4  A    between atoms: C_8  and  C_9
REMARK    5  A    between atoms: C_10  and  C_11
REMARK    6  A    between atoms: C_11  and  N_12
REMARK                            x       y       z     vdW  Elec       q    Type
REMARK                         _______ _______ _______ _____ _____    ______ ____
ROOT
ATOM      1  C   UNL     1      43.954   4.488  12.157  0.00  0.00    +0.000 C 
ENDROOT
BRANCH   1   2
ATOM      2  C   UNL     1      44.499   4.107  10.810  0.00  0.00    +0.000 A 
ATOM      3  C   UNL     1      44.307   2.813  10.308  0.00  0.00    +0.000 A 
ATOM      4  C   UNL     1      44.819   2.459   9.058  0.00  0.00    +0.000 A 
ATOM      5  C   UNL     1      45.537   3.387   8.302  0.00  0.00    +0.000 A 
ATOM      6  C   UNL     1      45.724   4.681   8.788  0.00  0.00    +0.000 A 
ATOM      7  C   UNL     1      45.210   5.038  10.039  0.00  0.00    +0.000 A 
BRANCH   5   8
ATOM      8  C   UNL     1      46.060   2.998   7.030  0.00  0.00    +0.000 C 
ATOM      9  C   UNL     1      46.584   2.618   6.015  0.00  0.00    +0.000 C 
BRANCH   9  10
ATOM     10  C   UNL     1      47.306   2.048   4.867  0.00  0.00    +0.000 C 
BRANCH  10  11
ATOM     11  N   UNL     1      46.514   0.983   4.227  0.00  0.00    +0.000 NA
ATOM     12  C   UNL     1      45.950   1.434   2.944  0.00  0.00    +0.000 C 
ATOM     13  C   UNL     1      45.055   0.360   2.329  0.00  0.00    +0.000 C 
ATOM     14  C   UNL     1      45.812  -0.947   2.144  0.00  0.00    +0.000 C 
ATOM     15  C   UNL     1      46.480  -1.365   3.449  0.00  0.00    +0.000 C 
ATOM     16  C   UNL     1      47.323  -0.231   4.038  0.00  0.00    +0.000 C 
ENDBRANCH  10  11
ENDBRANCH   9  10
ENDBRANCH   5   8
ENDBRANCH   1   2
BRANCH   1  19
ATOM     17  O   UNL     1      46.041   3.124  13.316  0.00  0.00    +0.000 OA
ATOM     18  C   UNL     1      45.964   4.333  13.519  0.00  0.00    +0.000 C 
ATOM     19  N   UNL     1      44.944   5.100  13.003  0.00  0.00    +0.000 N 
ATOM     20  H   UNL     1      44.986   6.104  13.146  0.00  0.00    +0.000 HD
BRANCH  18  21
ATOM     21  C   UNL     1      46.961   5.063  14.316  0.00  0.00    +0.000 A 
ATOM     22  N   UNL     1      47.538   6.214  13.903  0.00  0.00    +0.000 NA
ATOM     23  N   UNL     1      48.357   6.541  14.931  0.00  0.00    +0.000 N 
ATOM     24  C   UNL     1      48.358   5.639  15.954  0.00  0.00    +0.000 A 
ATOM     25  N   UNL     1      49.098   5.698  17.077  0.00  0.00    +0.000 NA
ATOM     26  C   UNL     1      48.885   4.638  17.896  0.00  0.00    +0.000 A 
ATOM     27  C   UNL     1      48.002   3.590  17.659  0.00  0.00    +0.000 A 
ATOM     28  C   UNL     1      47.252   3.593  16.483  0.00  0.00    +0.000 A 
ATOM     29  C   UNL     1      47.450   4.660  15.593  0.00  0.00    +0.000 A 
ATOM     30  H   UNL     1      48.903   7.393  14.883  0.00  0.00    +0.000 HD
ENDBRANCH  18  21
ENDBRANCH   1  19
TORSDOF 6
ENDMDL
MODEL 3
REMARK VINA RESULT:    -7.279      3.476      5.767
REMARK INTER + INTRA:         -10.460
REMARK INTER:                  -9.893
REMARK INTRA:                  -0.567
REMARK UNBOUND:                -0.627
REMARK  Name = 
REMARK  6 active torsions:
REMARK  status: ('A' for Active; 'I' for Inactive)
REMARK    1  A    between atoms: C_2  and  C_20
REMARK    2  A    between atoms: N_3  and  C_4
REMARK    3  A    between atoms: C_4  and  C_5
REMARK    4  A    between atoms: C_8  and  C_9
REMARK    5  A    between atoms: C_10  and  C_11
REMARK    6  A    between atoms: C_11  and  N_12
REMARK                            x       y       z     vdW  Elec       q    Type
REMARK                         _______ _______ _______ _____ _____    ______ ____
ROOT
ATOM      1  C   UNL     1      48.674   7.350  14.954  0.00  0.00    +0.000 C 
ENDROOT
BRANCH   1   2
ATOM      2  C   UNL     1      47.837   6.734  13.870  0.00  0.00    +0.000 A 
ATOM      3  C   UNL     1      47.281   5.460  14.041  0.00  0.00    +0.000 A 
ATOM      4  C   UNL     1      46.507   4.885  13.029  0.00  0.00    +0.000 A 
ATOM      5  C   UNL     1      46.291   5.572  11.833  0.00  0.00    +0.000 A 
ATOM      6  C   UNL     1      46.830   6.846  11.657  0.00  0.00    +0.000 A 
ATOM      7  C   UNL     1      47.604   7.423  12.670  0.00  0.00    +0.000 A 
BRANCH   5   8
ATOM      8  C   UNL     1      45.505   4.960  10.809  0.00  0.00    +0.000 C 
ATOM      9  C   UNL     1      44.886   4.522   9.873  0.00  0.00    +0.000 C 
BRANCH   9  10
ATOM     10  C   UNL     1      44.231   4.071   8.636  0.00  0.00    +0.000 C 
BRANCH  10  11
ATOM     11  N   UNL     1      45.098   3.135   7.897  0.00  0.00    +0.000 NA
ATOM     12  C   UNL     1      46.263   3.828   7.322  0.00  0.00    +0.000 C 
ATOM     13  C   UNL     1      47.110   2.875   6.481  0.00  0.00    +0.000 C 
ATOM     14  C   UNL     1      47.559   1.672   7.299  0.00  0.00    +0.000 C 
ATOM     15  C   UNL     1      46.363   1.012   7.975  0.00  0.00    +0.000 C 
ATOM     16  C   UNL     1      45.530   2.027   8.762  0.00  0.00    +0.000 C 
ENDBRANCH  10  11
ENDBRANCH   9  10
ENDBRANCH   5   8
ENDBRANCH   1   2
BRANCH   1  19
ATOM     17  O   UNL     1      50.067   5.500  16.437  0.00  0.00    +0.000 OA
ATOM     18  C   UNL     1      49.062   5.998  16.940  0.00  0.00    +0.000 C 
ATOM     19  N   UNL     1      48.284   6.916  16.270  0.00  0.00    +0.000 N 
ATOM     20  H   UNL     1      47.515   7.344  16.775  0.00  0.00    +0.000 HD
BRANCH  18  21
ATOM     21  C   UNL     1      48.618   5.669  18.302  0.00  0.00    +0.000 A 
ATOM     22  N   UNL     1      48.543   4.402  18.770  0.00  0.00    +0.000 NA
ATOM     23  N   UNL     1      48.117   4.563  20.045  0.00  0.00    +0.000 N 
ATOM     24  C   UNL     1      47.881   5.859  20.397  0.00  0.00    +0.000 A 
ATOM     25  N   UNL     1      47.423   6.300  21.584  0.00  0.00    +0.000 NA
ATOM     26  C   UNL     1      47.277   7.648  21.617  0.00  0.00    +0.000 A 
ATOM     27  C   UNL     1      47.568   8.524  20.576  0.00  0.00    +0.000 A 
ATOM     28  C   UNL     1      48.053   8.008  19.376  0.00  0.00    +0.000 A 
ATOM     29  C   UNL     1      48.206   6.616  19.285  0.00  0.00    +0.000 A 
ATOM     30  H   UNL     1      47.996   3.750  20.637  0.00  0.00    +0.000 HD
ENDBRANCH  18  21
ENDBRANCH   1  19
TORSDOF 6
ENDMDL
MODEL 4
REMARK VINA RESULT:    -7.044      6.440      8.946
REMARK INTER + INTRA:         -10.141
REMARK INTER:                  -9.452
REMARK INTRA:                  -0.689
REMARK UNBOUND:                -0.627
REMARK  Name = 
REMARK  6 active torsions:
REMARK  status: ('A' for Active; 'I' for Inactive)
REMARK    1  A    between atoms: C_2  and  C_20
REMARK    2  A    between atoms: N_3  and  C_4
REMARK    3  A    between atoms: C_4  and  C_5
REMARK    4  A    between atoms: C_8  and  C_9
REMARK    5  A    between atoms: C_10  and  C_11
REMARK    6  A    between atoms: C_11  and  N_12
REMARK                            x       y       z     vdW  Elec       q    Type
REMARK                         _______ _______ _______ _____ _____    ______ ____
ROOT
ATOM      1  C   UNL     1      46.627   5.490  12.895  0.00  0.00    +0.000 C 
ENDROOT
BRANCH   1   2
ATOM      2  C   UNL     1      45.974   6.782  12.495  0.00  0.00    +0.000 A 
ATOM      3  C   UNL     1      46.398   7.994  13.056  0.00  0.00    +0.000 A 
ATOM      4  C   UNL     1      45.786   9.194  12.688  0.00  0.00    +0.000 A 
ATOM      5  C   UNL     1      44.737   9.196  11.767  0.00  0.00    +0.000 A 
ATOM      6  C   UNL     1      44.315   7.996  11.194  0.00  0.00    +0.000 A 
ATOM      7  C   UNL     1      44.928   6.793  11.560  0.00  0.00    +0.000 A 
BRANCH   5   8
ATOM      8  C   UNL     1      44.120  10.435  11.413  0.00  0.00    +0.000 C 
ATOM      9  C   UNL     1      43.500  11.432  11.144  0.00  0.00    +0.000 C 
BRANCH   9  10
ATOM     10  C   UNL     1      42.620  12.586  10.900  0.00  0.00    +0.000 C 
BRANCH  10  11
ATOM     11  N   UNL     1      41.204  12.204  11.049  0.00  0.00    +0.000 NA
ATOM     12  C   UNL     1      40.848  11.107  10.133  0.00  0.00    +0.000 C 
ATOM     13  C   UNL     1      39.360  10.776  10.223  0.00  0.00    +0.000 C 
ATOM     14  C   UNL     1      38.961  10.425  11.649  0.00  0.00    +0.000 C 
ATOM     15  C   UNL     1      39.417  11.515  12.613  0.00  0.00    +0.000 C 
ATOM     16  C   UNL     1      40.905  11.833  12.440  0.00  0.00    +0.000 C 
ENDBRANCH  10  11
ENDBRANCH   9  10
ENDBRANCH   5   8
ENDBRANCH   1   2
BRANCH   1  19
ATOM     17  O   UNL     1      47.308   3.158  14.184  0.00  0.00    +0.000 OA
ATOM     18  C   UNL     1      47.187   4.174  14.864  0.00  0.00    +0.000 C 
ATOM     19  N   UNL     1      46.827   5.385  14.316  0.00  0.00    +0.000 N 
ATOM     20  H   UNL     1      46.824   6.198  14.924  0.00  0.00    +0.000 HD
BRANCH  18  21
ATOM     21  C   UNL     1      47.433   4.186  16.314  0.00  0.00    +0.000 A 
ATOM     22  N   UNL     1      46.768   3.390  17.182  0.00  0.00    +0.000 NA
ATOM     23  N   UNL     1      47.314   3.709  18.380  0.00  0.00    +0.000 N 
ATOM     24  C   UNL     1      48.260   4.690  18.320  0.00  0.00    +0.000 A 
ATOM     25  N   UNL     1      48.935   5.220  19.358  0.00  0.00    +0.000 NA
ATOM     26  C   UNL     1      49.799   6.192  18.973  0.00  0.00    +0.000 A 
ATOM     27  C   UNL     1      50.014   6.621  17.668  0.00  0.00    +0.000 A 
ATOM     28  C   UNL     1      49.293   6.023  16.635  0.00  0.00    +0.000 A 
ATOM     29  C   UNL     1      48.373   5.022  16.983  0.00  0.00    +0.000 A 
ATOM     30  H   UNL     1      47.001   3.229  19.215  0.00  0.00    +0.000 HD
ENDBRANCH  18  21
ENDBRANCH   1  19
TORSDOF 6
ENDMDL
MODEL 5
REMARK VINA RESULT:    -6.908      1.968      2.464
REMARK INTER + INTRA:          -9.958
REMARK INTER:                  -9.246
REMARK INTRA:                  -0.711
REMARK UNBOUND:                -0.627
REMARK  Name = 
REMARK  6 active torsions:
REMARK  status: ('A' for Active; 'I' for Inactive)
REMARK    1  A    between atoms: C_2  and  C_20
REMARK    2  A    between atoms: N_3  and  C_4
REMARK    3  A    between atoms: C_4  and  C_5
REMARK    4  A    between atoms: C_8  and  C_9
REMARK    5  A    between atoms: C_10  and  C_11
REMARK    6  A    between atoms: C_11  and  N_12
REMARK                            x       y       z     vdW  Elec       q    Type
REMARK                         _______ _______ _______ _____ _____    ______ ____
ROOT
ATOM      1  C   UNL     1      43.708   4.848  10.851  0.00  0.00    +0.000 C 
ENDROOT
BRANCH   1   2
ATOM      2  C   UNL     1      44.468   4.082   9.806  0.00  0.00    +0.000 A 
ATOM      3  C   UNL     1      45.295   4.753   8.897  0.00  0.00    +0.000 A 
ATOM      4  C   UNL     1      45.997   4.040   7.922  0.00  0.00    +0.000 A 
ATOM      5  C   UNL     1      45.870   2.653   7.837  0.00  0.00    +0.000 A 
ATOM      6  C   UNL     1      45.058   1.973   8.745  0.00  0.00    +0.000 A 
ATOM      7  C   UNL     1      44.356   2.686   9.723  0.00  0.00    +0.000 A 
BRANCH   5   8
ATOM      8  C   UNL     1      46.590   1.946   6.825  0.00  0.00    +0.000 C 
ATOM      9  C   UNL     1      47.237   1.451   5.937  0.00  0.00    +0.000 C 
BRANCH   9  10
ATOM     10  C   UNL     1      48.106   0.988   4.845  0.00  0.00    +0.000 C 
BRANCH  10  11
ATOM     11  N   UNL     1      47.303   0.533   3.696  0.00  0.00    +0.000 NA
ATOM     12  C   UNL     1      46.909  -0.878   3.845  0.00  0.00    +0.000 C 
ATOM     13  C   UNL     1      46.156  -1.372   2.611  0.00  0.00    +0.000 C 
ATOM     14  C   UNL     1      44.935  -0.508   2.330  0.00  0.00    +0.000 C 
ATOM     15  C   UNL     1      45.326   0.964   2.273  0.00  0.00    +0.000 C 
ATOM     16  C   UNL     1      46.118   1.384   3.515  0.00  0.00    +0.000 C 
ENDBRANCH  10  11
ENDBRANCH   9  10
ENDBRANCH   5   8
ENDBRANCH   1   2
BRANCH   1  19
ATOM     17  O   UNL     1      45.277   5.221  13.078  0.00  0.00    +0.000 OA
ATOM     18  C   UNL     1      45.122   6.176  12.320  0.00  0.00    +0.000 C 
ATOM     19  N   UNL     1      44.337   6.097  11.191  0.00  0.00    +0.000 N 
ATOM     20  H   UNL     1      44.317   6.898  10.570  0.00  0.00    +0.000 HD
BRANCH  18  21
ATOM     21  C   UNL     1      45.774   7.474  12.544  0.00  0.00    +0.000 A 
ATOM     22  N   UNL     1      45.086   8.625  12.728  0.00  0.00    +0.000 NA
ATOM     23  N   UNL     1      46.061   9.546  12.915  0.00  0.00    +0.000 N 
ATOM     24  C   UNL     1      47.327   9.048  12.820  0.00  0.00    +0.000 A 
ATOM     25  N   UNL     1      48.476   9.743  12.930  0.00  0.00    +0.000 NA
ATOM     26  C   UNL     1      49.573   8.962  12.772  0.00  0.00    +0.000 A 
ATOM     27  C   UNL     1      49.570   7.591  12.537  0.00  0.00    +0.000 A 
ATOM     28  C   UNL     1      48.349   6.925  12.448  0.00  0.00    +0.000 A 
ATOM     29  C   UNL     1      47.182   7.692  12.587  0.00  0.00    +0.000 A 
ATOM     30  H   UNL     1      45.809  10.510  13.098  0.00  0.00    +0.000 HD
ENDBRANCH  18  21
ENDBRANCH   1  19
TORSDOF 6
ENDMDL
MODEL 6
REMARK VINA RESULT:    -6.843      3.174     11.406
REMARK INTER + INTRA:          -9.871
REMARK INTER:                  -9.160
REMARK INTRA:                  -0.711
REMARK UNBOUND:                -0.627
REMARK  Name = 
REMARK  6 active torsions:
REMARK  status: ('A' for Active; 'I' for Inactive)
REMARK    1  A    between atoms: C_2  and  C_20
REMARK    2  A    between atoms: N_3  and  C_4
REMARK    3  A    between atoms: C_4  and  C_5
REMARK    4  A    between atoms: C_8  and  C_9
REMARK    5  A    between atoms: C_10  and  C_11
REMARK    6  A    between atoms: C_11  and  N_12
REMARK                            x       y       z     vdW  Elec       q    Type
REMARK                         _______ _______ _______ _____ _____    ______ ____
ROOT
ATOM      1  C   UNL     1      47.759   0.811   4.748  0.00  0.00    +0.000 C 
ENDROOT
BRANCH   1   2
ATOM      2  C   UNL     1      47.112   1.530   5.898  0.00  0.00    +0.000 A 
ATOM      3  C   UNL     1      46.905   0.874   7.118  0.00  0.00    +0.000 A 
ATOM      4  C   UNL     1      46.299   1.542   8.184  0.00  0.00    +0.000 A 
ATOM      5  C   UNL     1      45.882   2.866   8.040  0.00  0.00    +0.000 A 
ATOM      6  C   UNL     1      46.095   3.533   6.833  0.00  0.00    +0.000 A 
ATOM      7  C   UNL     1      46.703   2.865   5.764  0.00  0.00    +0.000 A 
BRANCH   5   8
ATOM      8  C   UNL     1      45.255   3.526   9.141  0.00  0.00    +0.000 C 
ATOM      9  C   UNL     1      44.692   4.162   9.995  0.00  0.00    +0.000 C 
BRANCH   9  10
ATOM     10  C   UNL     1      43.926   5.014  10.918  0.00  0.00    +0.000 C 
BRANCH  10  11
ATOM     11  N   UNL     1      44.765   5.440  12.053  0.00  0.00    +0.000 NA
ATOM     12  C   UNL     1      45.471   4.296  12.654  0.00  0.00    +0.000 C 
ATOM     13  C   UNL     1      46.266   4.726  13.885  0.00  0.00    +0.000 C 
ATOM     14  C   UNL     1      47.250   5.836  13.544  0.00  0.00    +0.000 C 
ATOM     15  C   UNL     1      46.536   6.979  12.833  0.00  0.00    +0.000 C 
ATOM     16  C   UNL     1      45.721   6.477  11.638  0.00  0.00    +0.000 C 
ENDBRANCH  10  11
ENDBRANCH   9  10
ENDBRANCH   5   8
ENDBRANCH   1   2
BRANCH   1  19
ATOM     17  O   UNL     1      47.910  -0.255   2.218  0.00  0.00    +0.000 OA
ATOM     18  C   UNL     1      47.161  -0.799   3.025  0.00  0.00    +0.000 C 
ATOM     19  N   UNL     1      46.998  -0.329   4.308  0.00  0.00    +0.000 N 
ATOM     20  H   UNL     1      46.425  -0.874   4.944  0.00  0.00    +0.000 HD
BRANCH  18  21
ATOM     21  C   UNL     1      46.390  -2.007   2.693  0.00  0.00    +0.000 A 
ATOM     22  N   UNL     1      45.122  -1.969   2.224  0.00  0.00    +0.000 NA
ATOM     23  N   UNL     1      44.817  -3.275   2.039  0.00  0.00    +0.000 N 
ATOM     24  C   UNL     1      45.808  -4.138   2.402  0.00  0.00    +0.000 A 
ATOM     25  N   UNL     1      45.761  -5.483   2.355  0.00  0.00    +0.000 NA
ATOM     26  C   UNL     1      46.905  -6.059   2.801  0.00  0.00    +0.000 A 
ATOM     27  C   UNL     1      48.035  -5.385   3.252  0.00  0.00    +0.000 A 
ATOM     28  C   UNL     1      48.028  -3.990   3.263  0.00  0.00    +0.000 A 
ATOM     29  C   UNL     1      46.860  -3.346   2.827  0.00  0.00    +0.000 A 
ATOM     30  H   UNL     1      43.910  -3.528   1.666  0.00  0.00    +0.000 HD
ENDBRANCH  18  21
ENDBRANCH   1  19
TORSDOF 6
ENDMDL
MODEL 7
REMARK VINA RESULT:    -6.686      3.994      8.159
REMARK INTER + INTRA:          -9.659
REMARK INTER:                  -8.801
REMARK INTRA:                  -0.858
REMARK UNBOUND:                -0.627
REMARK  Name = 
REMARK  6 active torsions:
REMARK  status: ('A' for Active; 'I' for Inactive)
REMARK    1  A    between atoms: C_2  and  C_20
REMARK    2  A    between atoms: N_3  and  C_4
REMARK    3  A    between atoms: C_4  and  C_5
REMARK    4  A    between atoms: C_8  and  C_9
REMARK    5  A    between atoms: C_10  and  C_11
REMARK    6  A    between atoms: C_11  and  N_12
REMARK                            x       y       z     vdW  Elec       q    Type
REMARK                         _______ _______ _______ _____ _____    ______ ____
ROOT
ATOM      1  C   UNL     1      46.195   8.340  13.207  0.00  0.00    +0.000 C 
ENDROOT
BRANCH   1   2
ATOM      2  C   UNL     1      47.595   8.501  12.686  0.00  0.00    +0.000 A 
ATOM      3  C   UNL     1      48.539   7.481  12.863  0.00  0.00    +0.000 A 
ATOM      4  C   UNL     1      49.842   7.633  12.383  0.00  0.00    +0.000 A 
ATOM      5  C   UNL     1      50.219   8.810  11.734  0.00  0.00    +0.000 A 
ATOM      6  C   UNL     1      49.284   9.827  11.543  0.00  0.00    +0.000 A 
ATOM      7  C   UNL     1      47.978   9.675  12.021  0.00  0.00    +0.000 A 
BRANCH   5   8
ATOM      8  C   UNL     1      51.561   8.948  11.261  0.00  0.00    +0.000 C 
ATOM      9  C   UNL     1      52.674   8.969  10.802  0.00  0.00    +0.000 C 
BRANCH   9  10
ATOM     10  C   UNL     1      53.981   8.886  10.133  0.00  0.00    +0.000 C 
BRANCH  10  11
ATOM     11  N   UNL     1      53.937   7.923   9.018  0.00  0.00    +0.000 NA
ATOM     12  C   UNL     1      53.558   6.580   9.487  0.00  0.00    +0.000 C 
ATOM     13  C   UNL     1      53.603   5.566   8.345  0.00  0.00    +0.000 C 
ATOM     14  C   UNL     1      52.707   5.997   7.193  0.00  0.00    +0.000 C 
ATOM     15  C   UNL     1      53.032   7.425   6.770  0.00  0.00    +0.000 C 
ATOM     16  C   UNL     1      53.017   8.382   7.966  0.00  0.00    +0.000 C 
ENDBRANCH  10  11
ENDBRANCH   9  10
ENDBRANCH   5   8
ENDBRANCH   1   2
BRANCH   1  19
ATOM     17  O   UNL     1      44.350   7.865  11.224  0.00  0.00    +0.000 OA
ATOM     18  C   UNL     1      44.737   6.906  11.889  0.00  0.00    +0.000 C 
ATOM     19  N   UNL     1      45.641   7.043  12.917  0.00  0.00    +0.000 N 
ATOM     20  H   UNL     1      45.975   6.200  13.371  0.00  0.00    +0.000 HD
BRANCH  18  21
ATOM     21  C   UNL     1      44.280   5.533  11.629  0.00  0.00    +0.000 A 
ATOM     22  N   UNL     1      43.481   4.847  12.479  0.00  0.00    +0.000 NA
ATOM     23  N   UNL     1      43.298   3.662  11.849  0.00  0.00    +0.000 N 
ATOM     24  C   UNL     1      43.970   3.547  10.667  0.00  0.00    +0.000 A 
ATOM     25  N   UNL     1      43.992   2.472   9.856  0.00  0.00    +0.000 NA
ATOM     26  C   UNL     1      44.767   2.664   8.760  0.00  0.00    +0.000 A 
ATOM     27  C   UNL     1      45.469   3.825   8.452  0.00  0.00    +0.000 A 
ATOM     28  C   UNL     1      45.394   4.910   9.325  0.00  0.00    +0.000 A 
ATOM     29  C   UNL     1      44.618   4.755  10.483  0.00  0.00    +0.000 A 
ATOM     30  H   UNL     1      42.707   2.957  12.273  0.00  0.00    +0.000 HD
ENDBRANCH  18  21
ENDBRANCH   1  19
TORSDOF 6
ENDMDL
MODEL 8
REMARK VINA RESULT:    -6.516      4.488      7.374
REMARK INTER + INTRA:          -9.428
REMARK INTER:                  -8.645
REMARK INTRA:                  -0.783
REMARK UNBOUND:                -0.627
REMARK  Name = 
REMARK  6 active torsions:
REMARK  status: ('A' for Active; 'I' for Inactive)
REMARK    1  A    between atoms: C_2  and  C_20
REMARK    2  A    between atoms: N_3  and  C_4
REMARK    3  A    between atoms: C_4  and  C_5
REMARK    4  A    between atoms: C_8  and  C_9
REMARK    5  A    between atoms: C_10  and  C_11
REMARK    6  A    between atoms: C_11  and  N_12
REMARK                            x       y       z     vdW  Elec       q    Type
REMARK                         _______ _______ _______ _____ _____    ______ ____
ROOT
ATOM      1  C   UNL     1      49.216   5.401  17.328  0.00  0.00    +0.000 C 
ENDROOT
BRANCH   1   2
ATOM      2  C   UNL     1      48.361   5.359  16.094  0.00  0.00    +0.000 A 
ATOM      3  C   UNL     1      48.467   6.362  15.123  0.00  0.00    +0.000 A 
ATOM      4  C   UNL     1      47.667   6.325  13.979  0.00  0.00    +0.000 A 
ATOM      5  C   UNL     1      46.745   5.293  13.799  0.00  0.00    +0.000 A 
ATOM      6  C   UNL     1      46.639   4.282  14.754  0.00  0.00    +0.000 A 
ATOM      7  C   UNL     1      47.441   4.318  15.900  0.00  0.00    +0.000 A 
BRANCH   5   8
ATOM      8  C   UNL     1      45.930   5.281  12.625  0.00  0.00    +0.000 C 
ATOM      9  C   UNL     1      45.153   5.259  11.705  0.00  0.00    +0.000 C 
BRANCH   9  10
ATOM     10  C   UNL     1      44.088   5.260  10.690  0.00  0.00    +0.000 C 
BRANCH  10  11
ATOM     11  N   UNL     1      44.374   4.274   9.632  0.00  0.00    +0.000 NA
ATOM     12  C   UNL     1      45.564   4.656   8.854  0.00  0.00    +0.000 C 
ATOM     13  C   UNL     1      45.803   3.682   7.702  0.00  0.00    +0.000 C 
ATOM     14  C   UNL     1      45.938   2.254   8.209  0.00  0.00    +0.000 C 
ATOM     15  C   UNL     1      44.753   1.889   9.096  0.00  0.00    +0.000 C 
ATOM     16  C   UNL     1      44.538   2.928  10.200  0.00  0.00    +0.000 C 
ENDBRANCH  10  11
ENDBRANCH   9  10
ENDBRANCH   5   8
ENDBRANCH   1   2
BRANCH   1  19
ATOM     17  O   UNL     1      50.271   7.285  19.030  0.00  0.00    +0.000 OA
ATOM     18  C   UNL     1      49.128   6.892  19.249  0.00  0.00    +0.000 C 
ATOM     19  N   UNL     1      48.519   5.935  18.469  0.00  0.00    +0.000 N 
ATOM     20  H   UNL     1      47.548   5.715  18.660  0.00  0.00    +0.000 HD
BRANCH  18  21
ATOM     21  C   UNL     1      48.310   7.422  20.350  0.00  0.00    +0.000 A 
ATOM     22  N   UNL     1      48.130   6.766  21.519  0.00  0.00    +0.000 NA
ATOM     23  N   UNL     1      47.344   7.607  22.233  0.00  0.00    +0.000 N 
ATOM     24  C   UNL     1      46.986   8.741  21.564  0.00  0.00    +0.000 A 
ATOM     25  N   UNL     1      46.190   9.726  22.020  0.00  0.00    +0.000 NA
ATOM     26  C   UNL     1      46.011  10.714  21.108  0.00  0.00    +0.000 A 
ATOM     27  C   UNL     1      46.575  10.762  19.837  0.00  0.00    +0.000 A 
ATOM     28  C   UNL     1      47.403   9.717  19.428  0.00  0.00    +0.000 A 
ATOM     29  C   UNL     1      47.606   8.662  20.330  0.00  0.00    +0.000 A 
ATOM     30  H   UNL     1      47.072   7.358  23.176  0.00  0.00    +0.000 HD
ENDBRANCH  18  21
ENDBRANCH   1  19
TORSDOF 6
ENDMDL
MODEL 9
REMARK VINA RESULT:    -6.434      6.753      8.483
REMARK INTER + INTRA:          -9.317
REMARK INTER:                  -8.458
REMARK INTRA:                  -0.860
REMARK UNBOUND:                -0.627
REMARK  Name = 
REMARK  6 active torsions:
REMARK  status: ('A' for Active; 'I' for Inactive)
REMARK    1  A    between atoms: C_2  and  C_20
REMARK    2  A    between atoms: N_3  and  C_4
REMARK    3  A    between atoms: C_4  and  C_5
REMARK    4  A    between atoms: C_8  and  C_9
REMARK    5  A    between atoms: C_10  and  C_11
REMARK    6  A    between atoms: C_11  and  N_12
REMARK                            x       y       z     vdW  Elec       q    Type
REMARK                         _______ _______ _______ _____ _____    ______ ____
ROOT
ATOM      1  C   UNL     1      46.388   5.666  13.094  0.00  0.00    +0.000 C 
ENDROOT
BRANCH   1   2
ATOM      2  C   UNL     1      47.070   6.922  12.631  0.00  0.00    +0.000 A 
ATOM      3  C   UNL     1      46.349   8.118  12.514  0.00  0.00    +0.000 A 
ATOM      4  C   UNL     1      46.983   9.284  12.079  0.00  0.00    +0.000 A 
ATOM      5  C   UNL     1      48.338   9.265  11.743  0.00  0.00    +0.000 A 
ATOM      6  C   UNL     1      49.067   8.083  11.868  0.00  0.00    +0.000 A 
ATOM      7  C   UNL     1      48.434   6.914  12.305  0.00  0.00    +0.000 A 
BRANCH   5   8
ATOM      8  C   UNL     1      48.963  10.468  11.291  0.00  0.00    +0.000 C 
ATOM      9  C   UNL     1      49.385  11.520  10.884  0.00  0.00    +0.000 C 
BRANCH   9  10
ATOM     10  C   UNL     1      49.749  12.860  10.398  0.00  0.00    +0.000 C 
BRANCH  10  11
ATOM     11  N   UNL     1      49.751  12.899   8.924  0.00  0.00    +0.000 NA
ATOM     12  C   UNL     1      50.798  12.026   8.368  0.00  0.00    +0.000 C 
ATOM     13  C   UNL     1      50.857  12.138   6.847  0.00  0.00    +0.000 C 
ATOM     14  C   UNL     1      49.509  11.814   6.219  0.00  0.00    +0.000 C 
ATOM     15  C   UNL     1      48.407  12.648   6.863  0.00  0.00    +0.000 C 
ATOM     16  C   UNL     1      48.432  12.529   8.389  0.00  0.00    +0.000 C 
ENDBRANCH  10  11
ENDBRANCH   9  10
ENDBRANCH   5   8
ENDBRANCH   1   2
BRANCH   1  19
ATOM     17  O   UNL     1      47.349   3.260  14.014  0.00  0.00    +0.000 OA
ATOM     18  C   UNL     1      47.140   4.147  14.839  0.00  0.00    +0.000 C 
ATOM     19  N   UNL     1      46.638   5.378  14.482  0.00  0.00    +0.000 N 
ATOM     20  H   UNL     1      46.565   6.087  15.203  0.00  0.00    +0.000 HD
BRANCH  18  21
ATOM     21  C   UNL     1      47.424   3.973  16.271  0.00  0.00    +0.000 A 
ATOM     22  N   UNL     1      46.709   3.149  17.072  0.00  0.00    +0.000 NA
ATOM     23  N   UNL     1      47.314   3.280  18.276  0.00  0.00    +0.000 N 
ATOM     24  C   UNL     1      48.347   4.171  18.289  0.00  0.00    +0.000 A 
ATOM     25  N   UNL     1      49.098   4.517  19.353  0.00  0.00    +0.000 NA
ATOM     26  C   UNL     1      50.040   5.442  19.045  0.00  0.00    +0.000 A 
ATOM     27  C   UNL     1      50.260   5.993  17.787  0.00  0.00    +0.000 A 
ATOM     28  C   UNL     1      49.459   5.584  16.722  0.00  0.00    +0.000 A 
ATOM     29  C   UNL     1      48.457   4.639  16.993  0.00  0.00    +0.000 A 
ATOM     30  H   UNL     1      46.979   2.741  19.065  0.00  0.00    +0.000 HD
ENDBRANCH  18  21
ENDBRANCH   1  19
TORSDOF 6
ENDMDL
