MODEL 1
REMARK VINA RESULT:    -8.168      0.000      0.000
REMARK INTER + INTRA:         -10.798
REMARK INTER:                 -10.556
REMARK INTRA:                  -0.242
REMARK UNBOUND:                -0.242
REMARK  Name = 
REMARK  5 active torsions:
REMARK  status: ('A' for Active; 'I' for Inactive)
REMARK    1  A    between atoms: C_2  and  C_4
REMARK    2  A    between atoms: C_8  and  C_9
REMARK    3  A    between atoms: C_9  and  O_10
REMARK    4  A    between atoms: O_10  and  C_11
REMARK    5  A    between atoms: C_16  and  C_17
REMARK                            x       y       z     vdW  Elec       q    Type
REMARK                         _______ _______ _______ _____ _____    ______ ____
ROOT
ATOM      1  C   UNL     1      45.123   4.903  11.804  0.00  0.00    +0.000 A 
ATOM      2  C   UNL     1      45.574   3.829  12.558  0.00  0.00    +0.000 A 
ATOM      3  C   UNL     1      46.643   4.023  13.425  0.00  0.00    +0.000 A 
ATOM      4  F   UNL     1      47.088   2.995  14.161  0.00  0.00    +0.000 F 
ATOM      5  C   UNL     1      47.252   5.273  13.565  0.00  0.00    +0.000 A 
ATOM      6  C   UNL     1      46.803   6.368  12.815  0.00  0.00    +0.000 A 
ATOM      7  C   UNL     1      45.778   6.132  11.897  0.00  0.00    +0.000 A 
ENDROOT
BRANCH   6   8
ATOM      8  C   UNL     1      47.417   7.753  12.990  0.00  0.00    +0.000 C 
ATOM      9  C   UNL     1      48.327   8.138  11.810  0.00  0.00    +0.000 C 
ATOM     10  C   UNL     1      49.696   7.458  11.871  0.00  0.00    +0.000 C 
ATOM     11  N   UNL     1      50.397   7.703  13.130  0.00  0.00    +0.000 NA
ATOM     12  C   UNL     1      49.600   7.338  14.296  0.00  0.00    +0.000 C 
ATOM     13  C   UNL     1      48.208   7.987  14.298  0.00  0.00    +0.000 C 
ATOM     14  H   UNL     1      50.640   8.695  13.190  0.00  0.00    +0.000 HD
ENDBRANCH   6   8
BRANCH   1  15
ATOM     15  O   UNL     1      44.033   4.708  10.995  0.00  0.00    +0.000 OA
BRANCH  15  16
ATOM     16  C   UNL     1      43.998   3.411  10.391  0.00  0.00    +0.000 C 
BRANCH  16  21
ATOM     17  C   UNL     1      46.431   2.115   7.792  0.00  0.00    +0.000 A 
ATOM     18  C   UNL     1      46.789   3.329   7.221  0.00  0.00    +0.000 A 
ATOM     19  N   UNL     1      46.271   4.524   7.599  0.00  0.00    +0.000 NA
ATOM     20  C   UNL     1      45.384   4.506   8.615  0.00  0.00    +0.000 A 
ATOM     21  C   UNL     1      44.985   3.348   9.272  0.00  0.00    +0.000 A 
ATOM     22  C   UNL     1      45.519   2.128   8.843  0.00  0.00    +0.000 A 
BRANCH  17  24
ATOM     23  N   UNL     1      47.781   0.966   6.130  0.00  0.00    +0.000 N 
ATOM     24  C   UNL     1      47.035   0.872   7.276  0.00  0.00    +0.000 C 
ATOM     25  O   UNL     1      46.909  -0.193   7.865  0.00  0.00    +0.000 OA
ATOM     26  H   UNL     1      48.272   0.128   5.855  0.00  0.00    +0.000 HD
ATOM     27  H   UNL     1      48.112   1.850   5.767  0.00  0.00    +0.000 HD
ENDBRANCH  17  24
ENDBRANCH  16  21
ENDBRANCH  15  16
ENDBRANCH   1  15
TORSDOF 5
ENDMDL
MODEL 2
REMARK VINA RESULT:    -7.445      1.690      2.241
REMARK INTER + INTRA:          -9.863
REMARK INTER:                  -9.171
REMARK INTRA:                  -0.693
REMARK UNBOUND:                -0.242
REMARK  Name = 
REMARK  5 active torsions:
REMARK  status: ('A' for Active; 'I' for Inactive)
REMARK    1  A    between atoms: C_2  and  C_4
REMARK    2  A    between atoms: C_8  and  C_9
REMARK    3  A    between atoms: C_9  and  O_10
REMARK    4  A    between atoms: O_10  and  C_11
REMARK    5  A    between atoms: C_16  and  C_17
REMARK                            x       y       z     vdW  Elec       q    Type
REMARK                         _______ _______ _______ _____ _____    ______ ____
ROOT
ATOM      1  C   UNL     1      45.813   5.332  12.129  0.00  0.00    +0.000 A 
ATOM      2  C   UNL     1      45.780   4.635  13.328  0.00  0.00    +0.000 A 
ATOM      3  C   UNL     1      46.761   4.893  14.279  0.00  0.00    +0.000 A 
ATOM      4  F   UNL     1      46.740   4.228  15.442  0.00  0.00    +0.000 F 
ATOM      5  C   UNL     1      47.757   5.847  14.059  0.00  0.00    +0.000 A 
ATOM      6  C   UNL     1      47.800   6.564  12.856  0.00  0.00    +0.000 A 
ATOM      7  C   UNL     1      46.849   6.235  11.887  0.00  0.00    +0.000 A 
ENDROOT
BRANCH   6   8
ATOM      8  C   UNL     1      48.846   7.647  12.615  0.00  0.00    +0.000 C 
ATOM      9  C   UNL     1      49.344   8.277  13.927  0.00  0.00    +0.000 C 
ATOM     10  C   UNL     1      48.352   9.282  14.516  0.00  0.00    +0.000 C 
ATOM     11  N   UNL     1      47.988  10.339  13.573  0.00  0.00    +0.000 NA
ATOM     12  C   UNL     1      47.483   9.813  12.309  0.00  0.00    +0.000 C 
ATOM     13  C   UNL     1      48.431   8.793  11.662  0.00  0.00    +0.000 C 
ATOM     14  H   UNL     1      48.808  10.920  13.389  0.00  0.00    +0.000 HD
ENDBRANCH   6   8
BRANCH   1  15
ATOM     15  O   UNL     1      44.807   5.106  11.226  0.00  0.00    +0.000 OA
BRANCH  15  16
ATOM     16  C   UNL     1      45.189   5.366   9.871  0.00  0.00    +0.000 C 
BRANCH  16  21
ATOM     17  C   UNL     1      46.449   2.805   7.380  0.00  0.00    +0.000 A 
ATOM     18  C   UNL     1      45.852   1.676   7.926  0.00  0.00    +0.000 A 
ATOM     19  N   UNL     1      45.103   1.688   9.056  0.00  0.00    +0.000 NA
ATOM     20  C   UNL     1      44.915   2.887   9.646  0.00  0.00    +0.000 A 
ATOM     21  C   UNL     1      45.444   4.078   9.161  0.00  0.00    +0.000 A 
ATOM     22  C   UNL     1      46.231   4.029   8.006  0.00  0.00    +0.000 A 
BRANCH  17  24
ATOM     23  N   UNL     1      48.630   2.596   6.330  0.00  0.00    +0.000 N 
ATOM     24  C   UNL     1      47.271   2.666   6.164  0.00  0.00    +0.000 C 
ATOM     25  O   UNL     1      46.762   2.580   5.055  0.00  0.00    +0.000 OA
ATOM     26  H   UNL     1      49.164   2.393   5.497  0.00  0.00    +0.000 HD
ATOM     27  H   UNL     1      49.059   2.409   7.225  0.00  0.00    +0.000 HD
ENDBRANCH  17  24
ENDBRANCH  16  21
ENDBRANCH  15  16
ENDBRANCH   1  15
TORSDOF 5
ENDMDL
MODEL 3
REMARK VINA RESULT:    -7.394      4.405      8.001
REMARK INTER + INTRA:          -9.797
REMARK INTER:                  -9.555
REMARK INTRA:                  -0.243
REMARK UNBOUND:                -0.242
REMARK  Name = 
REMARK  5 active torsions:
REMARK  status: ('A' for Active; 'I' for Inactive)
REMARK    1  A    between atoms: C_2  and  C_4
REMARK    2  A    between atoms: C_8  and  C_9
REMARK    3  A    between atoms: C_9  and  O_10
REMARK    4  A    between atoms: O_10  and  C_11
REMARK    5  A    between atoms: C_16  and  C_17
REMARK                            x       y       z     vdW  Elec       q    Type
REMARK                         _______ _______ _______ _____ _____    ______ ____
ROOT
ATOM      1  C   UNL     1      46.580   4.653  14.050  0.00  0.00    +0.000 A 
ATOM      2  C   UNL     1      47.473   5.709  13.941  0.00  0.00    +0.000 A 
ATOM      3  C   UNL     1      47.393   6.542  12.831  0.00  0.00    +0.000 A 
ATOM      4  F   UNL     1      48.248   7.566  12.714  0.00  0.00    +0.000 F 
ATOM      5  C   UNL     1      46.424   6.350  11.843  0.00  0.00    +0.000 A 
ATOM      6  C   UNL     1      45.511   5.291  11.942  0.00  0.00    +0.000 A 
ATOM      7  C   UNL     1      45.658   4.424  13.027  0.00  0.00    +0.000 A 
ENDROOT
BRANCH   6   8
ATOM      8  C   UNL     1      44.412   5.093  10.903  0.00  0.00    +0.000 C 
ATOM      9  C   UNL     1      43.177   4.386  11.490  0.00  0.00    +0.000 C 
ATOM     10  C   UNL     1      43.380   2.878  11.652  0.00  0.00    +0.000 C 
ATOM     11  N   UNL     1      43.774   2.221  10.407  0.00  0.00    +0.000 NA
ATOM     12  C   UNL     1      44.957   2.826   9.803  0.00  0.00    +0.000 C 
ATOM     13  C   UNL     1      44.822   4.344   9.613  0.00  0.00    +0.000 C 
ATOM     14  H   UNL     1      42.999   2.270   9.742  0.00  0.00    +0.000 HD
ENDBRANCH   6   8
BRANCH   1  15
ATOM     15  O   UNL     1      46.638   3.876  15.177  0.00  0.00    +0.000 OA
BRANCH  15  16
ATOM     16  C   UNL     1      47.337   4.495  16.261  0.00  0.00    +0.000 C 
BRANCH  16  21
ATOM     17  C   UNL     1      50.701   3.458  17.662  0.00  0.00    +0.000 A 
ATOM     18  C   UNL     1      50.740   2.161  17.168  0.00  0.00    +0.000 A 
ATOM     19  N   UNL     1      49.740   1.598  16.445  0.00  0.00    +0.000 NA
ATOM     20  C   UNL     1      48.672   2.377  16.178  0.00  0.00    +0.000 A 
ATOM     21  C   UNL     1      48.552   3.696  16.600  0.00  0.00    +0.000 A 
ATOM     22  C   UNL     1      49.590   4.241  17.364  0.00  0.00    +0.000 A 
BRANCH  17  24
ATOM     23  N   UNL     1      51.624   4.122  19.810  0.00  0.00    +0.000 N 
ATOM     24  C   UNL     1      51.834   3.955  18.466  0.00  0.00    +0.000 C 
ATOM     25  O   UNL     1      52.927   4.174  17.962  0.00  0.00    +0.000 OA
ATOM     26  H   UNL     1      52.440   4.358  20.356  0.00  0.00    +0.000 HD
ATOM     27  H   UNL     1      50.833   3.717  20.291  0.00  0.00    +0.000 HD
ENDBRANCH  17  24
ENDBRANCH  16  21
ENDBRANCH  15  16
ENDBRANCH   1  15
TORSDOF 5
ENDMDL
MODEL 4
REMARK VINA RESULT:    -7.246      4.054      7.787
REMARK INTER + INTRA:          -9.606
REMARK INTER:                  -8.910
REMARK INTRA:                  -0.696
REMARK UNBOUND:                -0.242
REMARK  Name = 
REMARK  5 active torsions:
REMARK  status: ('A' for Active; 'I' for Inactive)
REMARK    1  A    between atoms: C_2  and  C_4
REMARK    2  A    between atoms: C_8  and  C_9
REMARK    3  A    between atoms: C_9  and  O_10
REMARK    4  A    between atoms: O_10  and  C_11
REMARK    5  A    between atoms: C_16  and  C_17
REMARK                            x       y       z     vdW  Elec       q    Type
REMARK                         _______ _______ _______ _____ _____    ______ ____
ROOT
ATOM      1  C   UNL     1      47.496   6.741  12.930  0.00  0.00    +0.000 A 
ATOM      2  C   UNL     1      47.280   8.110  12.987  0.00  0.00    +0.000 A 
ATOM      3  C   UNL     1      46.140   8.633  12.386  0.00  0.00    +0.000 A 
ATOM      4  F   UNL     1      45.918   9.953  12.434  0.00  0.00    +0.000 F 
ATOM      5  C   UNL     1      45.207   7.809  11.750  0.00  0.00    +0.000 A 
ATOM      6  C   UNL     1      45.409   6.424  11.690  0.00  0.00    +0.000 A 
ATOM      7  C   UNL     1      46.597   5.931  12.235  0.00  0.00    +0.000 A 
ENDROOT
BRANCH   6   8
ATOM      8  C   UNL     1      44.379   5.500  11.048  0.00  0.00    +0.000 C 
ATOM      9  C   UNL     1      43.048   5.488  11.820  0.00  0.00    +0.000 C 
ATOM     10  C   UNL     1      43.107   4.637  13.090  0.00  0.00    +0.000 C 
ATOM     11  N   UNL     1      43.537   3.263  12.835  0.00  0.00    +0.000 NA
ATOM     12  C   UNL     1      44.810   3.197  12.123  0.00  0.00    +0.000 C 
ATOM     13  C   UNL     1      44.821   4.033  10.835  0.00  0.00    +0.000 C 
ATOM     14  H   UNL     1      42.822   2.786  12.282  0.00  0.00    +0.000 HD
ENDBRANCH   6   8
BRANCH   1  15
ATOM     15  O   UNL     1      48.595   6.236  13.574  0.00  0.00    +0.000 OA
BRANCH  15  16
ATOM     16  C   UNL     1      49.155   7.137  14.536  0.00  0.00    +0.000 C 
BRANCH  16  21
ATOM     17  C   UNL     1      48.033   5.032  17.480  0.00  0.00    +0.000 A 
ATOM     18  C   UNL     1      48.086   6.010  18.465  0.00  0.00    +0.000 A 
ATOM     19  N   UNL     1      48.490   7.285  18.242  0.00  0.00    +0.000 NA
ATOM     20  C   UNL     1      48.822   7.604  16.974  0.00  0.00    +0.000 A 
ATOM     21  C   UNL     1      48.773   6.706  15.914  0.00  0.00    +0.000 A 
ATOM     22  C   UNL     1      48.374   5.392  16.179  0.00  0.00    +0.000 A 
BRANCH  17  24
ATOM     23  N   UNL     1      48.285   3.053  18.866  0.00  0.00    +0.000 N 
ATOM     24  C   UNL     1      47.609   3.667  17.844  0.00  0.00    +0.000 C 
ATOM     25  O   UNL     1      46.670   3.119  17.285  0.00  0.00    +0.000 OA
ATOM     26  H   UNL     1      47.910   2.166  19.170  0.00  0.00    +0.000 HD
ATOM     27  H   UNL     1      48.881   3.559  19.506  0.00  0.00    +0.000 HD
ENDBRANCH  17  24
ENDBRANCH  16  21
ENDBRANCH  15  16
ENDBRANCH   1  15
TORSDOF 5
ENDMDL
MODEL 5
REMARK VINA RESULT:    -7.135      3.894      7.848
REMARK INTER + INTRA:          -9.463
REMARK INTER:                  -8.819
REMARK INTRA:                  -0.644
REMARK UNBOUND:                -0.242
REMARK  Name = 
REMARK  5 active torsions:
REMARK  status: ('A' for Active; 'I' for Inactive)
REMARK    1  A    between atoms: C_2  and  C_4
REMARK    2  A    between atoms: C_8  and  C_9
REMARK    3  A    between atoms: C_9  and  O_10
REMARK    4  A    between atoms: O_10  and  C_11
REMARK    5  A    between atoms: C_16  and  C_17
REMARK                            x       y       z     vdW  Elec       q    Type
REMARK                         _______ _______ _______ _____ _____    ______ ____
ROOT
ATOM      1  C   UNL     1      47.688   6.973  13.408  0.00  0.00    +0.000 A 
ATOM      2  C   UNL     1      47.176   8.132  12.845  0.00  0.00    +0.000 A 
ATOM      3  C   UNL     1      45.868   8.125  12.371  0.00  0.00    +0.000 A 
ATOM      4  F   UNL     1      45.361   9.238  11.825  0.00  0.00    +0.000 F 
ATOM      5  C   UNL     1      45.062   6.988  12.470  0.00  0.00    +0.000 A 
ATOM      6  C   UNL     1      45.564   5.812  13.043  0.00  0.00    +0.000 A 
ATOM      7  C   UNL     1      46.902   5.820  13.444  0.00  0.00    +0.000 A 
ENDROOT
BRANCH   6   8
ATOM      8  C   UNL     1      44.686   4.575  13.210  0.00  0.00    +0.000 C 
ATOM      9  C   UNL     1      45.174   3.396  12.350  0.00  0.00    +0.000 C 
ATOM     10  C   UNL     1      44.794   3.540  10.876  0.00  0.00    +0.000 C 
ATOM     11  N   UNL     1      43.358   3.731  10.675  0.00  0.00    +0.000 NA
ATOM     12  C   UNL     1      42.828   4.851  11.445  0.00  0.00    +0.000 C 
ATOM     13  C   UNL     1      43.176   4.771  12.939  0.00  0.00    +0.000 C 
ATOM     14  H   UNL     1      42.866   2.877  10.948  0.00  0.00    +0.000 HD
ENDBRANCH   6   8
BRANCH   1  15
ATOM     15  O   UNL     1      48.959   7.013  13.919  0.00  0.00    +0.000 OA
BRANCH  15  16
ATOM     16  C   UNL     1      49.013   7.468  15.276  0.00  0.00    +0.000 C 
BRANCH  16  21
ATOM     17  C   UNL     1      48.834   4.393  17.482  0.00  0.00    +0.000 A 
ATOM     18  C   UNL     1      50.179   4.299  17.814  0.00  0.00    +0.000 A 
ATOM     19  N   UNL     1      51.134   5.140  17.346  0.00  0.00    +0.000 NA
ATOM     20  C   UNL     1      50.719   6.139  16.539  0.00  0.00    +0.000 A 
ATOM     21  C   UNL     1      49.393   6.336  16.173  0.00  0.00    +0.000 A 
ATOM     22  C   UNL     1      48.434   5.438  16.654  0.00  0.00    +0.000 A 
BRANCH  17  24
ATOM     23  N   UNL     1      48.154   2.899  19.273  0.00  0.00    +0.000 N 
ATOM     24  C   UNL     1      47.888   3.400  18.026  0.00  0.00    +0.000 C 
ATOM     25  O   UNL     1      46.888   3.064  17.406  0.00  0.00    +0.000 OA
ATOM     26  H   UNL     1      47.440   2.304  19.669  0.00  0.00    +0.000 HD
ATOM     27  H   UNL     1      48.812   3.333  19.905  0.00  0.00    +0.000 HD
ENDBRANCH  17  24
ENDBRANCH  16  21
ENDBRANCH  15  16
ENDBRANCH   1  15
TORSDOF 5
ENDMDL
MODEL 6
REMARK VINA RESULT:    -6.943      4.806      8.860
REMARK INTER + INTRA:          -9.215
REMARK INTER:                  -8.703
REMARK INTRA:                  -0.512
REMARK UNBOUND:                -0.242
REMARK  Name = 
REMARK  5 active torsions:
REMARK  status: ('A' for Active; 'I' for Inactive)
REMARK    1  A    between atoms: C_2  and  C_4
REMARK    2  A    between atoms: C_8  and  C_9
REMARK    3  A    between atoms: C_9  and  O_10
REMARK    4  A    between atoms: O_10  and  C_11
REMARK    5  A    between atoms: C_16  and  C_17
REMARK                            x       y       z     vdW  Elec       q    Type
REMARK                         _______ _______ _______ _____ _____    ______ ____
ROOT
ATOM      1  C   UNL     1      47.339   5.329  13.984  0.00  0.00    +0.000 A 
ATOM      2  C   UNL     1      48.006   6.276  13.222  0.00  0.00    +0.000 A 
ATOM      3  C   UNL     1      47.304   6.953  12.231  0.00  0.00    +0.000 A 
ATOM      4  F   UNL     1      47.935   7.872  11.488  0.00  0.00    +0.000 F 
ATOM      5  C   UNL     1      45.946   6.714  12.006  0.00  0.00    +0.000 A 
ATOM      6  C   UNL     1      45.257   5.764  12.772  0.00  0.00    +0.000 A 
ATOM      7  C   UNL     1      46.001   5.044  13.710  0.00  0.00    +0.000 A 
ENDROOT
BRANCH   6   8
ATOM      8  C   UNL     1      43.764   5.523  12.579  0.00  0.00    +0.000 C 
ATOM      9  C   UNL     1      43.307   4.186  13.191  0.00  0.00    +0.000 C 
ATOM     10  C   UNL     1      43.674   2.981  12.323  0.00  0.00    +0.000 C 
ATOM     11  N   UNL     1      43.170   3.091  10.956  0.00  0.00    +0.000 NA
ATOM     12  C   UNL     1      43.584   4.328  10.302  0.00  0.00    +0.000 C 
ATOM     13  C   UNL     1      43.247   5.582  11.122  0.00  0.00    +0.000 C 
ATOM     14  H   UNL     1      42.148   3.049  10.971  0.00  0.00    +0.000 HD
ENDBRANCH   6   8
BRANCH   1  15
ATOM     15  O   UNL     1      48.032   4.710  14.992  0.00  0.00    +0.000 OA
BRANCH  15  16
ATOM     16  C   UNL     1      47.215   4.361  16.114  0.00  0.00    +0.000 C 
BRANCH  16  21
ATOM     17  C   UNL     1      48.252   5.313  19.631  0.00  0.00    +0.000 A 
ATOM     18  C   UNL     1      49.510   4.725  19.642  0.00  0.00    +0.000 A 
ATOM     19  N   UNL     1      50.023   4.020  18.603  0.00  0.00    +0.000 NA
ATOM     20  C   UNL     1      49.258   3.928  17.496  0.00  0.00    +0.000 A 
ATOM     21  C   UNL     1      48.000   4.506  17.376  0.00  0.00    +0.000 A 
ATOM     22  C   UNL     1      47.489   5.209  18.473  0.00  0.00    +0.000 A 
BRANCH  17  24
ATOM     23  N   UNL     1      46.950   5.351  21.682  0.00  0.00    +0.000 N 
ATOM     24  C   UNL     1      47.784   6.030  20.833  0.00  0.00    +0.000 C 
ATOM     25  O   UNL     1      48.154   7.169  21.082  0.00  0.00    +0.000 OA
ATOM     26  H   UNL     1      46.729   5.820  22.549  0.00  0.00    +0.000 HD
ATOM     27  H   UNL     1      46.833   4.348  21.643  0.00  0.00    +0.000 HD
ENDBRANCH  17  24
ENDBRANCH  16  21
ENDBRANCH  15  16
ENDBRANCH   1  15
TORSDOF 5
ENDMDL
MODEL 7
REMARK VINA RESULT:    -6.923      4.405      6.931
REMARK INTER + INTRA:          -9.188
REMARK INTER:                  -8.577
REMARK INTRA:                  -0.612
REMARK UNBOUND:                -0.242
REMARK  Name = 
REMARK  5 active torsions:
REMARK  status: ('A' for Active; 'I' for Inactive)
REMARK    1  A    between atoms: C_2  and  C_4
REMARK    2  A    between atoms: C_8  and  C_9
REMARK    3  A    between atoms: C_9  and  O_10
REMARK    4  A    between atoms: O_10  and  C_11
REMARK    5  A    between atoms: C_16  and  C_17
REMARK                            x       y       z     vdW  Elec       q    Type
REMARK                         _______ _______ _______ _____ _____    ______ ____
ROOT
ATOM      1  C   UNL     1      47.005   4.032  14.072  0.00  0.00    +0.000 A 
ATOM      2  C   UNL     1      46.062   3.629  13.138  0.00  0.00    +0.000 A 
ATOM      3  C   UNL     1      45.577   4.564  12.231  0.00  0.00    +0.000 A 
ATOM      4  F   UNL     1      44.666   4.189  11.323  0.00  0.00    +0.000 F 
ATOM      5  C   UNL     1      46.033   5.885  12.230  0.00  0.00    +0.000 A 
ATOM      6  C   UNL     1      46.991   6.305  13.164  0.00  0.00    +0.000 A 
ATOM      7  C   UNL     1      47.408   5.367  14.111  0.00  0.00    +0.000 A 
ENDROOT
BRANCH   6   8
ATOM      8  C   UNL     1      47.542   7.726  13.148  0.00  0.00    +0.000 C 
ATOM      9  C   UNL     1      48.343   8.026  11.868  0.00  0.00    +0.000 C 
ATOM     10  C   UNL     1      49.746   7.417  11.892  0.00  0.00    +0.000 C 
ATOM     11  N   UNL     1      50.523   7.825  13.061  0.00  0.00    +0.000 NA
ATOM     12  C   UNL     1      49.833   7.549  14.317  0.00  0.00    +0.000 C 
ATOM     13  C   UNL     1      48.413   8.131  14.361  0.00  0.00    +0.000 C 
ATOM     14  H   UNL     1      50.717   8.828  13.001  0.00  0.00    +0.000 HD
ENDBRANCH   6   8
BRANCH   1  15
ATOM     15  O   UNL     1      47.514   3.084  14.922  0.00  0.00    +0.000 OA
BRANCH  15  16
ATOM     16  C   UNL     1      47.446   3.461  16.302  0.00  0.00    +0.000 C 
BRANCH  16  21
ATOM     17  C   UNL     1      50.944   2.608  17.482  0.00  0.00    +0.000 A 
ATOM     18  C   UNL     1      51.332   3.872  17.908  0.00  0.00    +0.000 A 
ATOM     19  N   UNL     1      50.551   4.976  17.807  0.00  0.00    +0.000 NA
ATOM     20  C   UNL     1      49.318   4.801  17.289  0.00  0.00    +0.000 A 
ATOM     21  C   UNL     1      48.825   3.573  16.863  0.00  0.00    +0.000 A 
ATOM     22  C   UNL     1      49.663   2.457  16.958  0.00  0.00    +0.000 A 
BRANCH  17  24
ATOM     23  N   UNL     1      51.388   0.289  18.056  0.00  0.00    +0.000 N 
ATOM     24  C   UNL     1      51.890   1.484  17.611  0.00  0.00    +0.000 C 
ATOM     25  O   UNL     1      53.068   1.602  17.298  0.00  0.00    +0.000 OA
ATOM     26  H   UNL     1      52.028  -0.491  18.033  0.00  0.00    +0.000 HD
ATOM     27  H   UNL     1      50.398   0.090  18.077  0.00  0.00    +0.000 HD
ENDBRANCH  17  24
ENDBRANCH  16  21
ENDBRANCH  15  16
ENDBRANCH   1  15
TORSDOF 5
ENDMDL
MODEL 8
REMARK VINA RESULT:    -6.747      3.500      7.273
REMARK INTER + INTRA:          -8.961
REMARK INTER:                  -8.691
REMARK INTRA:                  -0.269
REMARK UNBOUND:                -0.242
REMARK  Name = 
REMARK  5 active torsions:
REMARK  status: ('A' for Active; 'I' for Inactive)
REMARK    1  A    between atoms: C_2  and  C_4
REMARK    2  A    between atoms: C_8  and  C_9
REMARK    3  A    between atoms: C_9  and  O_10
REMARK    4  A    between atoms: O_10  and  C_11
REMARK    5  A    between atoms: C_16  and  C_17
REMARK                            x       y       z     vdW  Elec       q    Type
REMARK                         _______ _______ _______ _____ _____    ______ ____
ROOT
ATOM      1  C   UNL     1      47.301   6.780  12.382  0.00  0.00    +0.000 A 
ATOM      2  C   UNL     1      47.560   5.948  13.461  0.00  0.00    +0.000 A 
ATOM      3  C   UNL     1      46.748   4.836  13.658  0.00  0.00    +0.000 A 
ATOM      4  F   UNL     1      46.988   4.022  14.695  0.00  0.00    +0.000 F 
ATOM      5  C   UNL     1      45.701   4.534  12.785  0.00  0.00    +0.000 A 
ATOM      6  C   UNL     1      45.431   5.362  11.687  0.00  0.00    +0.000 A 
ATOM      7  C   UNL     1      46.211   6.512  11.553  0.00  0.00    +0.000 A 
ENDROOT
BRANCH   6   8
ATOM      8  C   UNL     1      44.326   5.023  10.692  0.00  0.00    +0.000 C 
ATOM      9  C   UNL     1      43.144   4.298  11.359  0.00  0.00    +0.000 C 
ATOM     10  C   UNL     1      43.433   2.821  11.632  0.00  0.00    +0.000 C 
ATOM     11  N   UNL     1      43.841   2.091  10.432  0.00  0.00    +0.000 NA
ATOM     12  C   UNL     1      44.977   2.710   9.757  0.00  0.00    +0.000 C 
ATOM     13  C   UNL     1      44.755   4.199   9.454  0.00  0.00    +0.000 C 
ATOM     14  H   UNL     1      43.052   2.046   9.783  0.00  0.00    +0.000 HD
ENDBRANCH   6   8
BRANCH   1  15
ATOM     15  O   UNL     1      48.144   7.841  12.172  0.00  0.00    +0.000 OA
BRANCH  15  16
ATOM     16  C   UNL     1      47.807   8.998  12.944  0.00  0.00    +0.000 C 
BRANCH  16  21
ATOM     17  C   UNL     1      44.931  10.779  11.239  0.00  0.00    +0.000 A 
ATOM     18  C   UNL     1      45.662  11.738  10.549  0.00  0.00    +0.000 A 
ATOM     19  N   UNL     1      47.010  11.861  10.627  0.00  0.00    +0.000 NA
ATOM     20  C   UNL     1      47.657  10.966  11.403  0.00  0.00    +0.000 A 
ATOM     21  C   UNL     1      47.020   9.952  12.108  0.00  0.00    +0.000 A 
ATOM     22  C   UNL     1      45.626   9.865  12.025  0.00  0.00    +0.000 A 
BRANCH  17  24
ATOM     23  N   UNL     1      42.725  10.993  12.234  0.00  0.00    +0.000 N 
ATOM     24  C   UNL     1      43.462  10.760  11.103  0.00  0.00    +0.000 C 
ATOM     25  O   UNL     1      42.923  10.582  10.019  0.00  0.00    +0.000 OA
ATOM     26  H   UNL     1      41.728  11.082  12.098  0.00  0.00    +0.000 HD
ATOM     27  H   UNL     1      43.126  11.388  13.073  0.00  0.00    +0.000 HD
ENDBRANCH  17  24
ENDBRANCH  16  21
ENDBRANCH  15  16
ENDBRANCH   1  15
TORSDOF 5
ENDMDL
MODEL 9
REMARK VINA RESULT:    -6.588      4.476      7.309
REMARK INTER + INTRA:          -8.755
REMARK INTER:                  -8.014
REMARK INTRA:                  -0.741
REMARK UNBOUND:                -0.242
REMARK  Name = 
REMARK  5 active torsions:
REMARK  status: ('A' for Active; 'I' for Inactive)
REMARK    1  A    between atoms: C_2  and  C_4
REMARK    2  A    between atoms: C_8  and  C_9
REMARK    3  A    between atoms: C_9  and  O_10
REMARK    4  A    between atoms: O_10  and  C_11
REMARK    5  A    between atoms: C_16  and  C_17
REMARK                            x       y       z     vdW  Elec       q    Type
REMARK                         _______ _______ _______ _____ _____    ______ ____
ROOT
ATOM      1  C   UNL     1      46.685   4.650  14.012  0.00  0.00    +0.000 A 
ATOM      2  C   UNL     1      45.664   4.549  13.079  0.00  0.00    +0.000 A 
ATOM      3  C   UNL     1      45.641   5.441  12.013  0.00  0.00    +0.000 A 
ATOM      4  F   UNL     1      44.660   5.355  11.104  0.00  0.00    +0.000 F 
ATOM      5  C   UNL     1      46.630   6.414  11.855  0.00  0.00    +0.000 A 
ATOM      6  C   UNL     1      47.672   6.524  12.785  0.00  0.00    +0.000 A 
ATOM      7  C   UNL     1      47.633   5.666  13.887  0.00  0.00    +0.000 A 
ENDROOT
BRANCH   6   8
ATOM      8  C   UNL     1      48.792   7.544  12.605  0.00  0.00    +0.000 C 
ATOM      9  C   UNL     1      49.390   7.994  13.950  0.00  0.00    +0.000 C 
ATOM     10  C   UNL     1      48.506   9.006  14.682  0.00  0.00    +0.000 C 
ATOM     11  N   UNL     1      48.191  10.179  13.868  0.00  0.00    +0.000 NA
ATOM     12  C   UNL     1      47.597   9.827  12.582  0.00  0.00    +0.000 C 
ATOM     13  C   UNL     1      48.434   8.811  11.793  0.00  0.00    +0.000 C 
ATOM     14  H   UNL     1      49.048  10.712  13.704  0.00  0.00    +0.000 HD
ENDBRANCH   6   8
BRANCH   1  15
ATOM     15  O   UNL     1      46.723   3.728  15.026  0.00  0.00    +0.000 OA
BRANCH  15  16
ATOM     16  C   UNL     1      47.173   4.270  16.272  0.00  0.00    +0.000 C 
BRANCH  16  21
ATOM     17  C   UNL     1      50.584   3.662  17.805  0.00  0.00    +0.000 A 
ATOM     18  C   UNL     1      50.793   2.371  17.338  0.00  0.00    +0.000 A 
ATOM     19  N   UNL     1      49.893   1.682  16.593  0.00  0.00    +0.000 NA
ATOM     20  C   UNL     1      48.751   2.325  16.274  0.00  0.00    +0.000 A 
ATOM     21  C   UNL     1      48.461   3.626  16.667  0.00  0.00    +0.000 A 
ATOM     22  C   UNL     1      49.399   4.303  17.454  0.00  0.00    +0.000 A 
BRANCH  17  24
ATOM     23  N   UNL     1      52.490   3.476  19.301  0.00  0.00    +0.000 N 
ATOM     24  C   UNL     1      51.621   4.302  18.636  0.00  0.00    +0.000 C 
ATOM     25  O   UNL     1      51.726   5.519  18.702  0.00  0.00    +0.000 OA
ATOM     26  H   UNL     1      53.255   3.934  19.775  0.00  0.00    +0.000 HD
ATOM     27  H   UNL     1      52.592   2.497  19.072  0.00  0.00    +0.000 HD
ENDBRANCH  17  24
ENDBRANCH  16  21
ENDBRANCH  15  16
ENDBRANCH   1  15
TORSDOF 5
ENDMDL
