MODEL 1
REMARK VINA RESULT:    -7.530      0.000      0.000
REMARK INTER + INTRA:         -11.221
REMARK INTER:                 -10.611
REMARK INTRA:                  -0.609
REMARK UNBOUND:                -0.609
REMARK  Name = 
REMARK  8 active torsions:
REMARK  status: ('A' for Active; 'I' for Inactive)
REMARK    1  A    between atoms: C_1  and  C_2
REMARK    2  A    between atoms: C_2  and  O_3
REMARK    3  A    between atoms: O_3  and  N_4
REMARK    4  A    between atoms: C_5  and  C_6
REMARK    5  A    between atoms: C_5  and  C_20
REMARK    6  A    between atoms: C_6  and  C_7
REMARK    7  A    between atoms: C_10  and  C_11
REMARK    8  A    between atoms: C_11  and  N_12
REMARK                            x       y       z     vdW  Elec       q    Type
REMARK                         _______ _______ _______ _____ _____    ______ ____
ROOT
ATOM      1  N   UNL     1      48.338   6.710  12.747  0.00  0.00    +0.000 NA
ATOM      2  C   UNL     1      47.589   6.298  13.735  0.00  0.00    +0.000 C 
ENDROOT
BRANCH   2   3
ATOM      3  C   UNL     1      48.079   6.141  15.129  0.00  0.00    +0.000 A 
ATOM      4  C   UNL     1      48.611   7.204  15.850  0.00  0.00    +0.000 A 
ATOM      5  S   UNL     1      49.010   6.827  17.463  0.00  0.00    +0.000 S 
ATOM      6  C   UNL     1      48.413   5.248  17.293  0.00  0.00    +0.000 A 
ATOM      7  N   UNL     1      48.373   4.407  18.359  0.00  0.00    +0.000 NA
ATOM      8  C   UNL     1      47.837   3.256  18.113  0.00  0.00    +0.000 A 
ATOM      9  N   UNL     1      47.387   2.859  16.881  0.00  0.00    +0.000 N 
ATOM     10  C   UNL     1      47.591   3.607  15.744  0.00  0.00    +0.000 A 
ATOM     11  O   UNL     1      47.470   3.099  14.636  0.00  0.00    +0.000 OA
ATOM     12  C   UNL     1      48.012   4.978  15.993  0.00  0.00    +0.000 A 
ATOM     13  H   UNL     1      47.070   1.913  16.735  0.00  0.00    +0.000 HD
ENDBRANCH   2   3
BRANCH   1  14
ATOM     14  O   UNL     1      49.689   6.867  13.068  0.00  0.00    +0.000 OA
BRANCH  14  16
ATOM     15  C   UNL     1      49.092   8.557  11.504  0.00  0.00    +0.000 C 
ATOM     16  C   UNL     1      50.215   7.967  12.331  0.00  0.00    +0.000 C 
ENDBRANCH  14  16
ENDBRANCH   1  14
BRANCH   2  17
ATOM     17  C   UNL     1      46.097   6.098  13.469  0.00  0.00    +0.000 C 
BRANCH  17  18
ATOM     18  C   UNL     1      45.712   5.434  12.167  0.00  0.00    +0.000 A 
ATOM     19  C   UNL     1      45.918   6.100  10.950  0.00  0.00    +0.000 A 
ATOM     20  C   UNL     1      45.658   5.456   9.739  0.00  0.00    +0.000 A 
ATOM     21  C   UNL     1      45.184   4.139   9.721  0.00  0.00    +0.000 A 
ATOM     22  C   UNL     1      44.944   3.489  10.941  0.00  0.00    +0.000 A 
ATOM     23  C   UNL     1      45.204   4.131  12.153  0.00  0.00    +0.000 A 
BRANCH  21  24
ATOM     24  C   UNL     1      44.922   3.434   8.408  0.00  0.00    +0.000 C 
BRANCH  24  25
ATOM     25  N   UNL     1      46.116   2.793   7.814  0.00  0.00    +0.000 NA
ATOM     26  C   UNL     1      46.093   1.334   8.019  0.00  0.00    +0.000 C 
ATOM     27  C   UNL     1      47.275   0.636   7.343  0.00  0.00    +0.000 C 
ATOM     28  C   UNL     1      47.331   0.964   5.858  0.00  0.00    +0.000 C 
ATOM     29  C   UNL     1      47.356   2.474   5.668  0.00  0.00    +0.000 C 
ATOM     30  C   UNL     1      46.181   3.139   6.385  0.00  0.00    +0.000 C 
ENDBRANCH  24  25
ENDBRANCH  21  24
ENDBRANCH  17  18
ENDBRANCH   2  17
TORSDOF 7
ENDMDL
MODEL 2
REMARK VINA RESULT:    -7.320      3.361      7.613
REMARK INTER + INTRA:         -10.925
REMARK INTER:                 -10.125
REMARK INTRA:                  -0.800
REMARK UNBOUND:                -0.609
REMARK  Name = 
REMARK  8 active torsions:
REMARK  status: ('A' for Active; 'I' for Inactive)
REMARK    1  A    between atoms: C_1  and  C_2
REMARK    2  A    between atoms: C_2  and  O_3
REMARK    3  A    between atoms: O_3  and  N_4
REMARK    4  A    between atoms: C_5  and  C_6
REMARK    5  A    between atoms: C_5  and  C_20
REMARK    6  A    between atoms: C_6  and  C_7
REMARK    7  A    between atoms: C_10  and  C_11
REMARK    8  A    between atoms: C_11  and  N_12
REMARK                            x       y       z     vdW  Elec       q    Type
REMARK                         _______ _______ _______ _____ _____    ______ ____
ROOT
ATOM      1  N   UNL     1      45.730   8.006  11.855  0.00  0.00    +0.000 NA
ATOM      2  C   UNL     1      46.253   6.819  11.699  0.00  0.00    +0.000 C 
ENDROOT
BRANCH   2   3
ATOM      3  C   UNL     1      45.613   5.735  10.908  0.00  0.00    +0.000 A 
ATOM      4  C   UNL     1      45.922   5.515   9.571  0.00  0.00    +0.000 A 
ATOM      5  S   UNL     1      45.154   4.155   8.889  0.00  0.00    +0.000 S 
ATOM      6  C   UNL     1      44.438   3.754  10.374  0.00  0.00    +0.000 A 
ATOM      7  N   UNL     1      43.707   2.617  10.503  0.00  0.00    +0.000 NA
ATOM      8  C   UNL     1      43.270   2.393  11.700  0.00  0.00    +0.000 A 
ATOM      9  N   UNL     1      43.459   3.237  12.762  0.00  0.00    +0.000 N 
ATOM     10  C   UNL     1      44.021   4.485  12.623  0.00  0.00    +0.000 A 
ATOM     11  O   UNL     1      43.891   5.328  13.503  0.00  0.00    +0.000 OA
ATOM     12  C   UNL     1      44.696   4.703  11.352  0.00  0.00    +0.000 A 
ATOM     13  H   UNL     1      43.008   3.053  13.646  0.00  0.00    +0.000 HD
ENDBRANCH   2   3
BRANCH   1  14
ATOM     14  O   UNL     1      44.441   8.147  11.332  0.00  0.00    +0.000 OA
BRANCH  14  16
ATOM     15  C   UNL     1      45.203  10.338  11.858  0.00  0.00    +0.000 C 
ATOM     16  C   UNL     1      44.195   9.525  11.072  0.00  0.00    +0.000 C 
ENDBRANCH  14  16
ENDBRANCH   1  14
BRANCH   2  17
ATOM     17  C   UNL     1      47.660   6.579  12.244  0.00  0.00    +0.000 C 
BRANCH  17  18
ATOM     18  C   UNL     1      47.772   5.988  13.630  0.00  0.00    +0.000 A 
ATOM     19  C   UNL     1      48.448   6.688  14.640  0.00  0.00    +0.000 A 
ATOM     20  C   UNL     1      48.469   6.198  15.947  0.00  0.00    +0.000 A 
ATOM     21  C   UNL     1      47.821   4.999  16.268  0.00  0.00    +0.000 A 
ATOM     22  C   UNL     1      47.177   4.284  15.248  0.00  0.00    +0.000 A 
ATOM     23  C   UNL     1      47.153   4.773  13.941  0.00  0.00    +0.000 A 
BRANCH  21  24
ATOM     24  C   UNL     1      47.827   4.479  17.689  0.00  0.00    +0.000 C 
BRANCH  24  25
ATOM     25  N   UNL     1      49.051   3.734  18.058  0.00  0.00    +0.000 NA
ATOM     26  C   UNL     1      49.373   2.707  17.052  0.00  0.00    +0.000 C 
ATOM     27  C   UNL     1      50.680   1.976  17.367  0.00  0.00    +0.000 C 
ATOM     28  C   UNL     1      51.835   2.958  17.513  0.00  0.00    +0.000 C 
ATOM     29  C   UNL     1      51.485   4.008  18.557  0.00  0.00    +0.000 C 
ATOM     30  C   UNL     1      50.157   4.691  18.227  0.00  0.00    +0.000 C 
ENDBRANCH  24  25
ENDBRANCH  21  24
ENDBRANCH  17  18
ENDBRANCH   2  17
TORSDOF 7
ENDMDL
MODEL 3
REMARK VINA RESULT:    -7.308      3.421      8.514
REMARK INTER + INTRA:         -10.908
REMARK INTER:                  -9.624
REMARK INTRA:                  -1.284
REMARK UNBOUND:                -0.609
REMARK  Name = 
REMARK  8 active torsions:
REMARK  status: ('A' for Active; 'I' for Inactive)
REMARK    1  A    between atoms: C_1  and  C_2
REMARK    2  A    between atoms: C_2  and  O_3
REMARK    3  A    between atoms: O_3  and  N_4
REMARK    4  A    between atoms: C_5  and  C_6
REMARK    5  A    between atoms: C_5  and  C_20
REMARK    6  A    between atoms: C_6  and  C_7
REMARK    7  A    between atoms: C_10  and  C_11
REMARK    8  A    between atoms: C_11  and  N_12
REMARK                            x       y       z     vdW  Elec       q    Type
REMARK                         _______ _______ _______ _____ _____    ______ ____
ROOT
ATOM      1  N   UNL     1      45.644   8.093  11.895  0.00  0.00    +0.000 NA
ATOM      2  C   UNL     1      46.198   6.920  11.740  0.00  0.00    +0.000 C 
ENDROOT
BRANCH   2   3
ATOM      3  C   UNL     1      45.590   5.822  10.944  0.00  0.00    +0.000 A 
ATOM      4  C   UNL     1      45.930   5.596   9.615  0.00  0.00    +0.000 A 
ATOM      5  S   UNL     1      45.195   4.221   8.927  0.00  0.00    +0.000 S 
ATOM      6  C   UNL     1      44.453   3.821  10.400  0.00  0.00    +0.000 A 
ATOM      7  N   UNL     1      43.735   2.675  10.522  0.00  0.00    +0.000 NA
ATOM      8  C   UNL     1      43.276   2.454  11.711  0.00  0.00    +0.000 A 
ATOM      9  N   UNL     1      43.432   3.308  12.771  0.00  0.00    +0.000 N 
ATOM     10  C   UNL     1      43.980   4.563  12.635  0.00  0.00    +0.000 A 
ATOM     11  O   UNL     1      43.820   5.409  13.505  0.00  0.00    +0.000 OA
ATOM     12  C   UNL     1      44.677   4.780  11.376  0.00  0.00    +0.000 A 
ATOM     13  H   UNL     1      42.965   3.124  13.646  0.00  0.00    +0.000 HD
ENDBRANCH   2   3
BRANCH   1  14
ATOM     14  O   UNL     1      44.355   8.202  11.367  0.00  0.00    +0.000 OA
BRANCH  14  16
ATOM     15  C   UNL     1      45.077  10.430  11.782  0.00  0.00    +0.000 C 
ATOM     16  C   UNL     1      44.119   9.557  10.998  0.00  0.00    +0.000 C 
ENDBRANCH  14  16
ENDBRANCH   1  14
BRANCH   2  17
ATOM     17  C   UNL     1      47.609   6.714  12.291  0.00  0.00    +0.000 C 
BRANCH  17  18
ATOM     18  C   UNL     1      47.728   6.216  13.712  0.00  0.00    +0.000 A 
ATOM     19  C   UNL     1      47.124   5.006  14.086  0.00  0.00    +0.000 A 
ATOM     20  C   UNL     1      47.313   4.489  15.369  0.00  0.00    +0.000 A 
ATOM     21  C   UNL     1      48.103   5.171  16.302  0.00  0.00    +0.000 A 
ATOM     22  C   UNL     1      48.675   6.398  15.936  0.00  0.00    +0.000 A 
ATOM     23  C   UNL     1      48.488   6.917  14.653  0.00  0.00    +0.000 A 
BRANCH  21  24
ATOM     24  C   UNL     1      48.324   4.601  17.686  0.00  0.00    +0.000 C 
BRANCH  24  25
ATOM     25  N   UNL     1      48.553   5.620  18.734  0.00  0.00    +0.000 NA
ATOM     26  C   UNL     1      47.321   5.882  19.498  0.00  0.00    +0.000 C 
ATOM     27  C   UNL     1      47.549   6.873  20.642  0.00  0.00    +0.000 C 
ATOM     28  C   UNL     1      48.658   6.395  21.569  0.00  0.00    +0.000 C 
ATOM     29  C   UNL     1      49.921   6.132  20.762  0.00  0.00    +0.000 C 
ATOM     30  C   UNL     1      49.647   5.166  19.608  0.00  0.00    +0.000 C 
ENDBRANCH  24  25
ENDBRANCH  21  24
ENDBRANCH  17  18
ENDBRANCH   2  17
TORSDOF 7
ENDMDL
MODEL 4
REMARK VINA RESULT:    -7.286      1.821      3.206
REMARK INTER + INTRA:         -10.877
REMARK INTER:                 -10.009
REMARK INTRA:                  -0.868
REMARK UNBOUND:                -0.609
REMARK  Name = 
REMARK  8 active torsions:
REMARK  status: ('A' for Active; 'I' for Inactive)
REMARK    1  A    between atoms: C_1  and  C_2
REMARK    2  A    between atoms: C_2  and  O_3
REMARK    3  A    between atoms: O_3  and  N_4
REMARK    4  A    between atoms: C_5  and  C_6
REMARK    5  A    between atoms: C_5  and  C_20
REMARK    6  A    between atoms: C_6  and  C_7
REMARK    7  A    between atoms: C_10  and  C_11
REMARK    8  A    between atoms: C_11  and  N_12
REMARK                            x       y       z     vdW  Elec       q    Type
REMARK                         _______ _______ _______ _____ _____    ______ ____
ROOT
ATOM      1  N   UNL     1      47.117   3.566  14.610  0.00  0.00    +0.000 NA
ATOM      2  C   UNL     1      46.941   4.820  14.289  0.00  0.00    +0.000 C 
ENDROOT
BRANCH   2   3
ATOM      3  C   UNL     1      48.011   5.848  14.369  0.00  0.00    +0.000 A 
ATOM      4  C   UNL     1      48.616   6.376  13.234  0.00  0.00    +0.000 A 
ATOM      5  S   UNL     1      49.739   7.618  13.552  0.00  0.00    +0.000 S 
ATOM      6  C   UNL     1      49.406   7.560  15.214  0.00  0.00    +0.000 A 
ATOM      7  N   UNL     1      49.980   8.450  16.065  0.00  0.00    +0.000 NA
ATOM      8  C   UNL     1      49.595   8.341  17.294  0.00  0.00    +0.000 A 
ATOM      9  N   UNL     1      48.726   7.386  17.752  0.00  0.00    +0.000 N 
ATOM     10  C   UNL     1      48.281   6.352  16.960  0.00  0.00    +0.000 A 
ATOM     11  O   UNL     1      47.776   5.357  17.462  0.00  0.00    +0.000 OA
ATOM     12  C   UNL     1      48.528   6.536  15.537  0.00  0.00    +0.000 A 
ATOM     13  H   UNL     1      48.544   7.294  18.739  0.00  0.00    +0.000 HD
ENDBRANCH   2   3
BRANCH   1  14
ATOM     14  O   UNL     1      48.364   3.280  15.173  0.00  0.00    +0.000 OA
BRANCH  14  16
ATOM     15  C   UNL     1      49.482   2.352  17.057  0.00  0.00    +0.000 C 
ATOM     16  C   UNL     1      48.182   2.404  16.282  0.00  0.00    +0.000 C 
ENDBRANCH  14  16
ENDBRANCH   1  14
BRANCH   2  17
ATOM     17  C   UNL     1      45.603   5.219  13.668  0.00  0.00    +0.000 C 
BRANCH  17  18
ATOM     18  C   UNL     1      45.380   4.858  12.218  0.00  0.00    +0.000 A 
ATOM     19  C   UNL     1      45.758   5.751  11.204  0.00  0.00    +0.000 A 
ATOM     20  C   UNL     1      45.648   5.384   9.862  0.00  0.00    +0.000 A 
ATOM     21  C   UNL     1      45.155   4.123   9.507  0.00  0.00    +0.000 A 
ATOM     22  C   UNL     1      44.744   3.246  10.522  0.00  0.00    +0.000 A 
ATOM     23  C   UNL     1      44.854   3.611  11.865  0.00  0.00    +0.000 A 
BRANCH  21  24
ATOM     24  C   UNL     1      45.055   3.717   8.053  0.00  0.00    +0.000 C 
BRANCH  24  25
ATOM     25  N   UNL     1      46.255   3.027   7.531  0.00  0.00    +0.000 NA
ATOM     26  C   UNL     1      46.233   1.593   7.868  0.00  0.00    +0.000 C 
ATOM     27  C   UNL     1      47.423   0.839   7.270  0.00  0.00    +0.000 C 
ATOM     28  C   UNL     1      47.491   1.030   5.761  0.00  0.00    +0.000 C 
ATOM     29  C   UNL     1      47.516   2.516   5.434  0.00  0.00    +0.000 C 
ATOM     30  C   UNL     1      46.333   3.241   6.076  0.00  0.00    +0.000 C 
ENDBRANCH  24  25
ENDBRANCH  21  24
ENDBRANCH  17  18
ENDBRANCH   2  17
TORSDOF 7
ENDMDL
MODEL 5
REMARK VINA RESULT:    -7.172      3.446      8.522
REMARK INTER + INTRA:         -10.717
REMARK INTER:                  -9.433
REMARK INTRA:                  -1.284
REMARK UNBOUND:                -0.609
REMARK  Name = 
REMARK  8 active torsions:
REMARK  status: ('A' for Active; 'I' for Inactive)
REMARK    1  A    between atoms: C_1  and  C_2
REMARK    2  A    between atoms: C_2  and  O_3
REMARK    3  A    between atoms: O_3  and  N_4
REMARK    4  A    between atoms: C_5  and  C_6
REMARK    5  A    between atoms: C_5  and  C_20
REMARK    6  A    between atoms: C_6  and  C_7
REMARK    7  A    between atoms: C_10  and  C_11
REMARK    8  A    between atoms: C_11  and  N_12
REMARK                            x       y       z     vdW  Elec       q    Type
REMARK                         _______ _______ _______ _____ _____    ______ ____
ROOT
ATOM      1  N   UNL     1      45.764   8.035  11.835  0.00  0.00    +0.000 NA
ATOM      2  C   UNL     1      46.315   6.870  11.623  0.00  0.00    +0.000 C 
ENDROOT
BRANCH   2   3
ATOM      3  C   UNL     1      45.646   5.765  10.889  0.00  0.00    +0.000 A 
ATOM      4  C   UNL     1      45.901   5.507   9.547  0.00  0.00    +0.000 A 
ATOM      5  S   UNL     1      45.108   4.128   8.935  0.00  0.00    +0.000 S 
ATOM      6  C   UNL     1      44.452   3.769  10.458  0.00  0.00    +0.000 A 
ATOM      7  N   UNL     1      43.729   2.636  10.648  0.00  0.00    +0.000 NA
ATOM      8  C   UNL     1      43.341   2.446  11.867  0.00  0.00    +0.000 A 
ATOM      9  N   UNL     1      43.571   3.319  12.897  0.00  0.00    +0.000 N 
ATOM     10  C   UNL     1      44.126   4.563  12.701  0.00  0.00    +0.000 A 
ATOM     11  O   UNL     1      44.029   5.430  13.561  0.00  0.00    +0.000 OA
ATOM     12  C   UNL     1      44.748   4.745  11.398  0.00  0.00    +0.000 A 
ATOM     13  H   UNL     1      43.156   3.160  13.803  0.00  0.00    +0.000 HD
ENDBRANCH   2   3
BRANCH   1  14
ATOM     14  O   UNL     1      44.427   8.128  11.437  0.00  0.00    +0.000 OA
BRANCH  14  16
ATOM     15  C   UNL     1      45.300  10.336  11.572  0.00  0.00    +0.000 C 
ATOM     16  C   UNL     1      44.129   9.485  11.125  0.00  0.00    +0.000 C 
ENDBRANCH  14  16
ENDBRANCH   1  14
BRANCH   2  17
ATOM     17  C   UNL     1      47.776   6.683  12.031  0.00  0.00    +0.000 C 
BRANCH  17  18
ATOM     18  C   UNL     1      48.062   6.492  13.502  0.00  0.00    +0.000 A 
ATOM     19  C   UNL     1      47.418   5.471  14.217  0.00  0.00    +0.000 A 
ATOM     20  C   UNL     1      47.750   5.223  15.550  0.00  0.00    +0.000 A 
ATOM     21  C   UNL     1      48.726   5.992  16.195  0.00  0.00    +0.000 A 
ATOM     22  C   UNL     1      49.342   7.036  15.488  0.00  0.00    +0.000 A 
ATOM     23  C   UNL     1      49.012   7.284  14.155  0.00  0.00    +0.000 A 
BRANCH  21  24
ATOM     24  C   UNL     1      49.100   5.710  17.633  0.00  0.00    +0.000 C 
BRANCH  24  25
ATOM     25  N   UNL     1      48.151   6.258  18.627  0.00  0.00    +0.000 NA
ATOM     26  C   UNL     1      48.231   5.523  19.901  0.00  0.00    +0.000 C 
ATOM     27  C   UNL     1      47.317   6.121  20.973  0.00  0.00    +0.000 C 
ATOM     28  C   UNL     1      47.620   7.597  21.191  0.00  0.00    +0.000 C 
ATOM     29  C   UNL     1      47.530   8.338  19.865  0.00  0.00    +0.000 C 
ATOM     30  C   UNL     1      48.429   7.692  18.810  0.00  0.00    +0.000 C 
ENDBRANCH  24  25
ENDBRANCH  21  24
ENDBRANCH  17  18
ENDBRANCH   2  17
TORSDOF 7
ENDMDL
MODEL 6
REMARK VINA RESULT:    -6.892      2.187      4.117
REMARK INTER + INTRA:         -10.322
REMARK INTER:                  -9.113
REMARK INTRA:                  -1.209
REMARK UNBOUND:                -0.609
REMARK  Name = 
REMARK  8 active torsions:
REMARK  status: ('A' for Active; 'I' for Inactive)
REMARK    1  A    between atoms: C_1  and  C_2
REMARK    2  A    between atoms: C_2  and  O_3
REMARK    3  A    between atoms: O_3  and  N_4
REMARK    4  A    between atoms: C_5  and  C_6
REMARK    5  A    between atoms: C_5  and  C_20
REMARK    6  A    between atoms: C_6  and  C_7
REMARK    7  A    between atoms: C_10  and  C_11
REMARK    8  A    between atoms: C_11  and  N_12
REMARK                            x       y       z     vdW  Elec       q    Type
REMARK                         _______ _______ _______ _____ _____    ______ ____
ROOT
ATOM      1  N   UNL     1      47.447   5.489  14.731  0.00  0.00    +0.000 NA
ATOM      2  C   UNL     1      47.290   6.447  13.857  0.00  0.00    +0.000 C 
ENDROOT
BRANCH   2   3
ATOM      3  C   UNL     1      48.403   7.299  13.362  0.00  0.00    +0.000 A 
ATOM      4  C   UNL     1      49.150   6.961  12.240  0.00  0.00    +0.000 A 
ATOM      5  S   UNL     1      50.304   8.131  11.787  0.00  0.00    +0.000 S 
ATOM      6  C   UNL     1      49.799   9.178  13.024  0.00  0.00    +0.000 A 
ATOM      7  N   UNL     1      50.332  10.421  13.136  0.00  0.00    +0.000 NA
ATOM      8  C   UNL     1      49.818  11.142  14.078  0.00  0.00    +0.000 A 
ATOM      9  N   UNL     1      48.854  10.706  14.948  0.00  0.00    +0.000 N 
ATOM     10  C   UNL     1      48.434   9.395  14.988  0.00  0.00    +0.000 A 
ATOM     11  O   UNL     1      47.824   8.967  15.960  0.00  0.00    +0.000 OA
ATOM     12  C   UNL     1      48.836   8.599  13.837  0.00  0.00    +0.000 A 
ATOM     13  H   UNL     1      48.566  11.284  15.722  0.00  0.00    +0.000 HD
ENDBRANCH   2   3
BRANCH   1  14
ATOM     14  O   UNL     1      48.729   5.407  15.281  0.00  0.00    +0.000 OA
BRANCH  14  16
ATOM     15  C   UNL     1      47.509   4.481  17.101  0.00  0.00    +0.000 C 
ATOM     16  C   UNL     1      48.626   5.423  16.702  0.00  0.00    +0.000 C 
ENDBRANCH  14  16
ENDBRANCH   1  14
BRANCH   2  17
ATOM     17  C   UNL     1      45.916   6.608  13.208  0.00  0.00    +0.000 C 
BRANCH  17  18
ATOM     18  C   UNL     1      45.565   5.654  12.091  0.00  0.00    +0.000 A 
ATOM     19  C   UNL     1      45.716   6.050  10.754  0.00  0.00    +0.000 A 
ATOM     20  C   UNL     1      45.489   5.142   9.718  0.00  0.00    +0.000 A 
ATOM     21  C   UNL     1      45.105   3.826   9.997  0.00  0.00    +0.000 A 
ATOM     22  C   UNL     1      44.919   3.443  11.333  0.00  0.00    +0.000 A 
ATOM     23  C   UNL     1      45.146   4.349  12.371  0.00  0.00    +0.000 A 
BRANCH  21  24
ATOM     24  C   UNL     1      44.879   2.836   8.875  0.00  0.00    +0.000 C 
BRANCH  24  25
ATOM     25  N   UNL     1      46.080   2.564   8.054  0.00  0.00    +0.000 NA
ATOM     26  C   UNL     1      46.336   1.117   7.950  0.00  0.00    +0.000 C 
ATOM     27  C   UNL     1      47.526   0.803   7.039  0.00  0.00    +0.000 C 
ATOM     28  C   UNL     1      47.333   1.411   5.656  0.00  0.00    +0.000 C 
ATOM     29  C   UNL     1      47.072   2.904   5.786  0.00  0.00    +0.000 C 
ATOM     30  C   UNL     1      45.901   3.180   6.729  0.00  0.00    +0.000 C 
ENDBRANCH  24  25
ENDBRANCH  21  24
ENDBRANCH  17  18
ENDBRANCH   2  17
TORSDOF 7
ENDMDL
MODEL 7
REMARK VINA RESULT:    -6.563      2.073      3.185
REMARK INTER + INTRA:          -9.858
REMARK INTER:                  -9.111
REMARK INTRA:                  -0.747
REMARK UNBOUND:                -0.609
REMARK  Name = 
REMARK  8 active torsions:
REMARK  status: ('A' for Active; 'I' for Inactive)
REMARK    1  A    between atoms: C_1  and  C_2
REMARK    2  A    between atoms: C_2  and  O_3
REMARK    3  A    between atoms: O_3  and  N_4
REMARK    4  A    between atoms: C_5  and  C_6
REMARK    5  A    between atoms: C_5  and  C_20
REMARK    6  A    between atoms: C_6  and  C_7
REMARK    7  A    between atoms: C_10  and  C_11
REMARK    8  A    between atoms: C_11  and  N_12
REMARK                            x       y       z     vdW  Elec       q    Type
REMARK                         _______ _______ _______ _____ _____    ______ ____
ROOT
ATOM      1  N   UNL     1      48.099   8.333  15.247  0.00  0.00    +0.000 NA
ATOM      2  C   UNL     1      48.947   7.399  14.905  0.00  0.00    +0.000 C 
ENDROOT
BRANCH   2   3
ATOM      3  C   UNL     1      49.834   6.700  15.871  0.00  0.00    +0.000 A 
ATOM      4  C   UNL     1      51.184   7.008  15.993  0.00  0.00    +0.000 A 
ATOM      5  S   UNL     1      51.988   6.162  17.235  0.00  0.00    +0.000 S 
ATOM      6  C   UNL     1      50.547   5.406  17.717  0.00  0.00    +0.000 A 
ATOM      7  N   UNL     1      50.523   4.602  18.812  0.00  0.00    +0.000 NA
ATOM      8  C   UNL     1      49.353   4.139  19.111  0.00  0.00    +0.000 A 
ATOM      9  N   UNL     1      48.219   4.371  18.379  0.00  0.00    +0.000 N 
ATOM     10  C   UNL     1      48.244   5.013  17.162  0.00  0.00    +0.000 A 
ATOM     11  O   UNL     1      47.294   4.928  16.394  0.00  0.00    +0.000 OA
ATOM     12  C   UNL     1      49.488   5.713  16.877  0.00  0.00    +0.000 A 
ATOM     13  H   UNL     1      47.358   3.900  18.611  0.00  0.00    +0.000 HD
ENDBRANCH   2   3
BRANCH   1  14
ATOM     14  O   UNL     1      48.180   8.731  16.584  0.00  0.00    +0.000 OA
BRANCH  14  16
ATOM     15  C   UNL     1      48.064  10.654  17.980  0.00  0.00    +0.000 C 
ATOM     16  C   UNL     1      48.508  10.117  16.636  0.00  0.00    +0.000 C 
ENDBRANCH  14  16
ENDBRANCH   1  14
BRANCH   2  17
ATOM     17  C   UNL     1      48.926   6.907  13.459  0.00  0.00    +0.000 C 
BRANCH  17  18
ATOM     18  C   UNL     1      47.591   6.484  12.894  0.00  0.00    +0.000 A 
ATOM     19  C   UNL     1      46.932   7.297  11.960  0.00  0.00    +0.000 A 
ATOM     20  C   UNL     1      45.748   6.867  11.358  0.00  0.00    +0.000 A 
ATOM     21  C   UNL     1      45.198   5.621  11.680  0.00  0.00    +0.000 A 
ATOM     22  C   UNL     1      45.839   4.826  12.641  0.00  0.00    +0.000 A 
ATOM     23  C   UNL     1      47.024   5.254  13.244  0.00  0.00    +0.000 A 
BRANCH  21  24
ATOM     24  C   UNL     1      43.926   5.147  11.013  0.00  0.00    +0.000 C 
BRANCH  24  25
ATOM     25  N   UNL     1      44.145   4.273   9.839  0.00  0.00    +0.000 NA
ATOM     26  C   UNL     1      45.345   4.683   9.088  0.00  0.00    +0.000 C 
ATOM     27  C   UNL     1      45.642   3.746   7.915  0.00  0.00    +0.000 C 
ATOM     28  C   UNL     1      45.774   2.303   8.384  0.00  0.00    +0.000 C 
ATOM     29  C   UNL     1      44.525   1.900   9.154  0.00  0.00    +0.000 C 
ATOM     30  C   UNL     1      44.241   2.877  10.295  0.00  0.00    +0.000 C 
ENDBRANCH  24  25
ENDBRANCH  21  24
ENDBRANCH  17  18
ENDBRANCH   2  17
TORSDOF 7
ENDMDL
MODEL 8
REMARK VINA RESULT:    -6.514      2.393      3.608
REMARK INTER + INTRA:          -9.790
REMARK INTER:                  -8.413
REMARK INTRA:                  -1.377
REMARK UNBOUND:                -0.609
REMARK  Name = 
REMARK  8 active torsions:
REMARK  status: ('A' for Active; 'I' for Inactive)
REMARK    1  A    between atoms: C_1  and  C_2
REMARK    2  A    between atoms: C_2  and  O_3
REMARK    3  A    between atoms: O_3  and  N_4
REMARK    4  A    between atoms: C_5  and  C_6
REMARK    5  A    between atoms: C_5  and  C_20
REMARK    6  A    between atoms: C_6  and  C_7
REMARK    7  A    between atoms: C_10  and  C_11
REMARK    8  A    between atoms: C_11  and  N_12
REMARK                            x       y       z     vdW  Elec       q    Type
REMARK                         _______ _______ _______ _____ _____    ______ ____
ROOT
ATOM      1  N   UNL     1      50.958   7.795  14.845  0.00  0.00    +0.000 NA
ATOM      2  C   UNL     1      49.749   8.198  15.131  0.00  0.00    +0.000 C 
ENDROOT
BRANCH   2   3
ATOM      3  C   UNL     1      49.217   8.289  16.516  0.00  0.00    +0.000 A 
ATOM      4  C   UNL     1      49.155   9.493  17.207  0.00  0.00    +0.000 A 
ATOM      5  S   UNL     1      48.412   9.386  18.737  0.00  0.00    +0.000 S 
ATOM      6  C   UNL     1      48.068   7.740  18.509  0.00  0.00    +0.000 A 
ATOM      7  N   UNL     1      47.346   7.051  19.430  0.00  0.00    +0.000 NA
ATOM      8  C   UNL     1      47.098   5.824  19.108  0.00  0.00    +0.000 A 
ATOM      9  N   UNL     1      47.555   5.215  17.969  0.00  0.00    +0.000 N 
ATOM     10  C   UNL     1      48.448   5.821  17.114  0.00  0.00    +0.000 A 
ATOM     11  O   UNL     1      49.075   5.158  16.297  0.00  0.00    +0.000 OA
ATOM     12  C   UNL     1      48.606   7.253  17.326  0.00  0.00    +0.000 A 
ATOM     13  H   UNL     1      47.409   4.228  17.825  0.00  0.00    +0.000 HD
ENDBRANCH   2   3
BRANCH   1  14
ATOM     14  O   UNL     1      51.685   7.316  15.939  0.00  0.00    +0.000 OA
BRANCH  14  16
ATOM     15  C   UNL     1      53.718   6.156  16.362  0.00  0.00    +0.000 C 
ATOM     16  C   UNL     1      53.069   7.293  15.600  0.00  0.00    +0.000 C 
ENDBRANCH  14  16
ENDBRANCH   1  14
BRANCH   2  17
ATOM     17  C   UNL     1      48.884   8.735  13.991  0.00  0.00    +0.000 C 
BRANCH  17  18
ATOM     18  C   UNL     1      47.752   7.858  13.512  0.00  0.00    +0.000 A 
ATOM     19  C   UNL     1      46.540   8.434  13.101  0.00  0.00    +0.000 A 
ATOM     20  C   UNL     1      45.526   7.639  12.564  0.00  0.00    +0.000 A 
ATOM     21  C   UNL     1      45.700   6.257  12.431  0.00  0.00    +0.000 A 
ATOM     22  C   UNL     1      46.898   5.679  12.876  0.00  0.00    +0.000 A 
ATOM     23  C   UNL     1      47.914   6.472  13.413  0.00  0.00    +0.000 A 
BRANCH  21  24
ATOM     24  C   UNL     1      44.609   5.398  11.829  0.00  0.00    +0.000 C 
BRANCH  24  25
ATOM     25  N   UNL     1      45.078   4.464  10.783  0.00  0.00    +0.000 NA
ATOM     26  C   UNL     1      44.080   3.411  10.524  0.00  0.00    +0.000 C 
ATOM     27  C   UNL     1      44.505   2.477   9.388  0.00  0.00    +0.000 C 
ATOM     28  C   UNL     1      44.795   3.260   8.115  0.00  0.00    +0.000 C 
ATOM     29  C   UNL     1      45.828   4.339   8.402  0.00  0.00    +0.000 C 
ATOM     30  C   UNL     1      45.386   5.230   9.564  0.00  0.00    +0.000 C 
ENDBRANCH  24  25
ENDBRANCH  21  24
ENDBRANCH  17  18
ENDBRANCH   2  17
TORSDOF 7
ENDMDL
MODEL 9
REMARK VINA RESULT:    -6.408      2.898      4.824
REMARK INTER + INTRA:          -9.640
REMARK INTER:                  -7.888
REMARK INTRA:                  -1.752
REMARK UNBOUND:                -0.609
REMARK  Name = 
REMARK  8 active torsions:
REMARK  status: ('A' for Active; 'I' for Inactive)
REMARK    1  A    between atoms: C_1  and  C_2
REMARK    2  A    between atoms: C_2  and  O_3
REMARK    3  A    between atoms: O_3  and  N_4
REMARK    4  A    between atoms: C_5  and  C_6
REMARK    5  A    between atoms: C_5  and  C_20
REMARK    6  A    between atoms: C_6  and  C_7
REMARK    7  A    between atoms: C_10  and  C_11
REMARK    8  A    between atoms: C_11  and  N_12
REMARK                            x       y       z     vdW  Elec       q    Type
REMARK                         _______ _______ _______ _____ _____    ______ ____
ROOT
ATOM      1  N   UNL     1      48.750   8.397  17.536  0.00  0.00    +0.000 NA
ATOM      2  C   UNL     1      49.599   7.893  16.680  0.00  0.00    +0.000 C 
ENDROOT
BRANCH   2   3
ATOM      3  C   UNL     1      50.364   6.642  16.921  0.00  0.00    +0.000 A 
ATOM      4  C   UNL     1      51.721   6.652  17.225  0.00  0.00    +0.000 A 
ATOM      5  S   UNL     1      52.374   5.116  17.570  0.00  0.00    +0.000 S 
ATOM      6  C   UNL     1      50.854   4.379  17.406  0.00  0.00    +0.000 A 
ATOM      7  N   UNL     1      50.696   3.056  17.667  0.00  0.00    +0.000 NA
ATOM      8  C   UNL     1      49.478   2.632  17.569  0.00  0.00    +0.000 A 
ATOM      9  N   UNL     1      48.418   3.407  17.181  0.00  0.00    +0.000 N 
ATOM     10  C   UNL     1      48.573   4.695  16.722  0.00  0.00    +0.000 A 
ATOM     11  O   UNL     1      47.676   5.244  16.094  0.00  0.00    +0.000 OA
ATOM     12  C   UNL     1      49.880   5.276  16.991  0.00  0.00    +0.000 A 
ATOM     13  H   UNL     1      47.511   2.991  17.029  0.00  0.00    +0.000 HD
ENDBRANCH   2   3
BRANCH   1  14
ATOM     14  O   UNL     1      48.712   7.745  18.771  0.00  0.00    +0.000 OA
BRANCH  14  16
ATOM     15  C   UNL     1      47.395   6.124  19.910  0.00  0.00    +0.000 C 
ATOM     16  C   UNL     1      47.366   7.377  19.059  0.00  0.00    +0.000 C 
ENDBRANCH  14  16
ENDBRANCH   1  14
BRANCH   2  17
ATOM     17  C   UNL     1      49.705   8.549  15.304  0.00  0.00    +0.000 C 
BRANCH  17  18
ATOM     18  C   UNL     1      48.715   8.109  14.252  0.00  0.00    +0.000 A 
ATOM     19  C   UNL     1      48.991   6.991  13.450  0.00  0.00    +0.000 A 
ATOM     20  C   UNL     1      48.039   6.518  12.544  0.00  0.00    +0.000 A 
ATOM     21  C   UNL     1      46.798   7.153  12.421  0.00  0.00    +0.000 A 
ATOM     22  C   UNL     1      46.539   8.292  13.198  0.00  0.00    +0.000 A 
ATOM     23  C   UNL     1      47.489   8.766  14.104  0.00  0.00    +0.000 A 
BRANCH  21  24
ATOM     24  C   UNL     1      45.759   6.628  11.454  0.00  0.00    +0.000 C 
BRANCH  24  25
ATOM     25  N   UNL     1      45.325   5.240  11.725  0.00  0.00    +0.000 NA
ATOM     26  C   UNL     1      44.194   5.210  12.669  0.00  0.00    +0.000 C 
ATOM     27  C   UNL     1      43.673   3.791  12.903  0.00  0.00    +0.000 C 
ATOM     28  C   UNL     1      43.286   3.124  11.590  0.00  0.00    +0.000 C 
ATOM     29  C   UNL     1      44.467   3.163  10.631  0.00  0.00    +0.000 C 
ATOM     30  C   UNL     1      44.983   4.591  10.449  0.00  0.00    +0.000 C 
ENDBRANCH  24  25
ENDBRANCH  21  24
ENDBRANCH  17  18
ENDBRANCH   2  17
TORSDOF 7
ENDMDL
