MODEL 1
REMARK VINA RESULT:    -8.421      0.000      0.000
REMARK INTER + INTRA:         -13.055
REMARK INTER:                 -11.868
REMARK INTRA:                  -1.188
REMARK UNBOUND:                -1.188
REMARK  Name = 
REMARK  8 active torsions:
REMARK  status: ('A' for Active; 'I' for Inactive)
REMARK    1  A    between atoms: C_1  and  C_2
REMARK    2  A    between atoms: C_2  and  N_3
REMARK    3  A    between atoms: C_2  and  C_11
REMARK    4  A    between atoms: N_3  and  C_4
REMARK    5  A    between atoms: C_4  and  C_5
REMARK    6  A    between atoms: C_14  and  C_15
REMARK    7  A    between atoms: C_15  and  N_16
REMARK    8  A    between atoms: C_17  and  C_19
REMARK                            x       y       z     vdW  Elec       q    Type
REMARK                         _______ _______ _______ _____ _____    ______ ____
ROOT
ATOM      1  C   UNL     1      44.933   5.015  11.985  0.00  0.00    +0.000 A 
ATOM      2  C   UNL     1      45.416   4.453  13.182  0.00  0.00    +0.000 A 
ATOM      3  C   UNL     1      46.577   4.933  13.789  0.00  0.00    +0.000 A 
ATOM      4  C   UNL     1      47.263   6.019  13.239  0.00  0.00    +0.000 A 
ATOM      5  C   UNL     1      46.813   6.559  12.029  0.00  0.00    +0.000 A 
ATOM      6  C   UNL     1      45.667   6.058  11.404  0.00  0.00    +0.000 A 
ENDROOT
BRANCH   1   8
ATOM      7  C   UNL     1      42.460   5.402  11.505  0.00  0.00    +0.000 C 
ATOM      8  C   UNL     1      43.659   4.450  11.364  0.00  0.00    +0.000 C 
BRANCH   8   9
ATOM      9  N   UNL     1      43.808   4.095   9.943  0.00  0.00    +0.000 NA
ATOM     10  H   UNL     1      44.432   4.759   9.489  0.00  0.00    +0.000 HD
BRANCH   9  11
ATOM     11  C   UNL     1      44.332   2.743   9.751  0.00  0.00    +0.000 C 
BRANCH  11  12
ATOM     12  C   UNL     1      45.414   2.684   8.701  0.00  0.00    +0.000 A 
ATOM     13  C   UNL     1      46.016   1.458   8.376  0.00  0.00    +0.000 A 
ATOM     14  C   UNL     1      46.966   1.383   7.358  0.00  0.00    +0.000 A 
ATOM     15  C   UNL     1      47.326   2.532   6.656  0.00  0.00    +0.000 A 
ATOM     16  C   UNL     1      46.743   3.756   6.977  0.00  0.00    +0.000 A 
ATOM     17  C   UNL     1      45.791   3.833   7.994  0.00  0.00    +0.000 A 
ENDBRANCH  11  12
ENDBRANCH   9  11
ENDBRANCH   8   9
ENDBRANCH   1   8
BRANCH   4  18
ATOM     18  C   UNL     1      48.471   6.589  13.930  0.00  0.00    +0.000 C 
BRANCH  18  19
ATOM     19  N   UNL     1      48.223   6.818  15.328  0.00  0.00    +0.000 N 
ATOM     20  C   UNL     1      49.194   6.549  16.258  0.00  0.00    +0.000 C 
ATOM     21  O   UNL     1      50.313   6.158  15.934  0.00  0.00    +0.000 OA
ATOM     22  H   UNL     1      47.258   6.929  15.620  0.00  0.00    +0.000 HD
BRANCH  20  23
ATOM     23  C   UNL     1      48.855   6.809  17.661  0.00  0.00    +0.000 A 
ATOM     24  C   UNL     1      48.613   8.112  18.075  0.00  0.00    +0.000 A 
ATOM     25  S   UNL     1      48.195   8.241  19.722  0.00  0.00    +0.000 S 
ATOM     26  C   UNL     1      48.371   6.565  19.953  0.00  0.00    +0.000 A 
ATOM     27  N   UNL     1      48.181   6.006  21.178  0.00  0.00    +0.000 NA
ATOM     28  C   UNL     1      48.378   4.731  21.218  0.00  0.00    +0.000 A 
ATOM     29  N   UNL     1      48.736   3.959  20.142  0.00  0.00    +0.000 N 
ATOM     30  C   UNL     1      48.908   4.477  18.880  0.00  0.00    +0.000 A 
ATOM     31  O   UNL     1      49.182   3.752  17.929  0.00  0.00    +0.000 OA
ATOM     32  C   UNL     1      48.720   5.911  18.784  0.00  0.00    +0.000 A 
ATOM     33  H   UNL     1      48.865   2.966  20.239  0.00  0.00    +0.000 HD
ENDBRANCH  20  23
ENDBRANCH  18  19
ENDBRANCH   4  18
TORSDOF 7
ENDMDL
MODEL 2
REMARK VINA RESULT:    -8.183      1.444      2.263
REMARK INTER + INTRA:         -12.719
REMARK INTER:                 -11.487
REMARK INTRA:                  -1.232
REMARK UNBOUND:                -1.188
REMARK  Name = 
REMARK  8 active torsions:
REMARK  status: ('A' for Active; 'I' for Inactive)
REMARK    1  A    between atoms: C_1  and  C_2
REMARK    2  A    between atoms: C_2  and  N_3
REMARK    3  A    between atoms: C_2  and  C_11
REMARK    4  A    between atoms: N_3  and  C_4
REMARK    5  A    between atoms: C_4  and  C_5
REMARK    6  A    between atoms: C_14  and  C_15
REMARK    7  A    between atoms: C_15  and  N_16
REMARK    8  A    between atoms: C_17  and  C_19
REMARK                            x       y       z     vdW  Elec       q    Type
REMARK                         _______ _______ _______ _____ _____    ______ ____
ROOT
ATOM      1  C   UNL     1      45.446   4.599  12.112  0.00  0.00    +0.000 A 
ATOM      2  C   UNL     1      46.011   4.069  13.286  0.00  0.00    +0.000 A 
ATOM      3  C   UNL     1      46.986   4.768  14.000  0.00  0.00    +0.000 A 
ATOM      4  C   UNL     1      47.390   6.038  13.581  0.00  0.00    +0.000 A 
ATOM      5  C   UNL     1      46.863   6.557  12.393  0.00  0.00    +0.000 A 
ATOM      6  C   UNL     1      45.909   5.843  11.662  0.00  0.00    +0.000 A 
ENDROOT
BRANCH   1   8
ATOM      7  C   UNL     1      43.619   4.630  10.335  0.00  0.00    +0.000 C 
ATOM      8  C   UNL     1      44.386   3.791  11.371  0.00  0.00    +0.000 C 
BRANCH   8   9
ATOM      9  N   UNL     1      44.923   2.597  10.698  0.00  0.00    +0.000 NA
ATOM     10  H   UNL     1      44.673   1.764  11.227  0.00  0.00    +0.000 HD
BRANCH   9  11
ATOM     11  C   UNL     1      44.435   2.454   9.327  0.00  0.00    +0.000 C 
BRANCH  11  12
ATOM     12  C   UNL     1      45.552   2.412   8.314  0.00  0.00    +0.000 A 
ATOM     13  C   UNL     1      45.918   3.575   7.618  0.00  0.00    +0.000 A 
ATOM     14  C   UNL     1      46.995   3.561   6.733  0.00  0.00    +0.000 A 
ATOM     15  C   UNL     1      47.716   2.386   6.530  0.00  0.00    +0.000 A 
ATOM     16  C   UNL     1      47.355   1.222   7.208  0.00  0.00    +0.000 A 
ATOM     17  C   UNL     1      46.278   1.234   8.096  0.00  0.00    +0.000 A 
ENDBRANCH  11  12
ENDBRANCH   9  11
ENDBRANCH   8   9
ENDBRANCH   1   8
BRANCH   4  18
ATOM     18  C   UNL     1      48.383   6.829  14.387  0.00  0.00    +0.000 C 
BRANCH  18  19
ATOM     19  N   UNL     1      48.137   6.707  15.799  0.00  0.00    +0.000 N 
ATOM     20  C   UNL     1      49.113   6.232  16.636  0.00  0.00    +0.000 C 
ATOM     21  O   UNL     1      50.236   5.945  16.226  0.00  0.00    +0.000 OA
ATOM     22  H   UNL     1      47.171   6.732  16.110  0.00  0.00    +0.000 HD
BRANCH  20  23
ATOM     23  C   UNL     1      48.775   6.137  18.060  0.00  0.00    +0.000 A 
ATOM     24  C   UNL     1      48.966   4.935  18.728  0.00  0.00    +0.000 A 
ATOM     25  S   UNL     1      48.563   4.999  20.383  0.00  0.00    +0.000 S 
ATOM     26  C   UNL     1      48.070   6.622  20.254  0.00  0.00    +0.000 A 
ATOM     27  N   UNL     1      47.575   7.288  21.331  0.00  0.00    +0.000 NA
ATOM     28  C   UNL     1      47.211   8.502  21.085  0.00  0.00    +0.000 A 
ATOM     29  N   UNL     1      47.306   9.118  19.862  0.00  0.00    +0.000 N 
ATOM     30  C   UNL     1      47.829   8.493  18.756  0.00  0.00    +0.000 A 
ATOM     31  O   UNL     1      47.945   9.086  17.688  0.00  0.00    +0.000 OA
ATOM     32  C   UNL     1      48.234   7.117  18.971  0.00  0.00    +0.000 A 
ATOM     33  H   UNL     1      47.012  10.072  19.740  0.00  0.00    +0.000 HD
ENDBRANCH  20  23
ENDBRANCH  18  19
ENDBRANCH   4  18
TORSDOF 7
ENDMDL
MODEL 3
REMARK VINA RESULT:    -7.526      2.347      2.787
REMARK INTER + INTRA:         -11.793
REMARK INTER:                 -10.138
REMARK INTRA:                  -1.655
REMARK UNBOUND:                -1.188
REMARK  Name = 
REMARK  8 active torsions:
REMARK  status: ('A' for Active; 'I' for Inactive)
REMARK    1  A    between atoms: C_1  and  C_2
REMARK    2  A    between atoms: C_2  and  N_3
REMARK    3  A    between atoms: C_2  and  C_11
REMARK    4  A    between atoms: N_3  and  C_4
REMARK    5  A    between atoms: C_4  and  C_5
REMARK    6  A    between atoms: C_14  and  C_15
REMARK    7  A    between atoms: C_15  and  N_16
REMARK    8  A    between atoms: C_17  and  C_19
REMARK                            x       y       z     vdW  Elec       q    Type
REMARK                         _______ _______ _______ _____ _____    ______ ____
ROOT
ATOM      1  C   UNL     1      45.289   5.405  12.879  0.00  0.00    +0.000 A 
ATOM      2  C   UNL     1      46.530   4.898  13.305  0.00  0.00    +0.000 A 
ATOM      3  C   UNL     1      47.703   5.641  13.162  0.00  0.00    +0.000 A 
ATOM      4  C   UNL     1      47.659   6.931  12.628  0.00  0.00    +0.000 A 
ATOM      5  C   UNL     1      46.435   7.429  12.166  0.00  0.00    +0.000 A 
ATOM      6  C   UNL     1      45.265   6.672  12.281  0.00  0.00    +0.000 A 
ENDROOT
BRANCH   1   8
ATOM      7  C   UNL     1      42.767   5.245  12.546  0.00  0.00    +0.000 C 
ATOM      8  C   UNL     1      44.039   4.550  13.059  0.00  0.00    +0.000 C 
BRANCH   8   9
ATOM      9  N   UNL     1      44.137   3.228  12.419  0.00  0.00    +0.000 NA
ATOM     10  H   UNL     1      43.724   2.522  13.025  0.00  0.00    +0.000 HD
BRANCH   9  11
ATOM     11  C   UNL     1      43.475   3.180  11.115  0.00  0.00    +0.000 C 
BRANCH  11  12
ATOM     12  C   UNL     1      44.451   3.211   9.966  0.00  0.00    +0.000 A 
ATOM     13  C   UNL     1      44.919   2.013   9.404  0.00  0.00    +0.000 A 
ATOM     14  C   UNL     1      45.766   2.033   8.297  0.00  0.00    +0.000 A 
ATOM     15  C   UNL     1      46.158   3.249   7.741  0.00  0.00    +0.000 A 
ATOM     16  C   UNL     1      45.709   4.446   8.298  0.00  0.00    +0.000 A 
ATOM     17  C   UNL     1      44.859   4.428   9.405  0.00  0.00    +0.000 A 
ENDBRANCH  11  12
ENDBRANCH   9  11
ENDBRANCH   8   9
ENDBRANCH   1   8
BRANCH   4  18
ATOM     18  C   UNL     1      48.907   7.766  12.542  0.00  0.00    +0.000 C 
BRANCH  18  19
ATOM     19  N   UNL     1      49.923   7.293  13.442  0.00  0.00    +0.000 N 
ATOM     20  C   UNL     1      50.009   7.791  14.717  0.00  0.00    +0.000 C 
ATOM     21  O   UNL     1      49.201   8.610  15.150  0.00  0.00    +0.000 OA
ATOM     22  H   UNL     1      50.710   6.793  13.040  0.00  0.00    +0.000 HD
BRANCH  20  23
ATOM     23  C   UNL     1      51.078   7.254  15.566  0.00  0.00    +0.000 A 
ATOM     24  C   UNL     1      52.357   7.788  15.472  0.00  0.00    +0.000 A 
ATOM     25  S   UNL     1      53.474   7.083  16.549  0.00  0.00    +0.000 S 
ATOM     26  C   UNL     1      52.301   6.006  17.146  0.00  0.00    +0.000 A 
ATOM     27  N   UNL     1      52.617   5.086  18.095  0.00  0.00    +0.000 NA
ATOM     28  C   UNL     1      51.640   4.313  18.434  0.00  0.00    +0.000 A 
ATOM     29  N   UNL     1      50.370   4.381  17.919  0.00  0.00    +0.000 N 
ATOM     30  C   UNL     1      49.999   5.316  16.982  0.00  0.00    +0.000 A 
ATOM     31  O   UNL     1      48.842   5.382  16.576  0.00  0.00    +0.000 OA
ATOM     32  C   UNL     1      51.066   6.197  16.549  0.00  0.00    +0.000 A 
ATOM     33  H   UNL     1      49.651   3.753  18.234  0.00  0.00    +0.000 HD
ENDBRANCH  20  23
ENDBRANCH  18  19
ENDBRANCH   4  18
TORSDOF 7
ENDMDL
MODEL 4
REMARK VINA RESULT:    -7.387      3.424      8.634
REMARK INTER + INTRA:         -11.597
REMARK INTER:                  -9.155
REMARK INTRA:                  -2.443
REMARK UNBOUND:                -1.188
REMARK  Name = 
REMARK  8 active torsions:
REMARK  status: ('A' for Active; 'I' for Inactive)
REMARK    1  A    between atoms: C_1  and  C_2
REMARK    2  A    between atoms: C_2  and  N_3
REMARK    3  A    between atoms: C_2  and  C_11
REMARK    4  A    between atoms: N_3  and  C_4
REMARK    5  A    between atoms: C_4  and  C_5
REMARK    6  A    between atoms: C_14  and  C_15
REMARK    7  A    between atoms: C_15  and  N_16
REMARK    8  A    between atoms: C_17  and  C_19
REMARK                            x       y       z     vdW  Elec       q    Type
REMARK                         _______ _______ _______ _____ _____    ______ ____
ROOT
ATOM      1  C   UNL     1      49.987   6.719  18.598  0.00  0.00    +0.000 A 
ATOM      2  C   UNL     1      48.926   7.639  18.506  0.00  0.00    +0.000 A 
ATOM      3  C   UNL     1      48.497   8.127  17.271  0.00  0.00    +0.000 A 
ATOM      4  C   UNL     1      49.089   7.673  16.090  0.00  0.00    +0.000 A 
ATOM      5  C   UNL     1      50.171   6.788  16.173  0.00  0.00    +0.000 A 
ATOM      6  C   UNL     1      50.620   6.323  17.413  0.00  0.00    +0.000 A 
ENDROOT
BRANCH   1   8
ATOM      7  C   UNL     1      49.651   6.906  21.118  0.00  0.00    +0.000 C 
ATOM      8  C   UNL     1      50.416   6.219  19.974  0.00  0.00    +0.000 C 
BRANCH   8   9
ATOM      9  N   UNL     1      50.285   4.762  20.135  0.00  0.00    +0.000 NA
ATOM     10  H   UNL     1      50.681   4.480  21.030  0.00  0.00    +0.000 HD
BRANCH   9  11
ATOM     11  C   UNL     1      48.896   4.309  20.066  0.00  0.00    +0.000 C 
BRANCH  11  12
ATOM     12  C   UNL     1      48.506   3.842  18.686  0.00  0.00    +0.000 A 
ATOM     13  C   UNL     1      47.408   4.420  18.029  0.00  0.00    +0.000 A 
ATOM     14  C   UNL     1      47.084   4.045  16.726  0.00  0.00    +0.000 A 
ATOM     15  C   UNL     1      47.850   3.085  16.066  0.00  0.00    +0.000 A 
ATOM     16  C   UNL     1      48.936   2.497  16.712  0.00  0.00    +0.000 A 
ATOM     17  C   UNL     1      49.263   2.872  18.016  0.00  0.00    +0.000 A 
ENDBRANCH  11  12
ENDBRANCH   9  11
ENDBRANCH   8   9
ENDBRANCH   1   8
BRANCH   4  18
ATOM     18  C   UNL     1      48.581   8.137  14.753  0.00  0.00    +0.000 C 
BRANCH  18  19
ATOM     19  N   UNL     1      47.502   7.311  14.281  0.00  0.00    +0.000 N 
ATOM     20  C   UNL     1      47.730   6.340  13.339  0.00  0.00    +0.000 C 
ATOM     21  O   UNL     1      48.857   6.109  12.906  0.00  0.00    +0.000 OA
ATOM     22  H   UNL     1      46.555   7.628  14.463  0.00  0.00    +0.000 HD
BRANCH  20  23
ATOM     23  C   UNL     1      46.573   5.547  12.913  0.00  0.00    +0.000 A 
ATOM     24  C   UNL     1      46.604   4.165  13.052  0.00  0.00    +0.000 A 
ATOM     25  S   UNL     1      45.171   3.394  12.548  0.00  0.00    +0.000 S 
ATOM     26  C   UNL     1      44.476   4.873  12.080  0.00  0.00    +0.000 A 
ATOM     27  N   UNL     1      43.235   4.917  11.526  0.00  0.00    +0.000 NA
ATOM     28  C   UNL     1      42.842   6.100  11.189  0.00  0.00    +0.000 A 
ATOM     29  N   UNL     1      43.573   7.248  11.365  0.00  0.00    +0.000 N 
ATOM     30  C   UNL     1      44.817   7.254  11.949  0.00  0.00    +0.000 A 
ATOM     31  O   UNL     1      45.425   8.304  12.136  0.00  0.00    +0.000 OA
ATOM     32  C   UNL     1      45.316   5.946  12.327  0.00  0.00    +0.000 A 
ATOM     33  H   UNL     1      43.204   8.142  11.088  0.00  0.00    +0.000 HD
ENDBRANCH  20  23
ENDBRANCH  18  19
ENDBRANCH   4  18
TORSDOF 7
ENDMDL
MODEL 5
REMARK VINA RESULT:    -7.326      3.298      8.876
REMARK INTER + INTRA:         -11.512
REMARK INTER:                  -9.629
REMARK INTRA:                  -1.883
REMARK UNBOUND:                -1.188
REMARK  Name = 
REMARK  8 active torsions:
REMARK  status: ('A' for Active; 'I' for Inactive)
REMARK    1  A    between atoms: C_1  and  C_2
REMARK    2  A    between atoms: C_2  and  N_3
REMARK    3  A    between atoms: C_2  and  C_11
REMARK    4  A    between atoms: N_3  and  C_4
REMARK    5  A    between atoms: C_4  and  C_5
REMARK    6  A    between atoms: C_14  and  C_15
REMARK    7  A    between atoms: C_15  and  N_16
REMARK    8  A    between atoms: C_17  and  C_19
REMARK                            x       y       z     vdW  Elec       q    Type
REMARK                         _______ _______ _______ _____ _____    ______ ____
ROOT
ATOM      1  C   UNL     1      49.099   8.199  16.270  0.00  0.00    +0.000 A 
ATOM      2  C   UNL     1      48.137   9.065  15.717  0.00  0.00    +0.000 A 
ATOM      3  C   UNL     1      47.768   8.973  14.375  0.00  0.00    +0.000 A 
ATOM      4  C   UNL     1      48.320   7.983  13.558  0.00  0.00    +0.000 A 
ATOM      5  C   UNL     1      49.306   7.142  14.088  0.00  0.00    +0.000 A 
ATOM      6  C   UNL     1      49.698   7.255  15.426  0.00  0.00    +0.000 A 
ENDROOT
BRANCH   1   8
ATOM      7  C   UNL     1      48.284   8.826  18.602  0.00  0.00    +0.000 C 
ATOM      8  C   UNL     1      49.465   8.344  17.744  0.00  0.00    +0.000 C 
BRANCH   8   9
ATOM      9  N   UNL     1      50.000   7.109  18.339  0.00  0.00    +0.000 NA
ATOM     10  H   UNL     1      50.652   7.343  19.085  0.00  0.00    +0.000 HD
BRANCH   9  11
ATOM     11  C   UNL     1      48.953   6.242  18.878  0.00  0.00    +0.000 C 
BRANCH  11  12
ATOM     12  C   UNL     1      48.773   4.979  18.073  0.00  0.00    +0.000 A 
ATOM     13  C   UNL     1      49.786   4.007  18.047  0.00  0.00    +0.000 A 
ATOM     14  C   UNL     1      49.599   2.807  17.363  0.00  0.00    +0.000 A 
ATOM     15  C   UNL     1      48.400   2.566  16.694  0.00  0.00    +0.000 A 
ATOM     16  C   UNL     1      47.391   3.527  16.705  0.00  0.00    +0.000 A 
ATOM     17  C   UNL     1      47.576   4.729  17.390  0.00  0.00    +0.000 A 
ENDBRANCH  11  12
ENDBRANCH   9  11
ENDBRANCH   8   9
ENDBRANCH   1   8
BRANCH   4  18
ATOM     18  C   UNL     1      47.871   7.830  12.131  0.00  0.00    +0.000 C 
BRANCH  18  19
ATOM     19  N   UNL     1      47.129   6.613  11.937  0.00  0.00    +0.000 N 
ATOM     20  C   UNL     1      45.758   6.630  11.928  0.00  0.00    +0.000 C 
ATOM     21  O   UNL     1      45.121   7.676  12.032  0.00  0.00    +0.000 OA
ATOM     22  H   UNL     1      47.624   5.737  12.066  0.00  0.00    +0.000 HD
BRANCH  20  23
ATOM     23  C   UNL     1      45.083   5.344  11.727  0.00  0.00    +0.000 A 
ATOM     24  C   UNL     1      44.391   4.764  12.783  0.00  0.00    +0.000 A 
ATOM     25  S   UNL     1      43.631   3.293  12.378  0.00  0.00    +0.000 S 
ATOM     26  C   UNL     1      44.240   3.353  10.792  0.00  0.00    +0.000 A 
ATOM     27  N   UNL     1      43.979   2.355   9.906  0.00  0.00    +0.000 NA
ATOM     28  C   UNL     1      44.528   2.513   8.748  0.00  0.00    +0.000 A 
ATOM     29  N   UNL     1      45.306   3.585   8.389  0.00  0.00    +0.000 N 
ATOM     30  C   UNL     1      45.568   4.631   9.241  0.00  0.00    +0.000 A 
ATOM     31  O   UNL     1      46.228   5.598   8.874  0.00  0.00    +0.000 OA
ATOM     32  C   UNL     1      44.993   4.493  10.565  0.00  0.00    +0.000 A 
ATOM     33  H   UNL     1      45.697   3.652   7.464  0.00  0.00    +0.000 HD
ENDBRANCH  20  23
ENDBRANCH  18  19
ENDBRANCH   4  18
TORSDOF 7
ENDMDL
MODEL 6
REMARK VINA RESULT:    -6.989      3.566      9.358
REMARK INTER + INTRA:         -11.037
REMARK INTER:                  -9.202
REMARK INTRA:                  -1.835
REMARK UNBOUND:                -1.188
REMARK  Name = 
REMARK  8 active torsions:
REMARK  status: ('A' for Active; 'I' for Inactive)
REMARK    1  A    between atoms: C_1  and  C_2
REMARK    2  A    between atoms: C_2  and  N_3
REMARK    3  A    between atoms: C_2  and  C_11
REMARK    4  A    between atoms: N_3  and  C_4
REMARK    5  A    between atoms: C_4  and  C_5
REMARK    6  A    between atoms: C_14  and  C_15
REMARK    7  A    between atoms: C_15  and  N_16
REMARK    8  A    between atoms: C_17  and  C_19
REMARK                            x       y       z     vdW  Elec       q    Type
REMARK                         _______ _______ _______ _____ _____    ______ ____
ROOT
ATOM      1  C   UNL     1      49.283   5.294  19.817  0.00  0.00    +0.000 A 
ATOM      2  C   UNL     1      47.937   5.524  19.477  0.00  0.00    +0.000 A 
ATOM      3  C   UNL     1      47.374   4.960  18.331  0.00  0.00    +0.000 A 
ATOM      4  C   UNL     1      48.132   4.115  17.516  0.00  0.00    +0.000 A 
ATOM      5  C   UNL     1      49.482   3.912  17.825  0.00  0.00    +0.000 A 
ATOM      6  C   UNL     1      50.054   4.502  18.957  0.00  0.00    +0.000 A 
ENDROOT
BRANCH   1   8
ATOM      7  C   UNL     1      51.290   5.498  21.374  0.00  0.00    +0.000 C 
ATOM      8  C   UNL     1      49.846   5.937  21.081  0.00  0.00    +0.000 C 
BRANCH   8   9
ATOM      9  N   UNL     1      49.801   7.408  21.060  0.00  0.00    +0.000 NA
ATOM     10  H   UNL     1      50.143   7.773  21.947  0.00  0.00    +0.000 HD
BRANCH   9  11
ATOM     11  C   UNL     1      50.592   7.982  19.972  0.00  0.00    +0.000 C 
BRANCH  11  12
ATOM     12  C   UNL     1      49.749   8.368  18.783  0.00  0.00    +0.000 A 
ATOM     13  C   UNL     1      48.600   9.156  18.957  0.00  0.00    +0.000 A 
ATOM     14  C   UNL     1      47.855   9.576  17.855  0.00  0.00    +0.000 A 
ATOM     15  C   UNL     1      48.248   9.211  16.569  0.00  0.00    +0.000 A 
ATOM     16  C   UNL     1      49.381   8.421  16.384  0.00  0.00    +0.000 A 
ATOM     17  C   UNL     1      50.129   8.000  17.485  0.00  0.00    +0.000 A 
ENDBRANCH  11  12
ENDBRANCH   9  11
ENDBRANCH   8   9
ENDBRANCH   1   8
BRANCH   4  18
ATOM     18  C   UNL     1      47.511   3.444  16.323  0.00  0.00    +0.000 C 
BRANCH  18  19
ATOM     19  N   UNL     1      46.799   4.383  15.498  0.00  0.00    +0.000 N 
ATOM     20  C   UNL     1      46.876   4.305  14.131  0.00  0.00    +0.000 C 
ATOM     21  O   UNL     1      47.505   3.413  13.567  0.00  0.00    +0.000 OA
ATOM     22  H   UNL     1      46.462   5.233  15.939  0.00  0.00    +0.000 HD
BRANCH  20  23
ATOM     23  C   UNL     1      46.120   5.304  13.369  0.00  0.00    +0.000 A 
ATOM     24  C   UNL     1      46.642   6.582  13.214  0.00  0.00    +0.000 A 
ATOM     25  S   UNL     1      45.664   7.612  12.271  0.00  0.00    +0.000 S 
ATOM     26  C   UNL     1      44.484   6.402  12.079  0.00  0.00    +0.000 A 
ATOM     27  N   UNL     1      43.342   6.647  11.382  0.00  0.00    +0.000 NA
ATOM     28  C   UNL     1      42.520   5.652  11.341  0.00  0.00    +0.000 A 
ATOM     29  N   UNL     1      42.739   4.429  11.923  0.00  0.00    +0.000 N 
ATOM     30  C   UNL     1      43.892   4.128  12.608  0.00  0.00    +0.000 A 
ATOM     31  O   UNL     1      44.079   3.009  13.076  0.00  0.00    +0.000 OA
ATOM     32  C   UNL     1      44.842   5.220  12.704  0.00  0.00    +0.000 A 
ATOM     33  H   UNL     1      42.060   3.691  11.845  0.00  0.00    +0.000 HD
ENDBRANCH  20  23
ENDBRANCH  18  19
ENDBRANCH   4  18
TORSDOF 7
ENDMDL
MODEL 7
REMARK VINA RESULT:    -6.889      3.384      8.400
REMARK INTER + INTRA:         -10.896
REMARK INTER:                  -9.130
REMARK INTRA:                  -1.766
REMARK UNBOUND:                -1.188
REMARK  Name = 
REMARK  8 active torsions:
REMARK  status: ('A' for Active; 'I' for Inactive)
REMARK    1  A    between atoms: C_1  and  C_2
REMARK    2  A    between atoms: C_2  and  N_3
REMARK    3  A    between atoms: C_2  and  C_11
REMARK    4  A    between atoms: N_3  and  C_4
REMARK    5  A    between atoms: C_4  and  C_5
REMARK    6  A    between atoms: C_14  and  C_15
REMARK    7  A    between atoms: C_15  and  N_16
REMARK    8  A    between atoms: C_17  and  C_19
REMARK                            x       y       z     vdW  Elec       q    Type
REMARK                         _______ _______ _______ _____ _____    ______ ____
ROOT
ATOM      1  C   UNL     1      49.419   7.818  18.102  0.00  0.00    +0.000 A 
ATOM      2  C   UNL     1      50.296   7.092  17.274  0.00  0.00    +0.000 A 
ATOM      3  C   UNL     1      50.182   7.139  15.884  0.00  0.00    +0.000 A 
ATOM      4  C   UNL     1      49.215   7.948  15.282  0.00  0.00    +0.000 A 
ATOM      5  C   UNL     1      48.314   8.644  16.097  0.00  0.00    +0.000 A 
ATOM      6  C   UNL     1      48.409   8.572  17.490  0.00  0.00    +0.000 A 
ENDROOT
BRANCH   1   8
ATOM      7  C   UNL     1      48.422   8.377  20.379  0.00  0.00    +0.000 C 
ATOM      8  C   UNL     1      49.588   7.730  19.615  0.00  0.00    +0.000 C 
BRANCH   8   9
ATOM      9  N   UNL     1      49.759   6.353  20.106  0.00  0.00    +0.000 NA
ATOM     10  H   UNL     1      50.132   6.371  21.053  0.00  0.00    +0.000 HD
BRANCH   9  11
ATOM     11  C   UNL     1      48.510   5.592  20.101  0.00  0.00    +0.000 C 
BRANCH  11  12
ATOM     12  C   UNL     1      48.375   4.706  18.888  0.00  0.00    +0.000 A 
ATOM     13  C   UNL     1      47.302   4.883  18.000  0.00  0.00    +0.000 A 
ATOM     14  C   UNL     1      47.208   4.116  16.839  0.00  0.00    +0.000 A 
ATOM     15  C   UNL     1      48.183   3.161  16.555  0.00  0.00    +0.000 A 
ATOM     16  C   UNL     1      49.248   2.970  17.434  0.00  0.00    +0.000 A 
ATOM     17  C   UNL     1      49.344   3.737  18.596  0.00  0.00    +0.000 A 
ENDBRANCH  11  12
ENDBRANCH   9  11
ENDBRANCH   8   9
ENDBRANCH   1   8
BRANCH   4  18
ATOM     18  C   UNL     1      49.137   8.062  13.784  0.00  0.00    +0.000 C 
BRANCH  18  19
ATOM     19  N   UNL     1      47.829   7.720  13.295  0.00  0.00    +0.000 N 
ATOM     20  C   UNL     1      47.528   6.424  12.962  0.00  0.00    +0.000 C 
ATOM     21  O   UNL     1      48.337   5.511  13.115  0.00  0.00    +0.000 OA
ATOM     22  H   UNL     1      47.238   8.477  12.966  0.00  0.00    +0.000 HD
BRANCH  20  23
ATOM     23  C   UNL     1      46.172   6.165  12.470  0.00  0.00    +0.000 A 
ATOM     24  C   UNL     1      45.417   7.216  11.966  0.00  0.00    +0.000 A 
ATOM     25  S   UNL     1      43.880   6.745  11.399  0.00  0.00    +0.000 S 
ATOM     26  C   UNL     1      44.149   5.128  11.852  0.00  0.00    +0.000 A 
ATOM     27  N   UNL     1      43.190   4.183  11.666  0.00  0.00    +0.000 NA
ATOM     28  C   UNL     1      43.515   3.005  12.083  0.00  0.00    +0.000 A 
ATOM     29  N   UNL     1      44.716   2.681  12.661  0.00  0.00    +0.000 N 
ATOM     30  C   UNL     1      45.725   3.598  12.839  0.00  0.00    +0.000 A 
ATOM     31  O   UNL     1      46.807   3.266  13.314  0.00  0.00    +0.000 OA
ATOM     32  C   UNL     1      45.404   4.944  12.406  0.00  0.00    +0.000 A 
ATOM     33  H   UNL     1      44.910   1.739  12.956  0.00  0.00    +0.000 HD
ENDBRANCH  20  23
ENDBRANCH  18  19
ENDBRANCH   4  18
TORSDOF 7
ENDMDL
MODEL 8
REMARK VINA RESULT:    -6.402      4.527      6.662
REMARK INTER + INTRA:         -10.210
REMARK INTER:                  -9.150
REMARK INTRA:                  -1.059
REMARK UNBOUND:                -1.188
REMARK  Name = 
REMARK  8 active torsions:
REMARK  status: ('A' for Active; 'I' for Inactive)
REMARK    1  A    between atoms: C_1  and  C_2
REMARK    2  A    between atoms: C_2  and  N_3
REMARK    3  A    between atoms: C_2  and  C_11
REMARK    4  A    between atoms: N_3  and  C_4
REMARK    5  A    between atoms: C_4  and  C_5
REMARK    6  A    between atoms: C_14  and  C_15
REMARK    7  A    between atoms: C_15  and  N_16
REMARK    8  A    between atoms: C_17  and  C_19
REMARK                            x       y       z     vdW  Elec       q    Type
REMARK                         _______ _______ _______ _____ _____    ______ ____
ROOT
ATOM      1  C   UNL     1      45.296   6.090  12.495  0.00  0.00    +0.000 A 
ATOM      2  C   UNL     1      46.550   5.525  12.794  0.00  0.00    +0.000 A 
ATOM      3  C   UNL     1      47.634   6.324  13.158  0.00  0.00    +0.000 A 
ATOM      4  C   UNL     1      47.483   7.708  13.277  0.00  0.00    +0.000 A 
ATOM      5  C   UNL     1      46.250   8.283  12.945  0.00  0.00    +0.000 A 
ATOM      6  C   UNL     1      45.172   7.485  12.550  0.00  0.00    +0.000 A 
ENDROOT
BRANCH   1   8
ATOM      7  C   UNL     1      43.054   5.897  11.298  0.00  0.00    +0.000 C 
ATOM      8  C   UNL     1      44.145   5.170  12.101  0.00  0.00    +0.000 C 
BRANCH   8   9
ATOM      9  N   UNL     1      44.575   3.987  11.338  0.00  0.00    +0.000 NA
ATOM     10  H   UNL     1      44.215   3.144  11.781  0.00  0.00    +0.000 HD
BRANCH   9  11
ATOM     11  C   UNL     1      44.128   4.020   9.946  0.00  0.00    +0.000 C 
BRANCH  11  12
ATOM     12  C   UNL     1      45.130   3.407   9.000  0.00  0.00    +0.000 A 
ATOM     13  C   UNL     1      45.354   2.021   9.007  0.00  0.00    +0.000 A 
ATOM     14  C   UNL     1      46.226   1.439   8.089  0.00  0.00    +0.000 A 
ATOM     15  C   UNL     1      46.887   2.234   7.154  0.00  0.00    +0.000 A 
ATOM     16  C   UNL     1      46.680   3.613   7.144  0.00  0.00    +0.000 A 
ATOM     17  C   UNL     1      45.807   4.198   8.062  0.00  0.00    +0.000 A 
ENDBRANCH  11  12
ENDBRANCH   9  11
ENDBRANCH   8   9
ENDBRANCH   1   8
BRANCH   4  18
ATOM     18  C   UNL     1      48.626   8.566  13.743  0.00  0.00    +0.000 C 
BRANCH  18  19
ATOM     19  N   UNL     1      49.298   9.197  12.639  0.00  0.00    +0.000 N 
ATOM     20  C   UNL     1      50.660   9.103  12.509  0.00  0.00    +0.000 C 
ATOM     21  O   UNL     1      51.342   8.443  13.290  0.00  0.00    +0.000 OA
ATOM     22  H   UNL     1      48.788   9.908  12.124  0.00  0.00    +0.000 HD
BRANCH  20  23
ATOM     23  C   UNL     1      51.262   9.779  11.356  0.00  0.00    +0.000 A 
ATOM     24  C   UNL     1      51.193  11.163  11.264  0.00  0.00    +0.000 A 
ATOM     25  S   UNL     1      51.972  11.798   9.887  0.00  0.00    +0.000 S 
ATOM     26  C   UNL     1      52.387  10.243   9.339  0.00  0.00    +0.000 A 
ATOM     27  N   UNL     1      53.057  10.071   8.168  0.00  0.00    +0.000 NA
ATOM     28  C   UNL     1      53.280   8.838   7.858  0.00  0.00    +0.000 A 
ATOM     29  N   UNL     1      52.904   7.758   8.616  0.00  0.00    +0.000 N 
ATOM     30  C   UNL     1      52.254   7.886   9.820  0.00  0.00    +0.000 A 
ATOM     31  O   UNL     1      51.974   6.902  10.498  0.00  0.00    +0.000 OA
ATOM     32  C   UNL     1      51.959   9.252  10.207  0.00  0.00    +0.000 A 
ATOM     33  H   UNL     1      53.117   6.820   8.320  0.00  0.00    +0.000 HD
ENDBRANCH  20  23
ENDBRANCH  18  19
ENDBRANCH   4  18
TORSDOF 7
ENDMDL
MODEL 9
REMARK VINA RESULT:    -6.192      3.402      8.841
REMARK INTER + INTRA:          -9.914
REMARK INTER:                  -8.943
REMARK INTRA:                  -0.970
REMARK UNBOUND:                -1.188
REMARK  Name = 
REMARK  8 active torsions:
REMARK  status: ('A' for Active; 'I' for Inactive)
REMARK    1  A    between atoms: C_1  and  C_2
REMARK    2  A    between atoms: C_2  and  N_3
REMARK    3  A    between atoms: C_2  and  C_11
REMARK    4  A    between atoms: N_3  and  C_4
REMARK    5  A    between atoms: C_4  and  C_5
REMARK    6  A    between atoms: C_14  and  C_15
REMARK    7  A    between atoms: C_15  and  N_16
REMARK    8  A    between atoms: C_17  and  C_19
REMARK                            x       y       z     vdW  Elec       q    Type
REMARK                         _______ _______ _______ _____ _____    ______ ____
ROOT
ATOM      1  C   UNL     1      49.166   5.960  18.357  0.00  0.00    +0.000 A 
ATOM      2  C   UNL     1      49.425   7.338  18.240  0.00  0.00    +0.000 A 
ATOM      3  C   UNL     1      49.240   8.009  17.031  0.00  0.00    +0.000 A 
ATOM      4  C   UNL     1      48.748   7.327  15.915  0.00  0.00    +0.000 A 
ATOM      5  C   UNL     1      48.524   5.948  16.011  0.00  0.00    +0.000 A 
ATOM      6  C   UNL     1      48.740   5.271  17.215  0.00  0.00    +0.000 A 
ENDROOT
BRANCH   1   8
ATOM      7  C   UNL     1      48.532   4.011  19.872  0.00  0.00    +0.000 C 
ATOM      8  C   UNL     1      49.387   5.278  19.704  0.00  0.00    +0.000 C 
BRANCH   8   9
ATOM      9  N   UNL     1      50.794   4.928  19.959  0.00  0.00    +0.000 NA
ATOM     10  H   UNL     1      50.841   4.032  20.441  0.00  0.00    +0.000 HD
BRANCH   9  11
ATOM     11  C   UNL     1      51.588   4.851  18.734  0.00  0.00    +0.000 C 
BRANCH  11  12
ATOM     12  C   UNL     1      52.038   3.445  18.421  0.00  0.00    +0.000 A 
ATOM     13  C   UNL     1      51.171   2.556  17.766  0.00  0.00    +0.000 A 
ATOM     14  C   UNL     1      51.603   1.279  17.410  0.00  0.00    +0.000 A 
ATOM     15  C   UNL     1      52.904   0.875  17.707  0.00  0.00    +0.000 A 
ATOM     16  C   UNL     1      53.770   1.746  18.365  0.00  0.00    +0.000 A 
ATOM     17  C   UNL     1      53.340   3.026  18.722  0.00  0.00    +0.000 A 
ENDBRANCH  11  12
ENDBRANCH   9  11
ENDBRANCH   8   9
ENDBRANCH   1   8
BRANCH   4  18
ATOM     18  C   UNL     1      48.474   8.059  14.630  0.00  0.00    +0.000 C 
BRANCH  18  19
ATOM     19  N   UNL     1      47.238   7.632  14.031  0.00  0.00    +0.000 N 
ATOM     20  C   UNL     1      47.243   6.761  12.972  0.00  0.00    +0.000 C 
ATOM     21  O   UNL     1      48.285   6.279  12.534  0.00  0.00    +0.000 OA
ATOM     22  H   UNL     1      46.406   8.177  14.236  0.00  0.00    +0.000 HD
BRANCH  20  23
ATOM     23  C   UNL     1      45.938   6.382  12.422  0.00  0.00    +0.000 A 
ATOM     24  C   UNL     1      45.111   7.362  11.889  0.00  0.00    +0.000 A 
ATOM     25  S   UNL     1      43.649   6.756  11.257  0.00  0.00    +0.000 S 
ATOM     26  C   UNL     1      44.047   5.168  11.717  0.00  0.00    +0.000 A 
ATOM     27  N   UNL     1      43.187   4.139  11.488  0.00  0.00    +0.000 NA
ATOM     28  C   UNL     1      43.602   2.993  11.915  0.00  0.00    +0.000 A 
ATOM     29  N   UNL     1      44.803   2.778  12.542  0.00  0.00    +0.000 N 
ATOM     30  C   UNL     1      45.715   3.782  12.764  0.00  0.00    +0.000 A 
ATOM     31  O   UNL     1      46.802   3.548  13.284  0.00  0.00    +0.000 OA
ATOM     32  C   UNL     1      45.290   5.096  12.323  0.00  0.00    +0.000 A 
ATOM     33  H   UNL     1      45.070   1.856  12.842  0.00  0.00    +0.000 HD
ENDBRANCH  20  23
ENDBRANCH  18  19
ENDBRANCH   4  18
TORSDOF 7
ENDMDL
