MODEL 1
REMARK VINA RESULT:    -8.449      0.000      0.000
REMARK INTER + INTRA:         -12.327
REMARK INTER:                 -11.413
REMARK INTRA:                  -0.914
REMARK UNBOUND:                -0.914
REMARK  Name = 
REMARK  8 active torsions:
REMARK  status: ('A' for Active; 'I' for Inactive)
REMARK    1  A    between atoms: C_1  and  C_2
REMARK    2  A    between atoms: C_8  and  C_9
REMARK    3  A    between atoms: C_11  and  C_12
REMARK    4  A    between atoms: N_14  and  C_15
REMARK    5  A    between atoms: C_15  and  C_16
REMARK    6  A    between atoms: C_19  and  N_20
REMARK    7  A    between atoms: N_20  and  C_21
REMARK    8  A    between atoms: C_21  and  C_22
REMARK                            x       y       z     vdW  Elec       q    Type
REMARK                         _______ _______ _______ _____ _____    ______ ____
ROOT
ATOM      1  C   UNL     1      47.816   6.291  14.166  0.00  0.00    +0.000 C 
ENDROOT
BRANCH   1   2
ATOM      2  C   UNL     1      46.904   5.585  13.191  0.00  0.00    +0.000 A 
ATOM      3  C   UNL     1      46.415   4.298  13.448  0.00  0.00    +0.000 A 
ATOM      4  C   UNL     1      45.515   3.674  12.562  0.00  0.00    +0.000 A 
ATOM      5  C   UNL     1      45.102   4.305  11.387  0.00  0.00    +0.000 A 
ATOM      6  C   UNL     1      45.613   5.581  11.124  0.00  0.00    +0.000 A 
ATOM      7  C   UNL     1      46.500   6.215  12.008  0.00  0.00    +0.000 A 
BRANCH   5   8
ATOM      8  N   UNL     1      44.166   3.784  10.483  0.00  0.00    +0.000 N 
ATOM      9  H   UNL     1      43.926   4.494   9.795  0.00  0.00    +0.000 HD
BRANCH   8  10
ATOM     10  C   UNL     1      44.382   2.476   9.861  0.00  0.00    +0.000 C 
BRANCH  10  11
ATOM     11  C   UNL     1      45.624   2.498   8.922  0.00  0.00    +0.000 C 
ATOM     12  C   UNL     1      45.374   3.509   7.791  0.00  0.00    +0.000 C 
ATOM     13  C   UNL     1      46.533   3.557   6.802  0.00  0.00    +0.000 C 
ATOM     14  C   UNL     1      46.870   2.157   6.304  0.00  0.00    +0.000 C 
ATOM     15  C   UNL     1      47.087   1.199   7.471  0.00  0.00    +0.000 C 
ATOM     16  N   UNL     1      45.925   1.159   8.364  0.00  0.00    +0.000 NA
ATOM     17  H   UNL     1      46.146   0.529   9.135  0.00  0.00    +0.000 HD
ENDBRANCH  10  11
ENDBRANCH   8  10
ENDBRANCH   5   8
ENDBRANCH   1   2
BRANCH   1  20
ATOM     18  C   UNL     1      48.837   5.696  16.327  0.00  0.00    +0.000 C 
ATOM     19  O   UNL     1      49.915   6.150  15.961  0.00  0.00    +0.000 OA
ATOM     20  N   UNL     1      47.724   5.747  15.512  0.00  0.00    +0.000 N 
ATOM     21  H   UNL     1      46.957   5.126  15.713  0.00  0.00    +0.000 HD
BRANCH  18  32
ATOM     22  C   UNL     1      48.629   2.538  16.678  0.00  0.00    +0.000 C 
ATOM     23  C   UNL     1      48.619   3.605  17.717  0.00  0.00    +0.000 A 
ATOM     24  N   UNL     1      48.529   3.257  19.038  0.00  0.00    +0.000 N 
ATOM     25  C   UNL     1      48.536   4.368  19.816  0.00  0.00    +0.000 A 
ATOM     26  N   UNL     1      48.476   4.304  21.152  0.00  0.00    +0.000 NA
ATOM     27  C   UNL     1      48.517   5.511  21.711  0.00  0.00    +0.000 A 
ATOM     28  N   UNL     1      48.605   6.689  21.074  0.00  0.00    +0.000 NA
ATOM     29  C   UNL     1      48.671   6.720  19.708  0.00  0.00    +0.000 A 
ATOM     30  C   UNL     1      48.800   8.094  19.133  0.00  0.00    +0.000 C 
ATOM     31  C   UNL     1      48.627   5.495  19.001  0.00  0.00    +0.000 A 
ATOM     32  C   UNL     1      48.682   5.004  17.629  0.00  0.00    +0.000 A 
ATOM     33  H   UNL     1      48.485   2.322  19.409  0.00  0.00    +0.000 HD
ENDBRANCH  18  32
ENDBRANCH   1  20
TORSDOF 6
ENDMDL
MODEL 2
REMARK VINA RESULT:    -7.408      1.274      2.595
REMARK INTER + INTRA:         -10.920
REMARK INTER:                 -10.120
REMARK INTRA:                  -0.800
REMARK UNBOUND:                -0.914
REMARK  Name = 
REMARK  8 active torsions:
REMARK  status: ('A' for Active; 'I' for Inactive)
REMARK    1  A    between atoms: C_1  and  C_2
REMARK    2  A    between atoms: C_8  and  C_9
REMARK    3  A    between atoms: C_11  and  C_12
REMARK    4  A    between atoms: N_14  and  C_15
REMARK    5  A    between atoms: C_15  and  C_16
REMARK    6  A    between atoms: C_19  and  N_20
REMARK    7  A    between atoms: N_20  and  C_21
REMARK    8  A    between atoms: C_21  and  C_22
REMARK                            x       y       z     vdW  Elec       q    Type
REMARK                         _______ _______ _______ _____ _____    ______ ____
ROOT
ATOM      1  C   UNL     1      48.480   7.019  13.866  0.00  0.00    +0.000 C 
ENDROOT
BRANCH   1   2
ATOM      2  C   UNL     1      47.448   6.178  13.153  0.00  0.00    +0.000 A 
ATOM      3  C   UNL     1      46.997   4.965  13.689  0.00  0.00    +0.000 A 
ATOM      4  C   UNL     1      45.989   4.220  13.048  0.00  0.00    +0.000 A 
ATOM      5  C   UNL     1      45.423   4.651  11.846  0.00  0.00    +0.000 A 
ATOM      6  C   UNL     1      45.895   5.852  11.304  0.00  0.00    +0.000 A 
ATOM      7  C   UNL     1      46.891   6.607  11.943  0.00  0.00    +0.000 A 
BRANCH   5   8
ATOM      8  N   UNL     1      44.377   4.005  11.174  0.00  0.00    +0.000 N 
ATOM      9  H   UNL     1      43.590   3.884  11.807  0.00  0.00    +0.000 HD
BRANCH   8  10
ATOM     10  C   UNL     1      43.946   4.466   9.853  0.00  0.00    +0.000 C 
BRANCH  10  11
ATOM     11  C   UNL     1      44.575   3.601   8.722  0.00  0.00    +0.000 C 
ATOM     12  C   UNL     1      45.139   2.310   9.340  0.00  0.00    +0.000 C 
ATOM     13  C   UNL     1      45.812   1.425   8.297  0.00  0.00    +0.000 C 
ATOM     14  C   UNL     1      46.840   2.220   7.503  0.00  0.00    +0.000 C 
ATOM     15  C   UNL     1      46.225   3.495   6.934  0.00  0.00    +0.000 C 
ATOM     16  N   UNL     1      45.634   4.329   7.985  0.00  0.00    +0.000 NA
ATOM     17  H   UNL     1      45.215   5.143   7.537  0.00  0.00    +0.000 HD
ENDBRANCH  10  11
ENDBRANCH   8  10
ENDBRANCH   5   8
ENDBRANCH   1   2
BRANCH   1  20
ATOM     18  C   UNL     1      49.163   7.156  16.229  0.00  0.00    +0.000 C 
ATOM     19  O   UNL     1      50.336   6.990  15.916  0.00  0.00    +0.000 OA
ATOM     20  N   UNL     1      48.169   7.214  15.273  0.00  0.00    +0.000 N 
ATOM     21  H   UNL     1      47.217   7.061  15.566  0.00  0.00    +0.000 HD
BRANCH  18  32
ATOM     22  C   UNL     1      47.980   9.765  17.617  0.00  0.00    +0.000 C 
ATOM     23  C   UNL     1      48.201   8.409  18.192  0.00  0.00    +0.000 A 
ATOM     24  N   UNL     1      47.850   8.164  19.492  0.00  0.00    +0.000 N 
ATOM     25  C   UNL     1      48.129   6.878  19.817  0.00  0.00    +0.000 A 
ATOM     26  N   UNL     1      47.866   6.375  21.030  0.00  0.00    +0.000 NA
ATOM     27  C   UNL     1      48.202   5.090  21.120  0.00  0.00    +0.000 A 
ATOM     28  N   UNL     1      48.744   4.331  20.155  0.00  0.00    +0.000 NA
ATOM     29  C   UNL     1      48.995   4.873  18.924  0.00  0.00    +0.000 A 
ATOM     30  C   UNL     1      49.567   3.909  17.936  0.00  0.00    +0.000 C 
ATOM     31  C   UNL     1      48.687   6.238  18.711  0.00  0.00    +0.000 A 
ATOM     32  C   UNL     1      48.735   7.232  17.645  0.00  0.00    +0.000 A 
ATOM     33  H   UNL     1      47.426   8.817  20.132  0.00  0.00    +0.000 HD
ENDBRANCH  18  32
ENDBRANCH   1  20
TORSDOF 6
ENDMDL
MODEL 3
REMARK VINA RESULT:    -7.293      3.174      8.624
REMARK INTER + INTRA:         -10.765
REMARK INTER:                  -9.496
REMARK INTRA:                  -1.269
REMARK UNBOUND:                -0.914
REMARK  Name = 
REMARK  8 active torsions:
REMARK  status: ('A' for Active; 'I' for Inactive)
REMARK    1  A    between atoms: C_1  and  C_2
REMARK    2  A    between atoms: C_8  and  C_9
REMARK    3  A    between atoms: C_11  and  C_12
REMARK    4  A    between atoms: N_14  and  C_15
REMARK    5  A    between atoms: C_15  and  C_16
REMARK    6  A    between atoms: C_19  and  N_20
REMARK    7  A    between atoms: N_20  and  C_21
REMARK    8  A    between atoms: C_21  and  C_22
REMARK                            x       y       z     vdW  Elec       q    Type
REMARK                         _______ _______ _______ _____ _____    ______ ____
ROOT
ATOM      1  C   UNL     1      47.752   9.182  14.395  0.00  0.00    +0.000 C 
ENDROOT
BRANCH   1   2
ATOM      2  C   UNL     1      48.535   8.448  15.458  0.00  0.00    +0.000 A 
ATOM      3  C   UNL     1      48.458   8.817  16.806  0.00  0.00    +0.000 A 
ATOM      4  C   UNL     1      49.143   8.086  17.797  0.00  0.00    +0.000 A 
ATOM      5  C   UNL     1      49.942   6.990  17.466  0.00  0.00    +0.000 A 
ATOM      6  C   UNL     1      50.033   6.642  16.113  0.00  0.00    +0.000 A 
ATOM      7  C   UNL     1      49.343   7.356  15.121  0.00  0.00    +0.000 A 
BRANCH   5   8
ATOM      8  N   UNL     1      50.607   6.173  18.390  0.00  0.00    +0.000 N 
ATOM      9  H   UNL     1      51.374   6.691  18.812  0.00  0.00    +0.000 HD
BRANCH   8  10
ATOM     10  C   UNL     1      49.853   5.411  19.387  0.00  0.00    +0.000 C 
BRANCH  10  11
ATOM     11  C   UNL     1      49.261   4.110  18.770  0.00  0.00    +0.000 C 
ATOM     12  C   UNL     1      50.295   3.501  17.808  0.00  0.00    +0.000 C 
ATOM     13  C   UNL     1      49.771   2.241  17.130  0.00  0.00    +0.000 C 
ATOM     14  C   UNL     1      48.417   2.505  16.483  0.00  0.00    +0.000 C 
ATOM     15  C   UNL     1      47.445   3.124  17.481  0.00  0.00    +0.000 C 
ATOM     16  N   UNL     1      47.980   4.356  18.068  0.00  0.00    +0.000 NA
ATOM     17  H   UNL     1      47.300   4.700  18.745  0.00  0.00    +0.000 HD
ENDBRANCH  10  11
ENDBRANCH   8  10
ENDBRANCH   5   8
ENDBRANCH   1   2
BRANCH   1  20
ATOM     18  C   UNL     1      46.635   7.799  12.690  0.00  0.00    +0.000 C 
ATOM     19  O   UNL     1      47.639   7.823  11.989  0.00  0.00    +0.000 OA
ATOM     20  N   UNL     1      46.606   8.424  13.921  0.00  0.00    +0.000 N 
ATOM     21  H   UNL     1      45.708   8.632  14.328  0.00  0.00    +0.000 HD
BRANCH  18  32
ATOM     22  C   UNL     1      44.339   9.304  11.076  0.00  0.00    +0.000 C 
ATOM     23  C   UNL     1      44.413   7.879  11.503  0.00  0.00    +0.000 A 
ATOM     24  N   UNL     1      43.394   7.025  11.175  0.00  0.00    +0.000 N 
ATOM     25  C   UNL     1      43.653   5.783  11.653  0.00  0.00    +0.000 A 
ATOM     26  N   UNL     1      42.820   4.754  11.455  0.00  0.00    +0.000 NA
ATOM     27  C   UNL     1      43.283   3.628  11.993  0.00  0.00    +0.000 A 
ATOM     28  N   UNL     1      44.433   3.472  12.667  0.00  0.00    +0.000 NA
ATOM     29  C   UNL     1      45.266   4.543  12.847  0.00  0.00    +0.000 A 
ATOM     30  C   UNL     1      46.525   4.220  13.585  0.00  0.00    +0.000 C 
ATOM     31  C   UNL     1      44.874   5.799  12.326  0.00  0.00    +0.000 A 
ATOM     32  C   UNL     1      45.377   7.165  12.231  0.00  0.00    +0.000 A 
ATOM     33  H   UNL     1      42.571   7.252  10.640  0.00  0.00    +0.000 HD
ENDBRANCH  18  32
ENDBRANCH   1  20
TORSDOF 6
ENDMDL
MODEL 4
REMARK VINA RESULT:    -7.106      1.659      2.793
REMARK INTER + INTRA:         -10.513
REMARK INTER:                  -9.958
REMARK INTRA:                  -0.555
REMARK UNBOUND:                -0.914
REMARK  Name = 
REMARK  8 active torsions:
REMARK  status: ('A' for Active; 'I' for Inactive)
REMARK    1  A    between atoms: C_1  and  C_2
REMARK    2  A    between atoms: C_8  and  C_9
REMARK    3  A    between atoms: C_11  and  C_12
REMARK    4  A    between atoms: N_14  and  C_15
REMARK    5  A    between atoms: C_15  and  C_16
REMARK    6  A    between atoms: C_19  and  N_20
REMARK    7  A    between atoms: N_20  and  C_21
REMARK    8  A    between atoms: C_21  and  C_22
REMARK                            x       y       z     vdW  Elec       q    Type
REMARK                         _______ _______ _______ _____ _____    ______ ____
ROOT
ATOM      1  C   UNL     1      47.309   8.269  13.465  0.00  0.00    +0.000 C 
ENDROOT
BRANCH   1   2
ATOM      2  C   UNL     1      46.301   7.308  12.882  0.00  0.00    +0.000 A 
ATOM      3  C   UNL     1      46.242   5.971  13.296  0.00  0.00    +0.000 A 
ATOM      4  C   UNL     1      45.257   5.100  12.792  0.00  0.00    +0.000 A 
ATOM      5  C   UNL     1      44.326   5.530  11.844  0.00  0.00    +0.000 A 
ATOM      6  C   UNL     1      44.406   6.861  11.417  0.00  0.00    +0.000 A 
ATOM      7  C   UNL     1      45.376   7.739  11.924  0.00  0.00    +0.000 A 
BRANCH   5   8
ATOM      8  N   UNL     1      43.278   4.750  11.336  0.00  0.00    +0.000 N 
ATOM      9  H   UNL     1      42.808   5.256  10.589  0.00  0.00    +0.000 HD
BRANCH   8  10
ATOM     10  C   UNL     1      43.501   3.346  10.984  0.00  0.00    +0.000 C 
BRANCH  10  11
ATOM     11  C   UNL     1      44.724   3.191  10.033  0.00  0.00    +0.000 C 
ATOM     12  C   UNL     1      44.642   4.269   8.939  0.00  0.00    +0.000 C 
ATOM     13  C   UNL     1      45.787   4.156   7.940  0.00  0.00    +0.000 C 
ATOM     14  C   UNL     1      45.882   2.738   7.392  0.00  0.00    +0.000 C 
ATOM     15  C   UNL     1      45.940   1.717   8.524  0.00  0.00    +0.000 C 
ATOM     16  N   UNL     1      44.792   1.841   9.427  0.00  0.00    +0.000 NA
ATOM     17  H   UNL     1      44.907   1.157  10.174  0.00  0.00    +0.000 HD
ENDBRANCH  10  11
ENDBRANCH   8  10
ENDBRANCH   5   8
ENDBRANCH   1   2
BRANCH   1  20
ATOM     18  C   UNL     1      48.926   7.207  14.991  0.00  0.00    +0.000 C 
ATOM     19  O   UNL     1      49.671   6.954  14.051  0.00  0.00    +0.000 OA
ATOM     20  N   UNL     1      47.739   7.887  14.801  0.00  0.00    +0.000 N 
ATOM     21  H   UNL     1      47.034   7.824  15.518  0.00  0.00    +0.000 HD
BRANCH  18  32
ATOM     22  C   UNL     1      50.582   8.868  17.145  0.00  0.00    +0.000 C 
ATOM     23  C   UNL     1      49.935   7.532  17.277  0.00  0.00    +0.000 A 
ATOM     24  N   UNL     1      50.002   6.868  18.472  0.00  0.00    +0.000 N 
ATOM     25  C   UNL     1      49.354   5.680  18.383  0.00  0.00    +0.000 A 
ATOM     26  N   UNL     1      49.256   4.841  19.423  0.00  0.00    +0.000 NA
ATOM     27  C   UNL     1      48.562   3.748  19.116  0.00  0.00    +0.000 A 
ATOM     28  N   UNL     1      48.004   3.455  17.931  0.00  0.00    +0.000 NA
ATOM     29  C   UNL     1      48.117   4.336  16.890  0.00  0.00    +0.000 A 
ATOM     30  C   UNL     1      47.421   3.901  15.642  0.00  0.00    +0.000 C 
ATOM     31  C   UNL     1      48.843   5.534  17.095  0.00  0.00    +0.000 A 
ATOM     32  C   UNL     1      49.218   6.741  16.367  0.00  0.00    +0.000 A 
ATOM     33  H   UNL     1      50.441   7.197  19.317  0.00  0.00    +0.000 HD
ENDBRANCH  18  32
ENDBRANCH   1  20
TORSDOF 6
ENDMDL
MODEL 5
REMARK VINA RESULT:    -6.883      3.720      5.467
REMARK INTER + INTRA:         -10.211
REMARK INTER:                  -9.460
REMARK INTRA:                  -0.751
REMARK UNBOUND:                -0.914
REMARK  Name = 
REMARK  8 active torsions:
REMARK  status: ('A' for Active; 'I' for Inactive)
REMARK    1  A    between atoms: C_1  and  C_2
REMARK    2  A    between atoms: C_8  and  C_9
REMARK    3  A    between atoms: C_11  and  C_12
REMARK    4  A    between atoms: N_14  and  C_15
REMARK    5  A    between atoms: C_15  and  C_16
REMARK    6  A    between atoms: C_19  and  N_20
REMARK    7  A    between atoms: N_20  and  C_21
REMARK    8  A    between atoms: C_21  and  C_22
REMARK                            x       y       z     vdW  Elec       q    Type
REMARK                         _______ _______ _______ _____ _____    ______ ____
ROOT
ATOM      1  C   UNL     1      48.007   6.190  13.617  0.00  0.00    +0.000 C 
ENDROOT
BRANCH   1   2
ATOM      2  C   UNL     1      46.823   6.742  12.859  0.00  0.00    +0.000 A 
ATOM      3  C   UNL     1      46.107   5.954  11.949  0.00  0.00    +0.000 A 
ATOM      4  C   UNL     1      44.966   6.459  11.295  0.00  0.00    +0.000 A 
ATOM      5  C   UNL     1      44.527   7.767  11.511  0.00  0.00    +0.000 A 
ATOM      6  C   UNL     1      45.261   8.556  12.404  0.00  0.00    +0.000 A 
ATOM      7  C   UNL     1      46.391   8.057  13.070  0.00  0.00    +0.000 A 
BRANCH   5   8
ATOM      8  N   UNL     1      43.372   8.328  10.950  0.00  0.00    +0.000 N 
ATOM      9  H   UNL     1      42.590   8.207  11.589  0.00  0.00    +0.000 HD
BRANCH   8  10
ATOM     10  C   UNL     1      43.402   9.676  10.380  0.00  0.00    +0.000 C 
BRANCH  10  11
ATOM     11  C   UNL     1      42.057  10.421  10.623  0.00  0.00    +0.000 C 
ATOM     12  C   UNL     1      42.309  11.606  11.570  0.00  0.00    +0.000 C 
ATOM     13  C   UNL     1      41.026  12.364  11.891  0.00  0.00    +0.000 C 
ATOM     14  C   UNL     1      39.949  11.407  12.386  0.00  0.00    +0.000 C 
ATOM     15  C   UNL     1      39.760  10.246  11.415  0.00  0.00    +0.000 C 
ATOM     16  N   UNL     1      41.015   9.526  11.178  0.00  0.00    +0.000 NA
ATOM     17  H   UNL     1      40.828   8.787  10.501  0.00  0.00    +0.000 HD
ENDBRANCH  10  11
ENDBRANCH   8  10
ENDBRANCH   5   8
ENDBRANCH   1   2
BRANCH   1  20
ATOM     18  C   UNL     1      48.708   6.062  15.975  0.00  0.00    +0.000 C 
ATOM     19  O   UNL     1      49.846   6.399  15.672  0.00  0.00    +0.000 OA
ATOM     20  N   UNL     1      47.714   5.960  15.022  0.00  0.00    +0.000 N 
ATOM     21  H   UNL     1      46.895   5.416  15.245  0.00  0.00    +0.000 HD
BRANCH  18  32
ATOM     22  C   UNL     1      48.577   3.065  17.041  0.00  0.00    +0.000 C 
ATOM     23  C   UNL     1      48.332   4.339  17.774  0.00  0.00    +0.000 A 
ATOM     24  N   UNL     1      48.020   4.298  19.107  0.00  0.00    +0.000 N 
ATOM     25  C   UNL     1      47.837   5.555  19.582  0.00  0.00    +0.000 A 
ATOM     26  N   UNL     1      47.538   5.796  20.865  0.00  0.00    +0.000 NA
ATOM     27  C   UNL     1      47.425   7.099  21.113  0.00  0.00    +0.000 A 
ATOM     28  N   UNL     1      47.576   8.101  20.233  0.00  0.00    +0.000 NA
ATOM     29  C   UNL     1      47.887   7.822  18.931  0.00  0.00    +0.000 A 
ATOM     30  C   UNL     1      48.059   9.031  18.070  0.00  0.00    +0.000 C 
ATOM     31  C   UNL     1      48.025   6.467  18.545  0.00  0.00    +0.000 A 
ATOM     32  C   UNL     1      48.350   5.679  17.361  0.00  0.00    +0.000 A 
ATOM     33  H   UNL     1      47.949   3.473  19.680  0.00  0.00    +0.000 HD
ENDBRANCH  18  32
ENDBRANCH   1  20
TORSDOF 6
ENDMDL
MODEL 6
REMARK VINA RESULT:    -6.499      2.031      2.538
REMARK INTER + INTRA:          -9.693
REMARK INTER:                  -8.841
REMARK INTRA:                  -0.852
REMARK UNBOUND:                -0.914
REMARK  Name = 
REMARK  8 active torsions:
REMARK  status: ('A' for Active; 'I' for Inactive)
REMARK    1  A    between atoms: C_1  and  C_2
REMARK    2  A    between atoms: C_8  and  C_9
REMARK    3  A    between atoms: C_11  and  C_12
REMARK    4  A    between atoms: N_14  and  C_15
REMARK    5  A    between atoms: C_15  and  C_16
REMARK    6  A    between atoms: C_19  and  N_20
REMARK    7  A    between atoms: N_20  and  C_21
REMARK    8  A    between atoms: C_21  and  C_22
REMARK                            x       y       z     vdW  Elec       q    Type
REMARK                         _______ _______ _______ _____ _____    ______ ____
ROOT
ATOM      1  C   UNL     1      48.130   6.427  13.773  0.00  0.00    +0.000 C 
ENDROOT
BRANCH   1   2
ATOM      2  C   UNL     1      47.046   5.663  13.050  0.00  0.00    +0.000 A 
ATOM      3  C   UNL     1      46.285   6.258  12.036  0.00  0.00    +0.000 A 
ATOM      4  C   UNL     1      45.321   5.518  11.325  0.00  0.00    +0.000 A 
ATOM      5  C   UNL     1      45.071   4.177  11.625  0.00  0.00    +0.000 A 
ATOM      6  C   UNL     1      45.818   3.595  12.656  0.00  0.00    +0.000 A 
ATOM      7  C   UNL     1      46.791   4.322  13.360  0.00  0.00    +0.000 A 
BRANCH   5   8
ATOM      8  N   UNL     1      44.175   3.352  10.931  0.00  0.00    +0.000 N 
ATOM      9  H   UNL     1      43.244   3.450  11.329  0.00  0.00    +0.000 HD
BRANCH   8  10
ATOM     10  C   UNL     1      44.144   3.356   9.467  0.00  0.00    +0.000 C 
BRANCH  10  11
ATOM     11  C   UNL     1      45.490   2.847   8.874  0.00  0.00    +0.000 C 
ATOM     12  C   UNL     1      45.862   3.721   7.665  0.00  0.00    +0.000 C 
ATOM     13  C   UNL     1      47.153   3.258   7.001  0.00  0.00    +0.000 C 
ATOM     14  C   UNL     1      47.086   1.770   6.680  0.00  0.00    +0.000 C 
ATOM     15  C   UNL     1      46.695   0.961   7.912  0.00  0.00    +0.000 C 
ATOM     16  N   UNL     1      45.424   1.420   8.482  0.00  0.00    +0.000 NA
ATOM     17  H   UNL     1      45.238   0.864   9.316  0.00  0.00    +0.000 HD
ENDBRANCH  10  11
ENDBRANCH   8  10
ENDBRANCH   5   8
ENDBRANCH   1   2
BRANCH   1  20
ATOM     18  C   UNL     1      48.984   6.407  16.083  0.00  0.00    +0.000 C 
ATOM     19  O   UNL     1      48.838   7.621  16.165  0.00  0.00    +0.000 OA
ATOM     20  N   UNL     1      48.631   5.719  14.939  0.00  0.00    +0.000 N 
ATOM     21  H   UNL     1      49.022   4.801  14.796  0.00  0.00    +0.000 HD
BRANCH  18  32
ATOM     22  C   UNL     1      47.384   4.559  18.123  0.00  0.00    +0.000 C 
ATOM     23  C   UNL     1      48.850   4.807  18.025  0.00  0.00    +0.000 A 
ATOM     24  N   UNL     1      49.699   4.168  18.888  0.00  0.00    +0.000 N 
ATOM     25  C   UNL     1      50.981   4.526  18.632  0.00  0.00    +0.000 A 
ATOM     26  N   UNL     1      52.013   4.029  19.327  0.00  0.00    +0.000 NA
ATOM     27  C   UNL     1      53.179   4.502  18.893  0.00  0.00    +0.000 A 
ATOM     28  N   UNL     1      53.370   5.375  17.891  0.00  0.00    +0.000 NA
ATOM     29  C   UNL     1      52.296   5.859  17.197  0.00  0.00    +0.000 A 
ATOM     30  C   UNL     1      52.655   6.794  16.088  0.00  0.00    +0.000 C 
ATOM     31  C   UNL     1      51.000   5.433  17.574  0.00  0.00    +0.000 A 
ATOM     32  C   UNL     1      49.610   5.620  17.172  0.00  0.00    +0.000 A 
ATOM     33  H   UNL     1      49.441   3.508  19.604  0.00  0.00    +0.000 HD
ENDBRANCH  18  32
ENDBRANCH   1  20
TORSDOF 6
ENDMDL
MODEL 7
REMARK VINA RESULT:    -6.472      3.675      9.025
REMARK INTER + INTRA:          -9.657
REMARK INTER:                  -8.672
REMARK INTRA:                  -0.985
REMARK UNBOUND:                -0.914
REMARK  Name = 
REMARK  8 active torsions:
REMARK  status: ('A' for Active; 'I' for Inactive)
REMARK    1  A    between atoms: C_1  and  C_2
REMARK    2  A    between atoms: C_8  and  C_9
REMARK    3  A    between atoms: C_11  and  C_12
REMARK    4  A    between atoms: N_14  and  C_15
REMARK    5  A    between atoms: C_15  and  C_16
REMARK    6  A    between atoms: C_19  and  N_20
REMARK    7  A    between atoms: N_20  and  C_21
REMARK    8  A    between atoms: C_21  and  C_22
REMARK                            x       y       z     vdW  Elec       q    Type
REMARK                         _______ _______ _______ _____ _____    ______ ____
ROOT
ATOM      1  C   UNL     1      48.011   8.844  14.343  0.00  0.00    +0.000 C 
ENDROOT
BRANCH   1   2
ATOM      2  C   UNL     1      49.013   7.990  15.084  0.00  0.00    +0.000 A 
ATOM      3  C   UNL     1      50.369   8.334  15.135  0.00  0.00    +0.000 A 
ATOM      4  C   UNL     1      51.284   7.566  15.881  0.00  0.00    +0.000 A 
ATOM      5  C   UNL     1      50.875   6.424  16.572  0.00  0.00    +0.000 A 
ATOM      6  C   UNL     1      49.522   6.073  16.498  0.00  0.00    +0.000 A 
ATOM      7  C   UNL     1      48.602   6.840  15.767  0.00  0.00    +0.000 A 
BRANCH   5   8
ATOM      8  N   UNL     1      51.703   5.638  17.386  0.00  0.00    +0.000 N 
ATOM      9  H   UNL     1      52.182   6.232  18.058  0.00  0.00    +0.000 HD
BRANCH   8  10
ATOM     10  C   UNL     1      51.190   4.417  18.009  0.00  0.00    +0.000 C 
BRANCH  10  11
ATOM     11  C   UNL     1      52.334   3.393  18.266  0.00  0.00    +0.000 C 
ATOM     12  C   UNL     1      53.602   3.872  17.539  0.00  0.00    +0.000 C 
ATOM     13  C   UNL     1      54.760   2.896  17.709  0.00  0.00    +0.000 C 
ATOM     14  C   UNL     1      54.333   1.486  17.323  0.00  0.00    +0.000 C 
ATOM     15  C   UNL     1      53.062   1.077  18.061  0.00  0.00    +0.000 C 
ATOM     16  N   UNL     1      51.969   2.026  17.826  0.00  0.00    +0.000 NA
ATOM     17  H   UNL     1      51.164   1.715  18.368  0.00  0.00    +0.000 HD
ENDBRANCH  10  11
ENDBRANCH   8  10
ENDBRANCH   5   8
ENDBRANCH   1   2
BRANCH   1  20
ATOM     18  C   UNL     1      46.803   7.525  12.649  0.00  0.00    +0.000 C 
ATOM     19  O   UNL     1      47.759   7.599  11.886  0.00  0.00    +0.000 OA
ATOM     20  N   UNL     1      46.846   8.090  13.908  0.00  0.00    +0.000 N 
ATOM     21  H   UNL     1      45.974   8.264  14.383  0.00  0.00    +0.000 HD
BRANCH  18  32
ATOM     22  C   UNL     1      44.452   9.028  11.116  0.00  0.00    +0.000 C 
ATOM     23  C   UNL     1      44.537   7.606  11.549  0.00  0.00    +0.000 A 
ATOM     24  N   UNL     1      43.504   6.753  11.265  0.00  0.00    +0.000 N 
ATOM     25  C   UNL     1      43.777   5.513  11.741  0.00  0.00    +0.000 A 
ATOM     26  N   UNL     1      42.933   4.486  11.581  0.00  0.00    +0.000 NA
ATOM     27  C   UNL     1      43.413   3.361  12.108  0.00  0.00    +0.000 A 
ATOM     28  N   UNL     1      44.588   3.206  12.738  0.00  0.00    +0.000 NA
ATOM     29  C   UNL     1      45.430   4.274  12.879  0.00  0.00    +0.000 A 
ATOM     30  C   UNL     1      46.716   3.952  13.570  0.00  0.00    +0.000 C 
ATOM     31  C   UNL     1      45.023   5.528  12.366  0.00  0.00    +0.000 A 
ATOM     32  C   UNL     1      45.526   6.892  12.243  0.00  0.00    +0.000 A 
ATOM     33  H   UNL     1      42.661   6.980  10.762  0.00  0.00    +0.000 HD
ENDBRANCH  18  32
ENDBRANCH   1  20
TORSDOF 6
ENDMDL
MODEL 8
REMARK VINA RESULT:    -6.327      3.300      9.479
REMARK INTER + INTRA:          -9.460
REMARK INTER:                  -8.442
REMARK INTRA:                  -1.018
REMARK UNBOUND:                -0.914
REMARK  Name = 
REMARK  8 active torsions:
REMARK  status: ('A' for Active; 'I' for Inactive)
REMARK    1  A    between atoms: C_1  and  C_2
REMARK    2  A    between atoms: C_8  and  C_9
REMARK    3  A    between atoms: C_11  and  C_12
REMARK    4  A    between atoms: N_14  and  C_15
REMARK    5  A    between atoms: C_15  and  C_16
REMARK    6  A    between atoms: C_19  and  N_20
REMARK    7  A    between atoms: N_20  and  C_21
REMARK    8  A    between atoms: C_21  and  C_22
REMARK                            x       y       z     vdW  Elec       q    Type
REMARK                         _______ _______ _______ _____ _____    ______ ____
ROOT
ATOM      1  C   UNL     1      48.020   8.913  14.055  0.00  0.00    +0.000 C 
ENDROOT
BRANCH   1   2
ATOM      2  C   UNL     1      49.002   8.063  14.826  0.00  0.00    +0.000 A 
ATOM      3  C   UNL     1      50.366   8.380  14.868  0.00  0.00    +0.000 A 
ATOM      4  C   UNL     1      51.263   7.619  15.641  0.00  0.00    +0.000 A 
ATOM      5  C   UNL     1      50.830   6.508  16.368  0.00  0.00    +0.000 A 
ATOM      6  C   UNL     1      49.470   6.183  16.303  0.00  0.00    +0.000 A 
ATOM      7  C   UNL     1      48.567   6.944  15.545  0.00  0.00    +0.000 A 
BRANCH   5   8
ATOM      8  N   UNL     1      51.640   5.732  17.209  0.00  0.00    +0.000 N 
ATOM      9  H   UNL     1      52.067   6.327  17.914  0.00  0.00    +0.000 HD
BRANCH   8  10
ATOM     10  C   UNL     1      51.135   4.485  17.784  0.00  0.00    +0.000 C 
BRANCH  10  11
ATOM     11  C   UNL     1      50.814   4.652  19.298  0.00  0.00    +0.000 C 
ATOM     12  C   UNL     1      49.300   4.481  19.507  0.00  0.00    +0.000 C 
ATOM     13  C   UNL     1      48.900   4.674  20.965  0.00  0.00    +0.000 C 
ATOM     14  C   UNL     1      49.443   5.993  21.499  0.00  0.00    +0.000 C 
ATOM     15  C   UNL     1      50.943   6.110  21.245  0.00  0.00    +0.000 C 
ATOM     16  N   UNL     1      51.266   5.962  19.823  0.00  0.00    +0.000 NA
ATOM     17  H   UNL     1      52.279   6.018  19.726  0.00  0.00    +0.000 HD
ENDBRANCH  10  11
ENDBRANCH   8  10
ENDBRANCH   5   8
ENDBRANCH   1   2
BRANCH   1  20
ATOM     18  C   UNL     1      46.763   7.488  12.487  0.00  0.00    +0.000 C 
ATOM     19  O   UNL     1      47.732   7.428  11.740  0.00  0.00    +0.000 OA
ATOM     20  N   UNL     1      46.821   8.181  13.680  0.00  0.00    +0.000 N 
ATOM     21  H   UNL     1      45.953   8.451  14.117  0.00  0.00    +0.000 HD
BRANCH  18  32
ATOM     22  C   UNL     1      44.371   9.064  11.098  0.00  0.00    +0.000 C 
ATOM     23  C   UNL     1      44.452   7.630  11.494  0.00  0.00    +0.000 A 
ATOM     24  N   UNL     1      43.392   6.801  11.238  0.00  0.00    +0.000 N 
ATOM     25  C   UNL     1      43.666   5.546  11.672  0.00  0.00    +0.000 A 
ATOM     26  N   UNL     1      42.799   4.536  11.527  0.00  0.00    +0.000 NA
ATOM     27  C   UNL     1      43.283   3.392  12.006  0.00  0.00    +0.000 A 
ATOM     28  N   UNL     1      44.482   3.203  12.578  0.00  0.00    +0.000 NA
ATOM     29  C   UNL     1      45.348   4.254  12.705  0.00  0.00    +0.000 A 
ATOM     30  C   UNL     1      46.658   3.896  13.329  0.00  0.00    +0.000 C 
ATOM     31  C   UNL     1      44.939   5.527  12.240  0.00  0.00    +0.000 A 
ATOM     32  C   UNL     1      45.459   6.885  12.126  0.00  0.00    +0.000 A 
ATOM     33  H   UNL     1      42.532   7.053  10.779  0.00  0.00    +0.000 HD
ENDBRANCH  18  32
ENDBRANCH   1  20
TORSDOF 6
ENDMDL
MODEL 9
REMARK VINA RESULT:    -6.159      3.450      9.939
REMARK INTER + INTRA:          -9.234
REMARK INTER:                  -8.289
REMARK INTRA:                  -0.944
REMARK UNBOUND:                -0.914
REMARK  Name = 
REMARK  8 active torsions:
REMARK  status: ('A' for Active; 'I' for Inactive)
REMARK    1  A    between atoms: C_1  and  C_2
REMARK    2  A    between atoms: C_8  and  C_9
REMARK    3  A    between atoms: C_11  and  C_12
REMARK    4  A    between atoms: N_14  and  C_15
REMARK    5  A    between atoms: C_15  and  C_16
REMARK    6  A    between atoms: C_19  and  N_20
REMARK    7  A    between atoms: N_20  and  C_21
REMARK    8  A    between atoms: C_21  and  C_22
REMARK                            x       y       z     vdW  Elec       q    Type
REMARK                         _______ _______ _______ _____ _____    ______ ____
ROOT
ATOM      1  C   UNL     1      49.021   7.701  15.297  0.00  0.00    +0.000 C 
ENDROOT
BRANCH   1   2
ATOM      2  C   UNL     1      49.675   6.605  16.106  0.00  0.00    +0.000 A 
ATOM      3  C   UNL     1      51.059   6.579  16.316  0.00  0.00    +0.000 A 
ATOM      4  C   UNL     1      51.650   5.589  17.124  0.00  0.00    +0.000 A 
ATOM      5  C   UNL     1      50.882   4.586  17.719  0.00  0.00    +0.000 A 
ATOM      6  C   UNL     1      49.502   4.605  17.485  0.00  0.00    +0.000 A 
ATOM      7  C   UNL     1      48.903   5.596  16.692  0.00  0.00    +0.000 A 
BRANCH   5   8
ATOM      8  N   UNL     1      51.378   3.601  18.584  0.00  0.00    +0.000 N 
ATOM      9  H   UNL     1      50.827   2.752  18.484  0.00  0.00    +0.000 HD
BRANCH   8  10
ATOM     10  C   UNL     1      52.812   3.314  18.638  0.00  0.00    +0.000 C 
BRANCH  10  11
ATOM     11  C   UNL     1      53.440   3.832  19.965  0.00  0.00    +0.000 C 
ATOM     12  C   UNL     1      52.323   4.407  20.852  0.00  0.00    +0.000 C 
ATOM     13  C   UNL     1      52.866   4.976  22.157  0.00  0.00    +0.000 C 
ATOM     14  C   UNL     1      53.995   5.961  21.884  0.00  0.00    +0.000 C 
ATOM     15  C   UNL     1      55.059   5.338  20.986  0.00  0.00    +0.000 C 
ATOM     16  N   UNL     1      54.490   4.850  19.726  0.00  0.00    +0.000 NA
ATOM     17  H   UNL     1      55.242   4.420  19.190  0.00  0.00    +0.000 HD
ENDBRANCH  10  11
ENDBRANCH   8  10
ENDBRANCH   5   8
ENDBRANCH   1   2
BRANCH   1  20
ATOM     18  C   UNL     1      47.561   7.079  13.414  0.00  0.00    +0.000 C 
ATOM     19  O   UNL     1      48.505   7.149  12.637  0.00  0.00    +0.000 OA
ATOM     20  N   UNL     1      47.727   7.309  14.765  0.00  0.00    +0.000 N 
ATOM     21  H   UNL     1      46.911   7.527  15.315  0.00  0.00    +0.000 HD
BRANCH  18  32
ATOM     22  C   UNL     1      45.570   9.312  12.324  0.00  0.00    +0.000 C 
ATOM     23  C   UNL     1      45.360   7.843  12.453  0.00  0.00    +0.000 A 
ATOM     24  N   UNL     1      44.172   7.295  12.048  0.00  0.00    +0.000 N 
ATOM     25  C   UNL     1      44.184   5.954  12.248  0.00  0.00    +0.000 A 
ATOM     26  N   UNL     1      43.146   5.175  11.920  0.00  0.00    +0.000 NA
ATOM     27  C   UNL     1      43.383   3.892  12.185  0.00  0.00    +0.000 A 
ATOM     28  N   UNL     1      44.501   3.374  12.718  0.00  0.00    +0.000 NA
ATOM     29  C   UNL     1      45.546   4.197  13.037  0.00  0.00    +0.000 A 
ATOM     30  C   UNL     1      46.738   3.485  13.590  0.00  0.00    +0.000 C 
ATOM     31  C   UNL     1      45.407   5.587  12.808  0.00  0.00    +0.000 A 
ATOM     32  C   UNL     1      46.180   6.816  12.944  0.00  0.00    +0.000 A 
ATOM     33  H   UNL     1      43.395   7.787  11.638  0.00  0.00    +0.000 HD
ENDBRANCH  18  32
ENDBRANCH   1  20
TORSDOF 6
ENDMDL
