MODEL 1
REMARK VINA RESULT:    -7.169      0.000      0.000
REMARK INTER + INTRA:          -9.329
REMARK INTER:                  -8.846
REMARK INTRA:                  -0.483
REMARK UNBOUND:                -0.483
REMARK  Name = 
REMARK  4 active torsions:
REMARK  status: ('A' for Active; 'I' for Inactive)
REMARK    1  A    between atoms: C_6  and  C_7
REMARK    2  A    between atoms: C_11  and  C_12
REMARK    3  A    between atoms: C_13  and  C_14
REMARK    4  A    between atoms: C_16  and  C_17
REMARK                            x       y       z     vdW  Elec       q    Type
REMARK                         _______ _______ _______ _____ _____    ______ ____
ROOT
ATOM      1  C   UNL     1      45.058   4.108  10.559  0.00  0.00    +0.000 A 
ATOM      2  C   UNL     1      43.867   4.832  10.673  0.00  0.00    +0.000 A 
ATOM      3  N   UNL     1      43.408   5.414  11.811  0.00  0.00    +0.000 NA
ATOM      4  C   UNL     1      44.171   5.266  12.917  0.00  0.00    +0.000 A 
ATOM      5  C   UNL     1      45.367   4.570  12.934  0.00  0.00    +0.000 A 
ATOM      6  C   UNL     1      45.811   3.992  11.741  0.00  0.00    +0.000 A 
ENDROOT
BRANCH   1  12
ATOM      7  F   UNL     1      46.228   0.219   7.858  0.00  0.00    +0.000 F 
ATOM      8  C   UNL     1      46.089   1.548   7.947  0.00  0.00    +0.000 A 
ATOM      9  C   UNL     1      46.390   2.341   6.850  0.00  0.00    +0.000 A 
ATOM     10  C   UNL     1      46.246   3.719   6.952  0.00  0.00    +0.000 A 
ATOM     11  C   UNL     1      45.813   4.291   8.155  0.00  0.00    +0.000 A 
ATOM     12  C   UNL     1      45.503   3.503   9.283  0.00  0.00    +0.000 A 
ATOM     13  C   UNL     1      45.646   2.109   9.144  0.00  0.00    +0.000 A 
ENDBRANCH   1  12
BRANCH   5  14
ATOM     14  C   UNL     1      46.130   4.432  14.134  0.00  0.00    +0.000 C 
ATOM     15  C   UNL     1      46.777   4.290  15.138  0.00  0.00    +0.000 C 
BRANCH  15  16
ATOM     16  C   UNL     1      47.545   4.086  16.323  0.00  0.00    +0.000 A 
ATOM     17  C   UNL     1      47.348   4.863  17.453  0.00  0.00    +0.000 A 
ATOM     18  C   UNL     1      48.172   4.647  18.566  0.00  0.00    +0.000 A 
ATOM     19  C   UNL     1      49.147   3.645  18.487  0.00  0.00    +0.000 A 
ATOM     20  C   UNL     1      49.258   2.915  17.316  0.00  0.00    +0.000 A 
ATOM     21  N   UNL     1      48.479   3.117  16.232  0.00  0.00    +0.000 NA
BRANCH  18  22
ATOM     22  C   UNL     1      48.035   5.472  19.815  0.00  0.00    +0.000 C 
ATOM     23  F   UNL     1      48.303   4.780  20.956  0.00  0.00    +0.000 F 
ATOM     24  F   UNL     1      48.872   6.547  19.822  0.00  0.00    +0.000 F 
ATOM     25  F   UNL     1      46.779   5.974  19.967  0.00  0.00    +0.000 F 
ENDBRANCH  18  22
ENDBRANCH  15  16
ENDBRANCH   5  14
TORSDOF 4
ENDMDL
MODEL 2
REMARK VINA RESULT:    -6.821      3.969      4.478
REMARK INTER + INTRA:          -8.900
REMARK INTER:                  -8.414
REMARK INTRA:                  -0.486
REMARK UNBOUND:                -0.483
REMARK  Name = 
REMARK  4 active torsions:
REMARK  status: ('A' for Active; 'I' for Inactive)
REMARK    1  A    between atoms: C_6  and  C_7
REMARK    2  A    between atoms: C_11  and  C_12
REMARK    3  A    between atoms: C_13  and  C_14
REMARK    4  A    between atoms: C_16  and  C_17
REMARK                            x       y       z     vdW  Elec       q    Type
REMARK                         _______ _______ _______ _____ _____    ______ ____
ROOT
ATOM      1  C   UNL     1      45.140   4.292   9.416  0.00  0.00    +0.000 A 
ATOM      2  C   UNL     1      43.787   4.219   9.761  0.00  0.00    +0.000 A 
ATOM      3  N   UNL     1      43.160   5.024  10.658  0.00  0.00    +0.000 NA
ATOM      4  C   UNL     1      43.922   5.963  11.264  0.00  0.00    +0.000 A 
ATOM      5  C   UNL     1      45.272   6.133  11.011  0.00  0.00    +0.000 A 
ATOM      6  C   UNL     1      45.879   5.291  10.075  0.00  0.00    +0.000 A 
ENDROOT
BRANCH   1  12
ATOM      7  F   UNL     1      46.485  -0.164   7.962  0.00  0.00    +0.000 F 
ATOM      8  C   UNL     1      46.429   1.150   7.712  0.00  0.00    +0.000 A 
ATOM      9  C   UNL     1      46.977   1.646   6.539  0.00  0.00    +0.000 A 
ATOM     10  C   UNL     1      46.917   3.011   6.289  0.00  0.00    +0.000 A 
ATOM     11  C   UNL     1      46.320   3.869   7.223  0.00  0.00    +0.000 A 
ATOM     12  C   UNL     1      45.760   3.385   8.423  0.00  0.00    +0.000 A 
ATOM     13  C   UNL     1      45.824   1.996   8.640  0.00  0.00    +0.000 A 
ENDBRANCH   1  12
BRANCH   5  14
ATOM     14  C   UNL     1      46.035   7.133  11.690  0.00  0.00    +0.000 C 
ATOM     15  C   UNL     1      46.699   7.957  12.259  0.00  0.00    +0.000 C 
BRANCH  15  16
ATOM     16  C   UNL     1      47.513   8.913  12.939  0.00  0.00    +0.000 A 
ATOM     17  C   UNL     1      47.775   8.802  14.295  0.00  0.00    +0.000 A 
ATOM     18  C   UNL     1      48.537   9.803  14.913  0.00  0.00    +0.000 A 
ATOM     19  C   UNL     1      49.010  10.860  14.126  0.00  0.00    +0.000 A 
ATOM     20  C   UNL     1      48.703  10.874  12.776  0.00  0.00    +0.000 A 
ATOM     21  N   UNL     1      47.961   9.924  12.168  0.00  0.00    +0.000 NA
BRANCH  18  22
ATOM     22  C   UNL     1      48.835   9.764  16.386  0.00  0.00    +0.000 C 
ATOM     23  F   UNL     1      47.760   9.428  17.149  0.00  0.00    +0.000 F 
ATOM     24  F   UNL     1      49.811   8.867  16.696  0.00  0.00    +0.000 F 
ATOM     25  F   UNL     1      49.268  10.966  16.856  0.00  0.00    +0.000 F 
ENDBRANCH  18  22
ENDBRANCH  15  16
ENDBRANCH   5  14
TORSDOF 4
ENDMDL
MODEL 3
REMARK VINA RESULT:    -6.733      1.970     10.143
REMARK INTER + INTRA:          -8.791
REMARK INTER:                  -8.292
REMARK INTRA:                  -0.499
REMARK UNBOUND:                -0.483
REMARK  Name = 
REMARK  4 active torsions:
REMARK  status: ('A' for Active; 'I' for Inactive)
REMARK    1  A    between atoms: C_6  and  C_7
REMARK    2  A    between atoms: C_11  and  C_12
REMARK    3  A    between atoms: C_13  and  C_14
REMARK    4  A    between atoms: C_16  and  C_17
REMARK                            x       y       z     vdW  Elec       q    Type
REMARK                         _______ _______ _______ _____ _____    ______ ____
ROOT
ATOM      1  C   UNL     1      48.162   4.559  18.513  0.00  0.00    +0.000 A 
ATOM      2  C   UNL     1      49.038   3.472  18.421  0.00  0.00    +0.000 A 
ATOM      3  N   UNL     1      49.193   2.680  17.328  0.00  0.00    +0.000 NA
ATOM      4  C   UNL     1      48.427   2.973  16.254  0.00  0.00    +0.000 A 
ATOM      5  C   UNL     1      47.521   4.018  16.222  0.00  0.00    +0.000 A 
ATOM      6  C   UNL     1      47.395   4.817  17.363  0.00  0.00    +0.000 A 
ENDROOT
BRANCH   1  12
ATOM      7  F   UNL     1      47.027   8.746  20.740  0.00  0.00    +0.000 F 
ATOM      8  C   UNL     1      47.478   7.489  20.833  0.00  0.00    +0.000 A 
ATOM      9  C   UNL     1      47.854   6.989  22.070  0.00  0.00    +0.000 A 
ATOM     10  C   UNL     1      48.323   5.683  22.158  0.00  0.00    +0.000 A 
ATOM     11  C   UNL     1      48.422   4.896  21.003  0.00  0.00    +0.000 A 
ATOM     12  C   UNL     1      48.045   5.387  19.735  0.00  0.00    +0.000 A 
ATOM     13  C   UNL     1      47.561   6.707  19.682  0.00  0.00    +0.000 A 
ENDBRANCH   1  12
BRANCH   5  14
ATOM     14  C   UNL     1      46.724   4.277  15.065  0.00  0.00    +0.000 C 
ATOM     15  C   UNL     1      46.032   4.484  14.103  0.00  0.00    +0.000 C 
BRANCH  15  16
ATOM     16  C   UNL     1      45.185   4.711  12.977  0.00  0.00    +0.000 A 
ATOM     17  C   UNL     1      45.568   4.336  11.699  0.00  0.00    +0.000 A 
ATOM     18  C   UNL     1      44.714   4.635  10.630  0.00  0.00    +0.000 A 
ATOM     19  C   UNL     1      43.505   5.287  10.906  0.00  0.00    +0.000 A 
ATOM     20  C   UNL     1      43.209   5.610  12.219  0.00  0.00    +0.000 A 
ATOM     21  N   UNL     1      44.025   5.339  13.259  0.00  0.00    +0.000 NA
BRANCH  18  22
ATOM     22  C   UNL     1      45.078   4.286   9.214  0.00  0.00    +0.000 C 
ATOM     23  F   UNL     1      45.562   3.022   9.073  0.00  0.00    +0.000 F 
ATOM     24  F   UNL     1      44.017   4.379   8.366  0.00  0.00    +0.000 F 
ATOM     25  F   UNL     1      46.035   5.111   8.709  0.00  0.00    +0.000 F 
ENDBRANCH  18  22
ENDBRANCH  15  16
ENDBRANCH   5  14
TORSDOF 4
ENDMDL
MODEL 4
REMARK VINA RESULT:    -6.733      3.125      9.352
REMARK INTER + INTRA:          -8.791
REMARK INTER:                  -8.301
REMARK INTRA:                  -0.490
REMARK UNBOUND:                -0.483
REMARK  Name = 
REMARK  4 active torsions:
REMARK  status: ('A' for Active; 'I' for Inactive)
REMARK    1  A    between atoms: C_6  and  C_7
REMARK    2  A    between atoms: C_11  and  C_12
REMARK    3  A    between atoms: C_13  and  C_14
REMARK    4  A    between atoms: C_16  and  C_17
REMARK                            x       y       z     vdW  Elec       q    Type
REMARK                         _______ _______ _______ _____ _____    ______ ____
ROOT
ATOM      1  C   UNL     1      49.787   3.627  17.771  0.00  0.00    +0.000 A 
ATOM      2  C   UNL     1      49.227   4.208  18.914  0.00  0.00    +0.000 A 
ATOM      3  N   UNL     1      48.036   4.859  18.960  0.00  0.00    +0.000 NA
ATOM      4  C   UNL     1      47.352   4.955  17.798  0.00  0.00    +0.000 A 
ATOM      5  C   UNL     1      47.801   4.427  16.600  0.00  0.00    +0.000 A 
ATOM      6  C   UNL     1      49.027   3.755  16.594  0.00  0.00    +0.000 A 
ENDROOT
BRANCH   1  12
ATOM      7  F   UNL     1      54.599   3.579  18.559  0.00  0.00    +0.000 F 
ATOM      8  C   UNL     1      53.496   2.918  18.186  0.00  0.00    +0.000 A 
ATOM      9  C   UNL     1      53.595   1.590  17.799  0.00  0.00    +0.000 A 
ATOM     10  C   UNL     1      52.446   0.912  17.411  0.00  0.00    +0.000 A 
ATOM     11  C   UNL     1      51.211   1.574  17.403  0.00  0.00    +0.000 A 
ATOM     12  C   UNL     1      51.090   2.924  17.791  0.00  0.00    +0.000 A 
ATOM     13  C   UNL     1      52.269   3.579  18.192  0.00  0.00    +0.000 A 
ENDBRANCH   1  12
BRANCH   5  14
ATOM     14  C   UNL     1      47.045   4.567  15.396  0.00  0.00    +0.000 C 
ATOM     15  C   UNL     1      46.431   4.696  14.370  0.00  0.00    +0.000 C 
BRANCH  15  16
ATOM     16  C   UNL     1      45.727   4.871  13.141  0.00  0.00    +0.000 A 
ATOM     17  C   UNL     1      45.468   3.801  12.300  0.00  0.00    +0.000 A 
ATOM     18  C   UNL     1      44.819   4.049  11.083  0.00  0.00    +0.000 A 
ATOM     19  C   UNL     1      44.451   5.365  10.781  0.00  0.00    +0.000 A 
ATOM     20  C   UNL     1      44.747   6.364  11.693  0.00  0.00    +0.000 A 
ATOM     21  N   UNL     1      45.380   6.145  12.865  0.00  0.00    +0.000 NA
BRANCH  18  22
ATOM     22  C   UNL     1      44.532   2.941  10.108  0.00  0.00    +0.000 C 
ATOM     23  F   UNL     1      44.044   3.379   8.915  0.00  0.00    +0.000 F 
ATOM     24  F   UNL     1      45.640   2.206   9.814  0.00  0.00    +0.000 F 
ATOM     25  F   UNL     1      43.613   2.058  10.586  0.00  0.00    +0.000 F 
ENDBRANCH  18  22
ENDBRANCH  15  16
ENDBRANCH   5  14
TORSDOF 4
ENDMDL
MODEL 5
REMARK VINA RESULT:    -6.313      3.455      4.736
REMARK INTER + INTRA:          -8.272
REMARK INTER:                  -7.761
REMARK INTRA:                  -0.511
REMARK UNBOUND:                -0.483
REMARK  Name = 
REMARK  4 active torsions:
REMARK  status: ('A' for Active; 'I' for Inactive)
REMARK    1  A    between atoms: C_6  and  C_7
REMARK    2  A    between atoms: C_11  and  C_12
REMARK    3  A    between atoms: C_13  and  C_14
REMARK    4  A    between atoms: C_16  and  C_17
REMARK                            x       y       z     vdW  Elec       q    Type
REMARK                         _______ _______ _______ _____ _____    ______ ____
ROOT
ATOM      1  C   UNL     1      44.514   6.973  11.710  0.00  0.00    +0.000 A 
ATOM      2  C   UNL     1      43.885   5.975  10.957  0.00  0.00    +0.000 A 
ATOM      3  N   UNL     1      43.991   4.639  11.179  0.00  0.00    +0.000 NA
ATOM      4  C   UNL     1      44.779   4.257  12.209  0.00  0.00    +0.000 A 
ATOM      5  C   UNL     1      45.457   5.146  13.024  0.00  0.00    +0.000 A 
ATOM      6  C   UNL     1      45.316   6.514  12.771  0.00  0.00    +0.000 A 
ENDROOT
BRANCH   1  12
ATOM      7  F   UNL     1      42.068  10.660   9.661  0.00  0.00    +0.000 F 
ATOM      8  C   UNL     1      43.118  10.247  10.384  0.00  0.00    +0.000 A 
ATOM      9  C   UNL     1      44.050  11.174  10.824  0.00  0.00    +0.000 A 
ATOM     10  C   UNL     1      45.138  10.736  11.571  0.00  0.00    +0.000 A 
ATOM     11  C   UNL     1      45.287   9.373  11.858  0.00  0.00    +0.000 A 
ATOM     12  C   UNL     1      44.350   8.415  11.418  0.00  0.00    +0.000 A 
ATOM     13  C   UNL     1      43.253   8.891  10.676  0.00  0.00    +0.000 A 
ENDBRANCH   1  12
BRANCH   5  14
ATOM     14  C   UNL     1      46.289   4.689  14.093  0.00  0.00    +0.000 C 
ATOM     15  C   UNL     1      46.967   4.303  15.007  0.00  0.00    +0.000 C 
BRANCH  15  16
ATOM     16  C   UNL     1      47.744   3.848  16.115  0.00  0.00    +0.000 A 
ATOM     17  C   UNL     1      47.728   4.514  17.329  0.00  0.00    +0.000 A 
ATOM     18  C   UNL     1      48.555   4.046  18.359  0.00  0.00    +0.000 A 
ATOM     19  C   UNL     1      49.347   2.918  18.117  0.00  0.00    +0.000 A 
ATOM     20  C   UNL     1      49.284   2.316  16.871  0.00  0.00    +0.000 A 
ATOM     21  N   UNL     1      48.501   2.760  15.865  0.00  0.00    +0.000 NA
BRANCH  18  22
ATOM     22  C   UNL     1      48.612   4.737  19.694  0.00  0.00    +0.000 C 
ATOM     23  F   UNL     1      47.610   5.638  19.883  0.00  0.00    +0.000 F 
ATOM     24  F   UNL     1      48.534   3.864  20.736  0.00  0.00    +0.000 F 
ATOM     25  F   UNL     1      49.773   5.426  19.868  0.00  0.00    +0.000 F 
ENDBRANCH  18  22
ENDBRANCH  15  16
ENDBRANCH   5  14
TORSDOF 4
ENDMDL
MODEL 6
REMARK VINA RESULT:    -6.258      2.366      2.678
REMARK INTER + INTRA:          -8.205
REMARK INTER:                  -7.727
REMARK INTRA:                  -0.478
REMARK UNBOUND:                -0.483
REMARK  Name = 
REMARK  4 active torsions:
REMARK  status: ('A' for Active; 'I' for Inactive)
REMARK    1  A    between atoms: C_6  and  C_7
REMARK    2  A    between atoms: C_11  and  C_12
REMARK    3  A    between atoms: C_13  and  C_14
REMARK    4  A    between atoms: C_16  and  C_17
REMARK                            x       y       z     vdW  Elec       q    Type
REMARK                         _______ _______ _______ _____ _____    ______ ____
ROOT
ATOM      1  C   UNL     1      45.589   5.862  11.216  0.00  0.00    +0.000 A 
ATOM      2  C   UNL     1      44.970   7.112  11.113  0.00  0.00    +0.000 A 
ATOM      3  N   UNL     1      45.194   8.169  11.936  0.00  0.00    +0.000 NA
ATOM      4  C   UNL     1      46.083   7.980  12.936  0.00  0.00    +0.000 A 
ATOM      5  C   UNL     1      46.758   6.790  13.146  0.00  0.00    +0.000 A 
ATOM      6  C   UNL     1      46.508   5.728  12.272  0.00  0.00    +0.000 A 
ENDROOT
BRANCH   1  12
ATOM      7  F   UNL     1      45.884   3.825   6.795  0.00  0.00    +0.000 F 
ATOM      8  C   UNL     1      45.455   3.749   8.062  0.00  0.00    +0.000 A 
ATOM      9  C   UNL     1      44.727   2.642   8.470  0.00  0.00    +0.000 A 
ATOM     10  C   UNL     1      44.285   2.572   9.786  0.00  0.00    +0.000 A 
ATOM     11  C   UNL     1      44.565   3.617  10.676  0.00  0.00    +0.000 A 
ATOM     12  C   UNL     1      45.303   4.752  10.279  0.00  0.00    +0.000 A 
ATOM     13  C   UNL     1      45.749   4.786   8.944  0.00  0.00    +0.000 A 
ENDBRANCH   1  12
BRANCH   5  14
ATOM     14  C   UNL     1      47.679   6.638  14.227  0.00  0.00    +0.000 C 
ATOM     15  C   UNL     1      48.434   6.502  15.153  0.00  0.00    +0.000 C 
BRANCH  15  16
ATOM     16  C   UNL     1      49.303   6.334  16.273  0.00  0.00    +0.000 A 
ATOM     17  C   UNL     1      48.804   6.105  17.545  0.00  0.00    +0.000 A 
ATOM     18  C   UNL     1      49.709   6.002  18.610  0.00  0.00    +0.000 A 
ATOM     19  C   UNL     1      51.076   6.122  18.335  0.00  0.00    +0.000 A 
ATOM     20  C   UNL     1      51.475   6.341  17.028  0.00  0.00    +0.000 A 
ATOM     21  N   UNL     1      50.617   6.452  15.992  0.00  0.00    +0.000 NA
BRANCH  18  22
ATOM     22  C   UNL     1      49.237   5.784  20.021  0.00  0.00    +0.000 C 
ATOM     23  F   UNL     1      49.672   4.615  20.565  0.00  0.00    +0.000 F 
ATOM     24  F   UNL     1      49.651   6.769  20.866  0.00  0.00    +0.000 F 
ATOM     25  F   UNL     1      47.879   5.757  20.113  0.00  0.00    +0.000 F 
ENDBRANCH  18  22
ENDBRANCH  15  16
ENDBRANCH   5  14
TORSDOF 4
ENDMDL
MODEL 7
REMARK VINA RESULT:    -5.799      5.888      8.760
REMARK INTER + INTRA:          -7.638
REMARK INTER:                  -7.150
REMARK INTRA:                  -0.488
REMARK UNBOUND:                -0.483
REMARK  Name = 
REMARK  4 active torsions:
REMARK  status: ('A' for Active; 'I' for Inactive)
REMARK    1  A    between atoms: C_6  and  C_7
REMARK    2  A    between atoms: C_11  and  C_12
REMARK    3  A    between atoms: C_13  and  C_14
REMARK    4  A    between atoms: C_16  and  C_17
REMARK                            x       y       z     vdW  Elec       q    Type
REMARK                         _______ _______ _______ _____ _____    ______ ____
ROOT
ATOM      1  C   UNL     1      50.075   9.357  11.721  0.00  0.00    +0.000 A 
ATOM      2  C   UNL     1      49.656  10.351  12.612  0.00  0.00    +0.000 A 
ATOM      3  N   UNL     1      48.471  10.363  13.275  0.00  0.00    +0.000 NA
ATOM      4  C   UNL     1      47.634   9.327  13.039  0.00  0.00    +0.000 A 
ATOM      5  C   UNL     1      47.931   8.285  12.178  0.00  0.00    +0.000 A 
ATOM      6  C   UNL     1      49.165   8.304  11.520  0.00  0.00    +0.000 A 
ENDROOT
BRANCH   1  12
ATOM      7  F   UNL     1      54.291   7.275  10.428  0.00  0.00    +0.000 F 
ATOM      8  C   UNL     1      53.491   8.349  10.399  0.00  0.00    +0.000 A 
ATOM      9  C   UNL     1      53.915   9.498   9.750  0.00  0.00    +0.000 A 
ATOM     10  C   UNL     1      53.080  10.609   9.727  0.00  0.00    +0.000 A 
ATOM     11  C   UNL     1      51.834  10.562  10.367  0.00  0.00    +0.000 A 
ATOM     12  C   UNL     1      51.386   9.403  11.034  0.00  0.00    +0.000 A 
ATOM     13  C   UNL     1      52.248   8.290  11.027  0.00  0.00    +0.000 A 
ENDBRANCH   1  12
BRANCH   5  14
ATOM     14  C   UNL     1      47.006   7.220  11.953  0.00  0.00    +0.000 C 
ATOM     15  C   UNL     1      46.243   6.307  11.778  0.00  0.00    +0.000 C 
BRANCH  15  16
ATOM     16  C   UNL     1      45.360   5.202  11.586  0.00  0.00    +0.000 A 
ATOM     17  C   UNL     1      45.512   4.336  10.516  0.00  0.00    +0.000 A 
ATOM     18  C   UNL     1      44.580   3.302  10.355  0.00  0.00    +0.000 A 
ATOM     19  C   UNL     1      43.547   3.185  11.292  0.00  0.00    +0.000 A 
ATOM     20  C   UNL     1      43.488   4.096  12.333  0.00  0.00    +0.000 A 
ATOM     21  N   UNL     1      44.371   5.103  12.497  0.00  0.00    +0.000 NA
BRANCH  18  22
ATOM     22  C   UNL     1      44.665   2.343   9.200  0.00  0.00    +0.000 C 
ATOM     23  F   UNL     1      44.209   2.862   8.027  0.00  0.00    +0.000 F 
ATOM     24  F   UNL     1      45.941   1.931   8.958  0.00  0.00    +0.000 F 
ATOM     25  F   UNL     1      43.940   1.211   9.415  0.00  0.00    +0.000 F 
ENDBRANCH  18  22
ENDBRANCH  15  16
ENDBRANCH   5  14
TORSDOF 4
ENDMDL
MODEL 8
REMARK VINA RESULT:    -5.775      3.249      4.062
REMARK INTER + INTRA:          -7.609
REMARK INTER:                  -7.127
REMARK INTRA:                  -0.481
REMARK UNBOUND:                -0.483
REMARK  Name = 
REMARK  4 active torsions:
REMARK  status: ('A' for Active; 'I' for Inactive)
REMARK    1  A    between atoms: C_6  and  C_7
REMARK    2  A    between atoms: C_11  and  C_12
REMARK    3  A    between atoms: C_13  and  C_14
REMARK    4  A    between atoms: C_16  and  C_17
REMARK                            x       y       z     vdW  Elec       q    Type
REMARK                         _______ _______ _______ _____ _____    ______ ____
ROOT
ATOM      1  C   UNL     1      46.342   6.143  12.151  0.00  0.00    +0.000 A 
ATOM      2  C   UNL     1      46.466   7.487  11.786  0.00  0.00    +0.000 A 
ATOM      3  N   UNL     1      47.172   8.425  12.470  0.00  0.00    +0.000 NA
ATOM      4  C   UNL     1      47.792   8.012  13.598  0.00  0.00    +0.000 A 
ATOM      5  C   UNL     1      47.743   6.711  14.066  0.00  0.00    +0.000 A 
ATOM      6  C   UNL     1      47.014   5.772  13.330  0.00  0.00    +0.000 A 
ENDROOT
BRANCH   1  12
ATOM      7  F   UNL     1      43.319   2.329  11.844  0.00  0.00    +0.000 F 
ATOM      8  C   UNL     1      44.051   3.259  11.218  0.00  0.00    +0.000 A 
ATOM      9  C   UNL     1      44.088   3.281   9.832  0.00  0.00    +0.000 A 
ATOM     10  C   UNL     1      44.852   4.248   9.191  0.00  0.00    +0.000 A 
ATOM     11  C   UNL     1      45.583   5.176   9.945  0.00  0.00    +0.000 A 
ATOM     12  C   UNL     1      45.560   5.170  11.355  0.00  0.00    +0.000 A 
ATOM     13  C   UNL     1      44.766   4.187  11.974  0.00  0.00    +0.000 A 
ENDBRANCH   1  12
BRANCH   5  14
ATOM     14  C   UNL     1      48.406   6.329  15.273  0.00  0.00    +0.000 C 
ATOM     15  C   UNL     1      48.989   6.008  16.275  0.00  0.00    +0.000 C 
BRANCH  15  16
ATOM     16  C   UNL     1      49.709   5.622  17.445  0.00  0.00    +0.000 A 
ATOM     17  C   UNL     1      50.892   4.905  17.360  0.00  0.00    +0.000 A 
ATOM     18  C   UNL     1      51.521   4.512  18.549  0.00  0.00    +0.000 A 
ATOM     19  C   UNL     1      50.933   4.875  19.766  0.00  0.00    +0.000 A 
ATOM     20  C   UNL     1      49.754   5.602  19.744  0.00  0.00    +0.000 A 
ATOM     21  N   UNL     1      49.129   5.980  18.609  0.00  0.00    +0.000 NA
BRANCH  18  22
ATOM     22  C   UNL     1      52.791   3.706  18.533  0.00  0.00    +0.000 C 
ATOM     23  F   UNL     1      53.901   4.446  18.267  0.00  0.00    +0.000 F 
ATOM     24  F   UNL     1      53.028   3.087  19.723  0.00  0.00    +0.000 F 
ATOM     25  F   UNL     1      52.764   2.720  17.596  0.00  0.00    +0.000 F 
ENDBRANCH  18  22
ENDBRANCH  15  16
ENDBRANCH   5  14
TORSDOF 4
ENDMDL
MODEL 9
REMARK VINA RESULT:    -5.741      4.209      9.730
REMARK INTER + INTRA:          -7.568
REMARK INTER:                  -7.059
REMARK INTRA:                  -0.509
REMARK UNBOUND:                -0.483
REMARK  Name = 
REMARK  4 active torsions:
REMARK  status: ('A' for Active; 'I' for Inactive)
REMARK    1  A    between atoms: C_6  and  C_7
REMARK    2  A    between atoms: C_11  and  C_12
REMARK    3  A    between atoms: C_13  and  C_14
REMARK    4  A    between atoms: C_16  and  C_17
REMARK                            x       y       z     vdW  Elec       q    Type
REMARK                         _______ _______ _______ _____ _____    ______ ____
ROOT
ATOM      1  C   UNL     1      48.600   9.541  14.501  0.00  0.00    +0.000 A 
ATOM      2  C   UNL     1      49.258  10.141  13.422  0.00  0.00    +0.000 A 
ATOM      3  N   UNL     1      49.140   9.764  12.122  0.00  0.00    +0.000 NA
ATOM      4  C   UNL     1      48.324   8.717  11.867  0.00  0.00    +0.000 A 
ATOM      5  C   UNL     1      47.621   8.038  12.847  0.00  0.00    +0.000 A 
ATOM      6  C   UNL     1      47.761   8.461  14.173  0.00  0.00    +0.000 A 
ENDROOT
BRANCH   1  12
ATOM      7  F   UNL     1      47.364   9.432  19.217  0.00  0.00    +0.000 F 
ATOM      8  C   UNL     1      48.136   9.944  18.250  0.00  0.00    +0.000 A 
ATOM      9  C   UNL     1      49.066  10.923  18.566  0.00  0.00    +0.000 A 
ATOM     10  C   UNL     1      49.862  11.451  17.556  0.00  0.00    +0.000 A 
ATOM     11  C   UNL     1      49.710  11.001  16.238  0.00  0.00    +0.000 A 
ATOM     12  C   UNL     1      48.769  10.008  15.896  0.00  0.00    +0.000 A 
ATOM     13  C   UNL     1      47.988   9.483  16.943  0.00  0.00    +0.000 A 
ENDBRANCH   1  12
BRANCH   5  14
ATOM     14  C   UNL     1      46.781   6.928  12.526  0.00  0.00    +0.000 C 
ATOM     15  C   UNL     1      46.090   5.988  12.235  0.00  0.00    +0.000 C 
BRANCH  15  16
ATOM     16  C   UNL     1      45.288   4.868  11.860  0.00  0.00    +0.000 A 
ATOM     17  C   UNL     1      45.519   4.180  10.680  0.00  0.00    +0.000 A 
ATOM     18  C   UNL     1      44.662   3.123  10.344  0.00  0.00    +0.000 A 
ATOM     19  C   UNL     1      43.622   2.803  11.226  0.00  0.00    +0.000 A 
ATOM     20  C   UNL     1      43.482   3.546  12.386  0.00  0.00    +0.000 A 
ATOM     21  N   UNL     1      44.292   4.573  12.719  0.00  0.00    +0.000 NA
BRANCH  18  22
ATOM     22  C   UNL     1      44.833   2.351   9.065  0.00  0.00    +0.000 C 
ATOM     23  F   UNL     1      46.130   2.050   8.781  0.00  0.00    +0.000 F 
ATOM     24  F   UNL     1      44.167   1.163   9.081  0.00  0.00    +0.000 F 
ATOM     25  F   UNL     1      44.361   3.031   7.985  0.00  0.00    +0.000 F 
ENDBRANCH  18  22
ENDBRANCH  15  16
ENDBRANCH   5  14
TORSDOF 4
ENDMDL
