MODEL 1
REMARK VINA RESULT:    -6.798      0.000      0.000
REMARK INTER + INTRA:          -8.869
REMARK INTER:                  -7.990
REMARK INTRA:                  -0.879
REMARK UNBOUND:                -0.879
REMARK  Name = 
REMARK  5 active torsions:
REMARK  status: ('A' for Active; 'I' for Inactive)
REMARK    1  A    between atoms: C_1  and  C_2
REMARK    2  A    between atoms: C_4  and  C_5
REMARK    3  A    between atoms: N_8  and  C_9
REMARK    4  A    between atoms: C_9  and  C_10
REMARK    5  A    between atoms: C_14  and  C_15
REMARK                            x       y       z     vdW  Elec       q    Type
REMARK                         _______ _______ _______ _____ _____    ______ ____
ROOT
ATOM      1  C   UNL     1      48.868   7.827  12.635  0.00  0.00    +0.000 C 
ATOM      2  C   UNL     1      49.843   8.062  11.482  0.00  0.00    +0.000 C 
ATOM      3  C   UNL     1      49.408   9.213  12.324  0.00  0.00    +0.000 C 
ENDROOT
BRANCH   1  11
ATOM      4  C   UNL     1      47.913   9.520  17.711  0.00  0.00    +0.000 C 
ATOM      5  C   UNL     1      48.608   8.360  17.065  0.00  0.00    +0.000 A 
ATOM      6  C   UNL     1      49.167   7.335  17.827  0.00  0.00    +0.000 A 
ATOM      7  C   UNL     1      49.781   6.276  17.170  0.00  0.00    +0.000 A 
ATOM      8  C   UNL     1      50.444   5.170  17.935  0.00  0.00    +0.000 C 
ATOM      9  N   UNL     1      49.829   6.182  15.820  0.00  0.00    +0.000 NA
ATOM     10  C   UNL     1      49.286   7.173  15.078  0.00  0.00    +0.000 A 
ATOM     11  N   UNL     1      49.399   6.994  13.706  0.00  0.00    +0.000 N 
ATOM     12  C   UNL     1      48.691   8.277  15.670  0.00  0.00    +0.000 A 
ATOM     13  H   UNL     1      49.786   6.078  13.510  0.00  0.00    +0.000 HD
ENDBRANCH   1  11
BRANCH   1  14
ATOM     14  C   UNL     1      47.393   7.601  12.302  0.00  0.00    +0.000 A 
ATOM     15  C   UNL     1      46.441   8.617  12.480  0.00  0.00    +0.000 A 
ATOM     16  C   UNL     1      45.125   8.465  12.050  0.00  0.00    +0.000 A 
ATOM     17  C   UNL     1      44.733   7.288  11.417  0.00  0.00    +0.000 A 
ATOM     18  C   UNL     1      45.638   6.232  11.224  0.00  0.00    +0.000 A 
ATOM     19  C   UNL     1      46.949   6.403  11.711  0.00  0.00    +0.000 A 
BRANCH  18  20
ATOM     20  C   UNL     1      45.264   5.022  10.470  0.00  0.00    +0.000 A 
ATOM     21  C   UNL     1      45.516   4.883   9.095  0.00  0.00    +0.000 A 
ATOM     22  C   UNL     1      45.084   3.750   8.405  0.00  0.00    +0.000 A 
ATOM     23  C   UNL     1      44.412   2.767   9.109  0.00  0.00    +0.000 A 
ATOM     24  N   UNL     1      44.149   2.843  10.428  0.00  0.00    +0.000 NA
ATOM     25  C   UNL     1      44.573   3.962  11.066  0.00  0.00    +0.000 A 
ENDBRANCH  18  20
ENDBRANCH   1  14
TORSDOF 3
ENDMDL
MODEL 2
REMARK VINA RESULT:    -6.404      1.845      3.570
REMARK INTER + INTRA:          -8.406
REMARK INTER:                  -7.544
REMARK INTRA:                  -0.862
REMARK UNBOUND:                -0.879
REMARK  Name = 
REMARK  5 active torsions:
REMARK  status: ('A' for Active; 'I' for Inactive)
REMARK    1  A    between atoms: C_1  and  C_2
REMARK    2  A    between atoms: C_4  and  C_5
REMARK    3  A    between atoms: N_8  and  C_9
REMARK    4  A    between atoms: C_9  and  C_10
REMARK    5  A    between atoms: C_14  and  C_15
REMARK                            x       y       z     vdW  Elec       q    Type
REMARK                         _______ _______ _______ _____ _____    ______ ____
ROOT
ATOM      1  C   UNL     1      49.490   7.841  15.929  0.00  0.00    +0.000 C 
ATOM      2  C   UNL     1      49.846   9.225  16.470  0.00  0.00    +0.000 C 
ATOM      3  C   UNL     1      48.563   8.584  16.876  0.00  0.00    +0.000 C 
ENDROOT
BRANCH   1  11
ATOM      4  C   UNL     1      47.139   3.181  17.449  0.00  0.00    +0.000 C 
ATOM      5  C   UNL     1      48.538   3.709  17.344  0.00  0.00    +0.000 A 
ATOM      6  C   UNL     1      49.639   2.903  17.629  0.00  0.00    +0.000 A 
ATOM      7  C   UNL     1      50.912   3.444  17.495  0.00  0.00    +0.000 A 
ATOM      8  C   UNL     1      52.133   2.643  17.836  0.00  0.00    +0.000 C 
ATOM      9  N   UNL     1      51.127   4.710  17.066  0.00  0.00    +0.000 NA
ATOM     10  C   UNL     1      50.061   5.493  16.786  0.00  0.00    +0.000 A 
ATOM     11  N   UNL     1      50.384   6.778  16.370  0.00  0.00    +0.000 N 
ATOM     12  C   UNL     1      48.763   5.029  16.935  0.00  0.00    +0.000 A 
ATOM     13  H   UNL     1      51.387   6.858  16.250  0.00  0.00    +0.000 HD
ENDBRANCH   1  11
BRANCH   1  14
ATOM     14  C   UNL     1      49.008   7.730  14.482  0.00  0.00    +0.000 A 
ATOM     15  C   UNL     1      49.753   8.269  13.421  0.00  0.00    +0.000 A 
ATOM     16  C   UNL     1      49.392   8.052  12.094  0.00  0.00    +0.000 A 
ATOM     17  C   UNL     1      48.275   7.275  11.796  0.00  0.00    +0.000 A 
ATOM     18  C   UNL     1      47.483   6.723  12.816  0.00  0.00    +0.000 A 
ATOM     19  C   UNL     1      47.852   6.999  14.147  0.00  0.00    +0.000 A 
BRANCH  18  20
ATOM     20  C   UNL     1      46.357   5.820  12.516  0.00  0.00    +0.000 A 
ATOM     21  C   UNL     1      45.737   5.781  11.256  0.00  0.00    +0.000 A 
ATOM     22  C   UNL     1      44.631   4.960  11.034  0.00  0.00    +0.000 A 
ATOM     23  C   UNL     1      44.168   4.183  12.080  0.00  0.00    +0.000 A 
ATOM     24  N   UNL     1      44.726   4.174  13.306  0.00  0.00    +0.000 NA
ATOM     25  C   UNL     1      45.793   4.991  13.491  0.00  0.00    +0.000 A 
ENDBRANCH  18  20
ENDBRANCH   1  14
TORSDOF 3
ENDMDL
MODEL 3
REMARK VINA RESULT:    -6.081      2.037      6.761
REMARK INTER + INTRA:          -8.027
REMARK INTER:                  -7.766
REMARK INTRA:                  -0.261
REMARK UNBOUND:                -0.879
REMARK  Name = 
REMARK  5 active torsions:
REMARK  status: ('A' for Active; 'I' for Inactive)
REMARK    1  A    between atoms: C_1  and  C_2
REMARK    2  A    between atoms: C_4  and  C_5
REMARK    3  A    between atoms: N_8  and  C_9
REMARK    4  A    between atoms: C_9  and  C_10
REMARK    5  A    between atoms: C_14  and  C_15
REMARK                            x       y       z     vdW  Elec       q    Type
REMARK                         _______ _______ _______ _____ _____    ______ ____
ROOT
ATOM      1  C   UNL     1      47.141   8.080  12.413  0.00  0.00    +0.000 C 
ATOM      2  C   UNL     1      45.892   8.805  12.912  0.00  0.00    +0.000 C 
ATOM      3  C   UNL     1      46.992   9.586  12.278  0.00  0.00    +0.000 C 
ENDROOT
BRANCH   1  11
ATOM      4  C   UNL     1      43.045   4.566  13.058  0.00  0.00    +0.000 C 
ATOM      5  C   UNL     1      44.053   4.876  11.993  0.00  0.00    +0.000 A 
ATOM      6  C   UNL     1      44.040   4.212  10.768  0.00  0.00    +0.000 A 
ATOM      7  C   UNL     1      44.988   4.557   9.813  0.00  0.00    +0.000 A 
ATOM      8  C   UNL     1      45.056   3.843   8.496  0.00  0.00    +0.000 C 
ATOM      9  N   UNL     1      45.901   5.537  10.011  0.00  0.00    +0.000 NA
ATOM     10  C   UNL     1      45.915   6.185  11.197  0.00  0.00    +0.000 A 
ATOM     11  N   UNL     1      46.897   7.160  11.310  0.00  0.00    +0.000 N 
ATOM     12  C   UNL     1      45.021   5.864  12.208  0.00  0.00    +0.000 A 
ATOM     13  H   UNL     1      47.367   7.278  10.419  0.00  0.00    +0.000 HD
ENDBRANCH   1  11
BRANCH   1  14
ATOM     14  C   UNL     1      48.165   7.605  13.445  0.00  0.00    +0.000 A 
ATOM     15  C   UNL     1      49.370   8.296  13.648  0.00  0.00    +0.000 A 
ATOM     16  C   UNL     1      50.242   7.953  14.679  0.00  0.00    +0.000 A 
ATOM     17  C   UNL     1      49.918   6.908  15.543  0.00  0.00    +0.000 A 
ATOM     18  C   UNL     1      48.734   6.172  15.379  0.00  0.00    +0.000 A 
ATOM     19  C   UNL     1      47.897   6.519  14.299  0.00  0.00    +0.000 A 
BRANCH  18  20
ATOM     20  C   UNL     1      48.332   5.131  16.341  0.00  0.00    +0.000 A 
ATOM     21  C   UNL     1      49.073   4.851  17.502  0.00  0.00    +0.000 A 
ATOM     22  C   UNL     1      48.695   3.811  18.351  0.00  0.00    +0.000 A 
ATOM     23  C   UNL     1      47.572   3.072  18.028  0.00  0.00    +0.000 A 
ATOM     24  N   UNL     1      46.820   3.298  16.934  0.00  0.00    +0.000 NA
ATOM     25  C   UNL     1      47.221   4.310  16.123  0.00  0.00    +0.000 A 
ENDBRANCH  18  20
ENDBRANCH   1  14
TORSDOF 3
ENDMDL
MODEL 4
REMARK VINA RESULT:    -5.876      2.178      5.124
REMARK INTER + INTRA:          -7.785
REMARK INTER:                  -7.580
REMARK INTRA:                  -0.205
REMARK UNBOUND:                -0.879
REMARK  Name = 
REMARK  5 active torsions:
REMARK  status: ('A' for Active; 'I' for Inactive)
REMARK    1  A    between atoms: C_1  and  C_2
REMARK    2  A    between atoms: C_4  and  C_5
REMARK    3  A    between atoms: N_8  and  C_9
REMARK    4  A    between atoms: C_9  and  C_10
REMARK    5  A    between atoms: C_14  and  C_15
REMARK                            x       y       z     vdW  Elec       q    Type
REMARK                         _______ _______ _______ _____ _____    ______ ____
ROOT
ATOM      1  C   UNL     1      45.500   5.149  12.162  0.00  0.00    +0.000 C 
ATOM      2  C   UNL     1      44.178   4.782  11.488  0.00  0.00    +0.000 C 
ATOM      3  C   UNL     1      45.464   4.476  10.799  0.00  0.00    +0.000 C 
ENDROOT
BRANCH   1  11
ATOM      4  C   UNL     1      49.442   7.131  15.337  0.00  0.00    +0.000 C 
ATOM      5  C   UNL     1      48.487   5.976  15.382  0.00  0.00    +0.000 A 
ATOM      6  C   UNL     1      48.439   5.120  16.481  0.00  0.00    +0.000 A 
ATOM      7  C   UNL     1      47.519   4.079  16.473  0.00  0.00    +0.000 A 
ATOM      8  C   UNL     1      47.453   3.095  17.602  0.00  0.00    +0.000 C 
ATOM      9  N   UNL     1      46.645   3.883  15.457  0.00  0.00    +0.000 NA
ATOM     10  C   UNL     1      46.688   4.714  14.391  0.00  0.00    +0.000 A 
ATOM     11  N   UNL     1      45.765   4.421  13.396  0.00  0.00    +0.000 N 
ATOM     12  C   UNL     1      47.607   5.750  14.318  0.00  0.00    +0.000 A 
ATOM     13  H   UNL     1      45.145   3.684  13.709  0.00  0.00    +0.000 HD
ENDBRANCH   1  11
BRANCH   1  14
ATOM     14  C   UNL     1      45.929   6.617  12.164  0.00  0.00    +0.000 A 
ATOM     15  C   UNL     1      45.108   7.617  12.708  0.00  0.00    +0.000 A 
ATOM     16  C   UNL     1      45.550   8.931  12.839  0.00  0.00    +0.000 A 
ATOM     17  C   UNL     1      46.839   9.273  12.435  0.00  0.00    +0.000 A 
ATOM     18  C   UNL     1      47.700   8.319  11.870  0.00  0.00    +0.000 A 
ATOM     19  C   UNL     1      47.204   7.010  11.713  0.00  0.00    +0.000 A 
BRANCH  18  20
ATOM     20  C   UNL     1      49.096   8.644  11.530  0.00  0.00    +0.000 A 
ATOM     21  C   UNL     1      50.091   7.661  11.407  0.00  0.00    +0.000 A 
ATOM     22  C   UNL     1      51.415   8.018  11.151  0.00  0.00    +0.000 A 
ATOM     23  C   UNL     1      51.719   9.359  11.012  0.00  0.00    +0.000 A 
ATOM     24  N   UNL     1      50.808  10.345  11.113  0.00  0.00    +0.000 NA
ATOM     25  C   UNL     1      49.532   9.964  11.373  0.00  0.00    +0.000 A 
ENDBRANCH  18  20
ENDBRANCH   1  14
TORSDOF 3
ENDMDL
MODEL 5
REMARK VINA RESULT:    -5.863      2.213      6.552
REMARK INTER + INTRA:          -7.770
REMARK INTER:                  -7.021
REMARK INTRA:                  -0.749
REMARK UNBOUND:                -0.879
REMARK  Name = 
REMARK  5 active torsions:
REMARK  status: ('A' for Active; 'I' for Inactive)
REMARK    1  A    between atoms: C_1  and  C_2
REMARK    2  A    between atoms: C_4  and  C_5
REMARK    3  A    between atoms: N_8  and  C_9
REMARK    4  A    between atoms: C_9  and  C_10
REMARK    5  A    between atoms: C_14  and  C_15
REMARK                            x       y       z     vdW  Elec       q    Type
REMARK                         _______ _______ _______ _____ _____    ______ ____
ROOT
ATOM      1  C   UNL     1      47.963   8.370  12.707  0.00  0.00    +0.000 C 
ATOM      2  C   UNL     1      48.546   9.551  11.932  0.00  0.00    +0.000 C 
ATOM      3  C   UNL     1      49.113   8.188  11.730  0.00  0.00    +0.000 C 
ENDROOT
BRANCH   1  11
ATOM      4  C   UNL     1      46.447   3.184  13.300  0.00  0.00    +0.000 C 
ATOM      5  C   UNL     1      45.798   4.463  12.864  0.00  0.00    +0.000 A 
ATOM      6  C   UNL     1      44.444   4.513  12.538  0.00  0.00    +0.000 A 
ATOM      7  C   UNL     1      43.895   5.732  12.159  0.00  0.00    +0.000 A 
ATOM      8  C   UNL     1      42.457   5.839  11.748  0.00  0.00    +0.000 C 
ATOM      9  N   UNL     1      44.614   6.879  12.127  0.00  0.00    +0.000 NA
ATOM     10  C   UNL     1      45.927   6.834  12.446  0.00  0.00    +0.000 A 
ATOM     11  N   UNL     1      46.581   8.057  12.368  0.00  0.00    +0.000 N 
ATOM     12  C   UNL     1      46.547   5.644  12.796  0.00  0.00    +0.000 A 
ATOM     13  H   UNL     1      45.910   8.793  12.182  0.00  0.00    +0.000 HD
ENDBRANCH   1  11
BRANCH   1  14
ATOM     14  C   UNL     1      48.321   8.226  14.186  0.00  0.00    +0.000 A 
ATOM     15  C   UNL     1      48.248   9.318  15.065  0.00  0.00    +0.000 A 
ATOM     16  C   UNL     1      48.438   9.164  16.436  0.00  0.00    +0.000 A 
ATOM     17  C   UNL     1      48.697   7.900  16.963  0.00  0.00    +0.000 A 
ATOM     18  C   UNL     1      48.796   6.774  16.131  0.00  0.00    +0.000 A 
ATOM     19  C   UNL     1      48.642   6.974  14.745  0.00  0.00    +0.000 A 
BRANCH  18  20
ATOM     20  C   UNL     1      48.971   5.418  16.684  0.00  0.00    +0.000 A 
ATOM     21  C   UNL     1      47.988   4.422  16.563  0.00  0.00    +0.000 A 
ATOM     22  C   UNL     1      48.166   3.174  17.160  0.00  0.00    +0.000 A 
ATOM     23  C   UNL     1      49.333   2.941  17.862  0.00  0.00    +0.000 A 
ATOM     24  N   UNL     1      50.313   3.854  18.006  0.00  0.00    +0.000 NA
ATOM     25  C   UNL     1      50.104   5.061  17.422  0.00  0.00    +0.000 A 
ENDBRANCH  18  20
ENDBRANCH   1  14
TORSDOF 3
ENDMDL
MODEL 6
REMARK VINA RESULT:    -5.699      2.456      4.120
REMARK INTER + INTRA:          -7.577
REMARK INTER:                  -7.050
REMARK INTRA:                  -0.528
REMARK UNBOUND:                -0.879
REMARK  Name = 
REMARK  5 active torsions:
REMARK  status: ('A' for Active; 'I' for Inactive)
REMARK    1  A    between atoms: C_1  and  C_2
REMARK    2  A    between atoms: C_4  and  C_5
REMARK    3  A    between atoms: N_8  and  C_9
REMARK    4  A    between atoms: C_9  and  C_10
REMARK    5  A    between atoms: C_14  and  C_15
REMARK                            x       y       z     vdW  Elec       q    Type
REMARK                         _______ _______ _______ _____ _____    ______ ____
ROOT
ATOM      1  C   UNL     1      47.774   4.632  16.925  0.00  0.00    +0.000 C 
ATOM      2  C   UNL     1      47.400   3.156  17.052  0.00  0.00    +0.000 C 
ATOM      3  C   UNL     1      48.836   3.553  17.052  0.00  0.00    +0.000 C 
ENDROOT
BRANCH   1  11
ATOM      4  C   UNL     1      51.585   7.757  19.218  0.00  0.00    +0.000 C 
ATOM      5  C   UNL     1      50.124   7.494  19.428  0.00  0.00    +0.000 A 
ATOM      6  C   UNL     1      49.394   8.188  20.392  0.00  0.00    +0.000 A 
ATOM      7  C   UNL     1      48.039   7.914  20.526  0.00  0.00    +0.000 A 
ATOM      8  C   UNL     1      47.212   8.591  21.578  0.00  0.00    +0.000 C 
ATOM      9  N   UNL     1      47.391   7.027  19.735  0.00  0.00    +0.000 NA
ATOM     10  C   UNL     1      48.095   6.354  18.797  0.00  0.00    +0.000 A 
ATOM     11  N   UNL     1      47.346   5.456  18.048  0.00  0.00    +0.000 N 
ATOM     12  C   UNL     1      49.459   6.552  18.636  0.00  0.00    +0.000 A 
ATOM     13  H   UNL     1      46.364   5.550  18.281  0.00  0.00    +0.000 HD
ENDBRANCH   1  11
BRANCH   1  14
ATOM     14  C   UNL     1      47.663   5.293  15.550  0.00  0.00    +0.000 A 
ATOM     15  C   UNL     1      48.574   6.278  15.138  0.00  0.00    +0.000 A 
ATOM     16  C   UNL     1      48.563   6.782  13.840  0.00  0.00    +0.000 A 
ATOM     17  C   UNL     1      47.639   6.299  12.915  0.00  0.00    +0.000 A 
ATOM     18  C   UNL     1      46.694   5.325  13.275  0.00  0.00    +0.000 A 
ATOM     19  C   UNL     1      46.706   4.869  14.608  0.00  0.00    +0.000 A 
BRANCH  18  20
ATOM     20  C   UNL     1      45.778   4.735  12.283  0.00  0.00    +0.000 A 
ATOM     21  C   UNL     1      45.510   5.346  11.047  0.00  0.00    +0.000 A 
ATOM     22  C   UNL     1      44.583   4.789  10.165  0.00  0.00    +0.000 A 
ATOM     23  C   UNL     1      43.945   3.619  10.534  0.00  0.00    +0.000 A 
ATOM     24  N   UNL     1      44.166   2.985  11.702  0.00  0.00    +0.000 NA
ATOM     25  C   UNL     1      45.065   3.559  12.541  0.00  0.00    +0.000 A 
ENDBRANCH  18  20
ENDBRANCH   1  14
TORSDOF 3
ENDMDL
MODEL 7
REMARK VINA RESULT:    -5.632      3.084      6.887
REMARK INTER + INTRA:          -7.499
REMARK INTER:                  -7.364
REMARK INTRA:                  -0.135
REMARK UNBOUND:                -0.879
REMARK  Name = 
REMARK  5 active torsions:
REMARK  status: ('A' for Active; 'I' for Inactive)
REMARK    1  A    between atoms: C_1  and  C_2
REMARK    2  A    between atoms: C_4  and  C_5
REMARK    3  A    between atoms: N_8  and  C_9
REMARK    4  A    between atoms: C_9  and  C_10
REMARK    5  A    between atoms: C_14  and  C_15
REMARK                            x       y       z     vdW  Elec       q    Type
REMARK                         _______ _______ _______ _____ _____    ______ ____
ROOT
ATOM      1  C   UNL     1      46.814   7.255  12.098  0.00  0.00    +0.000 C 
ATOM      2  C   UNL     1      48.079   6.846  12.852  0.00  0.00    +0.000 C 
ATOM      3  C   UNL     1      46.744   6.598  13.466  0.00  0.00    +0.000 C 
ENDROOT
BRANCH   1  11
ATOM      4  C   UNL     1      43.474   2.976  12.378  0.00  0.00    +0.000 C 
ATOM      5  C   UNL     1      44.278   3.660  11.313  0.00  0.00    +0.000 A 
ATOM      6  C   UNL     1      44.226   3.240   9.985  0.00  0.00    +0.000 A 
ATOM      7  C   UNL     1      44.979   3.926   9.040  0.00  0.00    +0.000 A 
ATOM      8  C   UNL     1      45.004   3.490   7.605  0.00  0.00    +0.000 C 
ATOM      9  N   UNL     1      45.733   5.007   9.350  0.00  0.00    +0.000 NA
ATOM     10  C   UNL     1      45.782   5.418  10.637  0.00  0.00    +0.000 A 
ATOM     11  N   UNL     1      46.594   6.523  10.857  0.00  0.00    +0.000 N 
ATOM     12  C   UNL     1      45.086   4.755  11.637  0.00  0.00    +0.000 A 
ATOM     13  H   UNL     1      46.925   6.888   9.972  0.00  0.00    +0.000 HD
ENDBRANCH   1  11
BRANCH   1  14
ATOM     14  C   UNL     1      46.443   8.738  12.056  0.00  0.00    +0.000 A 
ATOM     15  C   UNL     1      47.425   9.739  12.126  0.00  0.00    +0.000 A 
ATOM     16  C   UNL     1      47.109  11.083  11.949  0.00  0.00    +0.000 A 
ATOM     17  C   UNL     1      45.793  11.458  11.684  0.00  0.00    +0.000 A 
ATOM     18  C   UNL     1      44.766  10.503  11.617  0.00  0.00    +0.000 A 
ATOM     19  C   UNL     1      45.115   9.157  11.845  0.00  0.00    +0.000 A 
BRANCH  18  20
ATOM     20  C   UNL     1      43.390  10.873  11.242  0.00  0.00    +0.000 A 
ATOM     21  C   UNL     1      42.878  12.166  11.438  0.00  0.00    +0.000 A 
ATOM     22  C   UNL     1      41.548  12.457  11.132  0.00  0.00    +0.000 A 
ATOM     23  C   UNL     1      40.753  11.446  10.624  0.00  0.00    +0.000 A 
ATOM     24  N   UNL     1      41.191  10.190  10.409  0.00  0.00    +0.000 NA
ATOM     25  C   UNL     1      42.486   9.938  10.728  0.00  0.00    +0.000 A 
ENDBRANCH  18  20
ENDBRANCH   1  14
TORSDOF 3
ENDMDL
MODEL 8
REMARK VINA RESULT:    -5.521      1.947      3.989
REMARK INTER + INTRA:          -7.368
REMARK INTER:                  -6.494
REMARK INTRA:                  -0.873
REMARK UNBOUND:                -0.879
REMARK  Name = 
REMARK  5 active torsions:
REMARK  status: ('A' for Active; 'I' for Inactive)
REMARK    1  A    between atoms: C_1  and  C_2
REMARK    2  A    between atoms: C_4  and  C_5
REMARK    3  A    between atoms: N_8  and  C_9
REMARK    4  A    between atoms: C_9  and  C_10
REMARK    5  A    between atoms: C_14  and  C_15
REMARK                            x       y       z     vdW  Elec       q    Type
REMARK                         _______ _______ _______ _____ _____    ______ ____
ROOT
ATOM      1  C   UNL     1      49.013   6.321  16.782  0.00  0.00    +0.000 C 
ATOM      2  C   UNL     1      49.341   4.894  17.221  0.00  0.00    +0.000 C 
ATOM      3  C   UNL     1      50.434   5.903  17.122  0.00  0.00    +0.000 C 
ENDROOT
BRANCH   1  11
ATOM      4  C   UNL     1      50.130  11.598  17.450  0.00  0.00    +0.000 C 
ATOM      5  C   UNL     1      49.123  10.624  17.983  0.00  0.00    +0.000 A 
ATOM      6  C   UNL     1      48.111  11.032  18.851  0.00  0.00    +0.000 A 
ATOM      7  C   UNL     1      47.195  10.087  19.296  0.00  0.00    +0.000 A 
ATOM      8  C   UNL     1      46.115  10.453  20.269  0.00  0.00    +0.000 C 
ATOM      9  N   UNL     1      47.225   8.794  18.895  0.00  0.00    +0.000 NA
ATOM     10  C   UNL     1      48.204   8.396  18.051  0.00  0.00    +0.000 A 
ATOM     11  N   UNL     1      48.160   7.050  17.711  0.00  0.00    +0.000 N 
ATOM     12  C   UNL     1      49.173   9.280  17.599  0.00  0.00    +0.000 A 
ATOM     13  H   UNL     1      47.318   6.629  18.087  0.00  0.00    +0.000 HD
ENDBRANCH   1  11
BRANCH   1  14
ATOM     14  C   UNL     1      48.734   6.577  15.301  0.00  0.00    +0.000 A 
ATOM     15  C   UNL     1      49.619   7.329  14.511  0.00  0.00    +0.000 A 
ATOM     16  C   UNL     1      49.444   7.449  13.135  0.00  0.00    +0.000 A 
ATOM     17  C   UNL     1      48.377   6.804  12.512  0.00  0.00    +0.000 A 
ATOM     18  C   UNL     1      47.452   6.051  13.252  0.00  0.00    +0.000 A 
ATOM     19  C   UNL     1      47.635   5.987  14.648  0.00  0.00    +0.000 A 
BRANCH  18  20
ATOM     20  C   UNL     1      46.378   5.285  12.595  0.00  0.00    +0.000 A 
ATOM     21  C   UNL     1      45.805   5.683  11.376  0.00  0.00    +0.000 A 
ATOM     22  C   UNL     1      44.744   4.967  10.822  0.00  0.00    +0.000 A 
ATOM     23  C   UNL     1      44.278   3.854  11.498  0.00  0.00    +0.000 A 
ATOM     24  N   UNL     1      44.792   3.421  12.665  0.00  0.00    +0.000 NA
ATOM     25  C   UNL     1      45.816   4.146  13.181  0.00  0.00    +0.000 A 
ENDBRANCH  18  20
ENDBRANCH   1  14
TORSDOF 3
ENDMDL
MODEL 9
REMARK VINA RESULT:    -5.433      3.566      6.287
REMARK INTER + INTRA:          -7.265
REMARK INTER:                  -6.439
REMARK INTRA:                  -0.825
REMARK UNBOUND:                -0.879
REMARK  Name = 
REMARK  5 active torsions:
REMARK  status: ('A' for Active; 'I' for Inactive)
REMARK    1  A    between atoms: C_1  and  C_2
REMARK    2  A    between atoms: C_4  and  C_5
REMARK    3  A    between atoms: N_8  and  C_9
REMARK    4  A    between atoms: C_9  and  C_10
REMARK    5  A    between atoms: C_14  and  C_15
REMARK                            x       y       z     vdW  Elec       q    Type
REMARK                         _______ _______ _______ _____ _____    ______ ____
ROOT
ATOM      1  C   UNL     1      50.889   8.477  13.098  0.00  0.00    +0.000 C 
ATOM      2  C   UNL     1      51.847   8.728  14.263  0.00  0.00    +0.000 C 
ATOM      3  C   UNL     1      50.741   9.692  14.000  0.00  0.00    +0.000 C 
ENDROOT
BRANCH   1  11
ATOM      4  C   UNL     1      45.534   9.113  12.418  0.00  0.00    +0.000 C 
ATOM      5  C   UNL     1      46.464   7.979  12.726  0.00  0.00    +0.000 A 
ATOM      6  C   UNL     1      45.993   6.673  12.855  0.00  0.00    +0.000 A 
ATOM      7  C   UNL     1      46.906   5.660  13.123  0.00  0.00    +0.000 A 
ATOM      8  C   UNL     1      46.455   4.244  13.321  0.00  0.00    +0.000 C 
ATOM      9  N   UNL     1      48.237   5.884  13.229  0.00  0.00    +0.000 NA
ATOM     10  C   UNL     1      48.696   7.150  13.102  0.00  0.00    +0.000 A 
ATOM     11  N   UNL     1      50.071   7.280  13.244  0.00  0.00    +0.000 N 
ATOM     12  C   UNL     1      47.835   8.213  12.873  0.00  0.00    +0.000 A 
ATOM     13  H   UNL     1      50.498   6.363  13.314  0.00  0.00    +0.000 HD
ENDBRANCH   1  11
BRANCH   1  14
ATOM     14  C   UNL     1      51.384   8.762  11.680  0.00  0.00    +0.000 A 
ATOM     15  C   UNL     1      51.605  10.074  11.234  0.00  0.00    +0.000 A 
ATOM     16  C   UNL     1      52.186  10.334   9.994  0.00  0.00    +0.000 A 
ATOM     17  C   UNL     1      52.571   9.276   9.173  0.00  0.00    +0.000 A 
ATOM     18  C   UNL     1      52.361   7.944   9.560  0.00  0.00    +0.000 A 
ATOM     19  C   UNL     1      51.732   7.719  10.800  0.00  0.00    +0.000 A 
BRANCH  18  20
ATOM     20  C   UNL     1      52.852   6.817   8.746  0.00  0.00    +0.000 A 
ATOM     21  C   UNL     1      53.889   5.973   9.175  0.00  0.00    +0.000 A 
ATOM     22  C   UNL     1      54.370   4.960   8.345  0.00  0.00    +0.000 A 
ATOM     23  C   UNL     1      53.794   4.803   7.098  0.00  0.00    +0.000 A 
ATOM     24  N   UNL     1      52.793   5.577   6.636  0.00  0.00    +0.000 NA
ATOM     25  C   UNL     1      52.357   6.559   7.464  0.00  0.00    +0.000 A 
ENDBRANCH  18  20
ENDBRANCH   1  14
TORSDOF 3
ENDMDL
