MODEL 1
REMARK VINA RESULT:    -8.566      0.000      0.000
REMARK INTER + INTRA:         -12.695
REMARK INTER:                 -11.570
REMARK INTRA:                  -1.125
REMARK UNBOUND:                -1.125
REMARK  Name = 
REMARK  7 active torsions:
REMARK  status: ('A' for Active; 'I' for Inactive)
REMARK    1  A    between atoms: C_1  and  S_2
REMARK    2  A    between atoms: S_2  and  C_5
REMARK    3  A    between atoms: C_8  and  C_9
REMARK    4  A    between atoms: C_9  and  C_10
REMARK    5  A    between atoms: C_13  and  C_14
REMARK    6  A    between atoms: C_14  and  N_15
REMARK    7  A    between atoms: C_16  and  C_18
REMARK                            x       y       z     vdW  Elec       q    Type
REMARK                         _______ _______ _______ _____ _____    ______ ____
ROOT
ATOM      1  C   UNL     1      44.848   5.731  11.322  0.00  0.00    +0.000 A 
ATOM      2  C   UNL     1      44.595   7.109  11.372  0.00  0.00    +0.000 A 
ATOM      3  C   UNL     1      45.405   7.959  12.135  0.00  0.00    +0.000 A 
ATOM      4  C   UNL     1      46.488   7.449  12.862  0.00  0.00    +0.000 A 
ATOM      5  C   UNL     1      46.701   6.064  12.862  0.00  0.00    +0.000 A 
ATOM      6  C   UNL     1      45.898   5.215  12.094  0.00  0.00    +0.000 A 
ENDROOT
BRANCH   1   7
ATOM      7  C   UNL     1      44.026   4.827  10.430  0.00  0.00    +0.000 C 
BRANCH   7  11
ATOM      8  C   UNL     1      46.370   2.495   7.647  0.00  0.00    +0.000 A 
ATOM      9  C   UNL     1      45.606   1.847   8.622  0.00  0.00    +0.000 A 
ATOM     10  C   UNL     1      44.844   2.603   9.516  0.00  0.00    +0.000 A 
ATOM     11  C   UNL     1      44.848   4.006   9.455  0.00  0.00    +0.000 A 
ATOM     12  C   UNL     1      45.647   4.639   8.488  0.00  0.00    +0.000 A 
ATOM     13  C   UNL     1      46.408   3.890   7.586  0.00  0.00    +0.000 A 
BRANCH   8  15
ATOM     14  C   UNL     1      46.740   2.048   4.920  0.00  0.00    +0.000 C 
ATOM     15  S   UNL     1      47.340   1.534   6.509  0.00  0.00    +0.000 S 
ATOM     16  O   UNL     1      46.983   0.141   6.693  0.00  0.00    +0.000 OA
ATOM     17  O   UNL     1      48.720   1.970   6.629  0.00  0.00    +0.000 OA
ENDBRANCH   8  15
ENDBRANCH   7  11
ENDBRANCH   1   7
BRANCH   4  18
ATOM     18  C   UNL     1      47.411   8.359  13.631  0.00  0.00    +0.000 C 
BRANCH  18  19
ATOM     19  N   UNL     1      47.711   7.839  14.941  0.00  0.00    +0.000 N 
ATOM     20  C   UNL     1      48.876   7.159  15.187  0.00  0.00    +0.000 C 
ATOM     21  O   UNL     1      49.729   6.987  14.318  0.00  0.00    +0.000 OA
ATOM     22  H   UNL     1      46.931   7.738  15.584  0.00  0.00    +0.000 HD
BRANCH  20  23
ATOM     23  C   UNL     1      49.086   6.693  16.564  0.00  0.00    +0.000 A 
ATOM     24  C   UNL     1      49.685   7.532  17.494  0.00  0.00    +0.000 A 
ATOM     25  S   UNL     1      49.813   6.846  19.051  0.00  0.00    +0.000 S 
ATOM     26  C   UNL     1      49.120   5.387  18.523  0.00  0.00    +0.000 A 
ATOM     27  N   UNL     1      48.967   4.334  19.375  0.00  0.00    +0.000 NA
ATOM     28  C   UNL     1      48.451   3.280  18.833  0.00  0.00    +0.000 A 
ATOM     29  N   UNL     1      48.067   3.185  17.521  0.00  0.00    +0.000 N 
ATOM     30  C   UNL     1      48.178   4.225  16.633  0.00  0.00    +0.000 A 
ATOM     31  O   UNL     1      47.785   4.119  15.474  0.00  0.00    +0.000 OA
ATOM     32  C   UNL     1      48.768   5.430  17.185  0.00  0.00    +0.000 A 
ATOM     33  H   UNL     1      47.657   2.335  17.161  0.00  0.00    +0.000 HD
ENDBRANCH  20  23
ENDBRANCH  18  19
ENDBRANCH   4  18
TORSDOF 6
ENDMDL
MODEL 2
REMARK VINA RESULT:    -7.898      1.036      1.662
REMARK INTER + INTRA:         -11.794
REMARK INTER:                 -10.537
REMARK INTRA:                  -1.256
REMARK UNBOUND:                -1.125
REMARK  Name = 
REMARK  7 active torsions:
REMARK  status: ('A' for Active; 'I' for Inactive)
REMARK    1  A    between atoms: C_1  and  S_2
REMARK    2  A    between atoms: S_2  and  C_5
REMARK    3  A    between atoms: C_8  and  C_9
REMARK    4  A    between atoms: C_9  and  C_10
REMARK    5  A    between atoms: C_13  and  C_14
REMARK    6  A    between atoms: C_14  and  N_15
REMARK    7  A    between atoms: C_16  and  C_18
REMARK                            x       y       z     vdW  Elec       q    Type
REMARK                         _______ _______ _______ _____ _____    ______ ____
ROOT
ATOM      1  C   UNL     1      45.071   5.981  11.318  0.00  0.00    +0.000 A 
ATOM      2  C   UNL     1      46.194   5.567  12.049  0.00  0.00    +0.000 A 
ATOM      3  C   UNL     1      46.939   6.485  12.800  0.00  0.00    +0.000 A 
ATOM      4  C   UNL     1      46.574   7.837  12.837  0.00  0.00    +0.000 A 
ATOM      5  C   UNL     1      45.490   8.260  12.057  0.00  0.00    +0.000 A 
ATOM      6  C   UNL     1      44.740   7.343  11.314  0.00  0.00    +0.000 A 
ENDROOT
BRANCH   1   7
ATOM      7  C   UNL     1      44.217   4.974  10.580  0.00  0.00    +0.000 C 
BRANCH   7  11
ATOM      8  C   UNL     1      46.392   2.564   7.728  0.00  0.00    +0.000 A 
ATOM      9  C   UNL     1      46.472   3.957   7.660  0.00  0.00    +0.000 A 
ATOM     10  C   UNL     1      45.773   4.735   8.587  0.00  0.00    +0.000 A 
ATOM     11  C   UNL     1      44.981   4.131   9.577  0.00  0.00    +0.000 A 
ATOM     12  C   UNL     1      44.889   2.729   9.609  0.00  0.00    +0.000 A 
ATOM     13  C   UNL     1      45.590   1.945   8.689  0.00  0.00    +0.000 A 
BRANCH   8  15
ATOM     14  C   UNL     1      46.650   2.131   4.986  0.00  0.00    +0.000 C 
ATOM     15  S   UNL     1      47.280   1.574   6.549  0.00  0.00    +0.000 S 
ATOM     16  O   UNL     1      46.869   0.195   6.731  0.00  0.00    +0.000 OA
ATOM     17  O   UNL     1      48.681   1.949   6.625  0.00  0.00    +0.000 OA
ENDBRANCH   8  15
ENDBRANCH   7  11
ENDBRANCH   1   7
BRANCH   4  18
ATOM     18  C   UNL     1      47.323   8.825  13.696  0.00  0.00    +0.000 C 
BRANCH  18  19
ATOM     19  N   UNL     1      47.579   8.305  15.015  0.00  0.00    +0.000 N 
ATOM     20  C   UNL     1      48.602   8.793  15.786  0.00  0.00    +0.000 C 
ATOM     21  O   UNL     1      49.327   9.711  15.406  0.00  0.00    +0.000 OA
ATOM     22  H   UNL     1      47.179   7.398  15.236  0.00  0.00    +0.000 HD
BRANCH  20  23
ATOM     23  C   UNL     1      48.757   8.204  17.122  0.00  0.00    +0.000 A 
ATOM     24  C   UNL     1      48.779   9.024  18.242  0.00  0.00    +0.000 A 
ATOM     25  S   UNL     1      48.923   8.171  19.712  0.00  0.00    +0.000 S 
ATOM     26  C   UNL     1      49.013   6.681  18.901  0.00  0.00    +0.000 A 
ATOM     27  N   UNL     1      49.180   5.516  19.588  0.00  0.00    +0.000 NA
ATOM     28  C   UNL     1      49.257   4.464  18.842  0.00  0.00    +0.000 A 
ATOM     29  N   UNL     1      49.175   4.466  17.475  0.00  0.00    +0.000 N 
ATOM     30  C   UNL     1      48.981   5.610  16.741  0.00  0.00    +0.000 A 
ATOM     31  O   UNL     1      48.871   5.573  15.519  0.00  0.00    +0.000 OA
ATOM     32  C   UNL     1      48.904   6.826  17.528  0.00  0.00    +0.000 A 
ATOM     33  H   UNL     1      49.230   3.607  16.949  0.00  0.00    +0.000 HD
ENDBRANCH  20  23
ENDBRANCH  18  19
ENDBRANCH   4  18
TORSDOF 6
ENDMDL
MODEL 3
REMARK VINA RESULT:    -7.630      1.678      2.085
REMARK INTER + INTRA:         -11.432
REMARK INTER:                 -10.350
REMARK INTRA:                  -1.081
REMARK UNBOUND:                -1.125
REMARK  Name = 
REMARK  7 active torsions:
REMARK  status: ('A' for Active; 'I' for Inactive)
REMARK    1  A    between atoms: C_1  and  S_2
REMARK    2  A    between atoms: S_2  and  C_5
REMARK    3  A    between atoms: C_8  and  C_9
REMARK    4  A    between atoms: C_9  and  C_10
REMARK    5  A    between atoms: C_13  and  C_14
REMARK    6  A    between atoms: C_14  and  N_15
REMARK    7  A    between atoms: C_16  and  C_18
REMARK                            x       y       z     vdW  Elec       q    Type
REMARK                         _______ _______ _______ _____ _____    ______ ____
ROOT
ATOM      1  C   UNL     1      44.995   5.449  11.420  0.00  0.00    +0.000 A 
ATOM      2  C   UNL     1      45.077   6.848  11.369  0.00  0.00    +0.000 A 
ATOM      3  C   UNL     1      45.924   7.548  12.236  0.00  0.00    +0.000 A 
ATOM      4  C   UNL     1      46.710   6.863  13.172  0.00  0.00    +0.000 A 
ATOM      5  C   UNL     1      46.580   5.471  13.265  0.00  0.00    +0.000 A 
ATOM      6  C   UNL     1      45.741   4.770  12.393  0.00  0.00    +0.000 A 
ENDROOT
BRANCH   1   7
ATOM      7  C   UNL     1      44.147   4.689  10.424  0.00  0.00    +0.000 C 
BRANCH   7  11
ATOM      8  C   UNL     1      46.424   2.415   7.541  0.00  0.00    +0.000 A 
ATOM      9  C   UNL     1      45.675   1.746   8.513  0.00  0.00    +0.000 A 
ATOM     10  C   UNL     1      44.934   2.485   9.441  0.00  0.00    +0.000 A 
ATOM     11  C   UNL     1      44.945   3.888   9.414  0.00  0.00    +0.000 A 
ATOM     12  C   UNL     1      45.729   4.541   8.448  0.00  0.00    +0.000 A 
ATOM     13  C   UNL     1      46.468   3.810   7.513  0.00  0.00    +0.000 A 
BRANCH   8  15
ATOM     14  C   UNL     1      46.717   2.010   4.798  0.00  0.00    +0.000 C 
ATOM     15  S   UNL     1      47.366   1.477   6.361  0.00  0.00    +0.000 S 
ATOM     16  O   UNL     1      47.023   0.079   6.534  0.00  0.00    +0.000 OA
ATOM     17  O   UNL     1      48.746   1.920   6.447  0.00  0.00    +0.000 OA
ENDBRANCH   8  15
ENDBRANCH   7  11
ENDBRANCH   1   7
BRANCH   4  18
ATOM     18  C   UNL     1      47.679   7.596  14.065  0.00  0.00    +0.000 C 
BRANCH  18  19
ATOM     19  N   UNL     1      48.225   6.737  15.086  0.00  0.00    +0.000 N 
ATOM     20  C   UNL     1      48.850   7.254  16.191  0.00  0.00    +0.000 C 
ATOM     21  O   UNL     1      48.948   8.465  16.380  0.00  0.00    +0.000 OA
ATOM     22  H   UNL     1      48.388   5.768  14.830  0.00  0.00    +0.000 HD
BRANCH  20  23
ATOM     23  C   UNL     1      49.348   6.286  17.176  0.00  0.00    +0.000 A 
ATOM     24  C   UNL     1      48.471   5.711  18.086  0.00  0.00    +0.000 A 
ATOM     25  S   UNL     1      49.211   4.580  19.127  0.00  0.00    +0.000 S 
ATOM     26  C   UNL     1      50.737   4.859  18.434  0.00  0.00    +0.000 A 
ATOM     27  N   UNL     1      51.846   4.218  18.898  0.00  0.00    +0.000 NA
ATOM     28  C   UNL     1      52.942   4.545  18.296  0.00  0.00    +0.000 A 
ATOM     29  N   UNL     1      53.030   5.447  17.268  0.00  0.00    +0.000 N 
ATOM     30  C   UNL     1      51.938   6.097  16.750  0.00  0.00    +0.000 A 
ATOM     31  O   UNL     1      52.046   6.868  15.801  0.00  0.00    +0.000 OA
ATOM     32  C   UNL     1      50.681   5.779  17.402  0.00  0.00    +0.000 A 
ATOM     33  H   UNL     1      53.916   5.650  16.831  0.00  0.00    +0.000 HD
ENDBRANCH  20  23
ENDBRANCH  18  19
ENDBRANCH   4  18
TORSDOF 6
ENDMDL
MODEL 4
REMARK VINA RESULT:    -6.826      1.935      2.757
REMARK INTER + INTRA:         -10.346
REMARK INTER:                  -9.195
REMARK INTRA:                  -1.151
REMARK UNBOUND:                -1.125
REMARK  Name = 
REMARK  7 active torsions:
REMARK  status: ('A' for Active; 'I' for Inactive)
REMARK    1  A    between atoms: C_1  and  S_2
REMARK    2  A    between atoms: S_2  and  C_5
REMARK    3  A    between atoms: C_8  and  C_9
REMARK    4  A    between atoms: C_9  and  C_10
REMARK    5  A    between atoms: C_13  and  C_14
REMARK    6  A    between atoms: C_14  and  N_15
REMARK    7  A    between atoms: C_16  and  C_18
REMARK                            x       y       z     vdW  Elec       q    Type
REMARK                         _______ _______ _______ _____ _____    ______ ____
ROOT
ATOM      1  C   UNL     1      45.609   5.339  11.686  0.00  0.00    +0.000 A 
ATOM      2  C   UNL     1      46.085   4.699  12.839  0.00  0.00    +0.000 A 
ATOM      3  C   UNL     1      46.959   5.356  13.714  0.00  0.00    +0.000 A 
ATOM      4  C   UNL     1      47.373   6.669  13.455  0.00  0.00    +0.000 A 
ATOM      5  C   UNL     1      46.947   7.284  12.271  0.00  0.00    +0.000 A 
ATOM      6  C   UNL     1      46.067   6.632  11.401  0.00  0.00    +0.000 A 
ENDROOT
BRANCH   1   7
ATOM      7  C   UNL     1      44.597   4.660  10.790  0.00  0.00    +0.000 C 
BRANCH   7  11
ATOM      8  C   UNL     1      46.341   2.486   7.487  0.00  0.00    +0.000 A 
ATOM      9  C   UNL     1      46.387   3.883   7.497  0.00  0.00    +0.000 A 
ATOM     10  C   UNL     1      45.827   4.584   8.570  0.00  0.00    +0.000 A 
ATOM     11  C   UNL     1      45.210   3.900   9.629  0.00  0.00    +0.000 A 
ATOM     12  C   UNL     1      45.147   2.497   9.585  0.00  0.00    +0.000 A 
ATOM     13  C   UNL     1      45.709   1.789   8.519  0.00  0.00    +0.000 A 
BRANCH   8  15
ATOM     14  C   UNL     1      48.746   2.120   6.126  0.00  0.00    +0.000 C 
ATOM     15  S   UNL     1      47.052   1.594   6.124  0.00  0.00    +0.000 S 
ATOM     16  O   UNL     1      46.433   2.083   4.907  0.00  0.00    +0.000 OA
ATOM     17  O   UNL     1      47.022   0.182   6.458  0.00  0.00    +0.000 OA
ENDBRANCH   8  15
ENDBRANCH   7  11
ENDBRANCH   1   7
BRANCH   4  18
ATOM     18  C   UNL     1      48.258   7.414  14.423  0.00  0.00    +0.000 C 
BRANCH  18  19
ATOM     19  N   UNL     1      48.087   6.949  15.775  0.00  0.00    +0.000 N 
ATOM     20  C   UNL     1      49.135   6.415  16.482  0.00  0.00    +0.000 C 
ATOM     21  O   UNL     1      50.268   6.336  16.010  0.00  0.00    +0.000 OA
ATOM     22  H   UNL     1      47.136   6.763  16.080  0.00  0.00    +0.000 HD
BRANCH  20  23
ATOM     23  C   UNL     1      48.851   5.993  17.859  0.00  0.00    +0.000 A 
ATOM     24  C   UNL     1      49.037   4.668  18.229  0.00  0.00    +0.000 A 
ATOM     25  S   UNL     1      48.700   4.363  19.873  0.00  0.00    +0.000 S 
ATOM     26  C   UNL     1      48.244   5.979  20.135  0.00  0.00    +0.000 A 
ATOM     27  N   UNL     1      47.803   6.395  21.355  0.00  0.00    +0.000 NA
ATOM     28  C   UNL     1      47.466   7.641  21.403  0.00  0.00    +0.000 A 
ATOM     29  N   UNL     1      47.537   8.512  20.348  0.00  0.00    +0.000 N 
ATOM     30  C   UNL     1      47.998   8.146  19.108  0.00  0.00    +0.000 A 
ATOM     31  O   UNL     1      48.088   8.962  18.195  0.00  0.00    +0.000 OA
ATOM     32  C   UNL     1      48.375   6.750  18.993  0.00  0.00    +0.000 A 
ATOM     33  H   UNL     1      47.270   9.479  20.454  0.00  0.00    +0.000 HD
ENDBRANCH  20  23
ENDBRANCH  18  19
ENDBRANCH   4  18
TORSDOF 6
ENDMDL
MODEL 5
REMARK VINA RESULT:    -6.569      3.215      4.498
REMARK INTER + INTRA:          -9.998
REMARK INTER:                  -8.930
REMARK INTRA:                  -1.068
REMARK UNBOUND:                -1.125
REMARK  Name = 
REMARK  7 active torsions:
REMARK  status: ('A' for Active; 'I' for Inactive)
REMARK    1  A    between atoms: C_1  and  S_2
REMARK    2  A    between atoms: S_2  and  C_5
REMARK    3  A    between atoms: C_8  and  C_9
REMARK    4  A    between atoms: C_9  and  C_10
REMARK    5  A    between atoms: C_13  and  C_14
REMARK    6  A    between atoms: C_14  and  N_15
REMARK    7  A    between atoms: C_16  and  C_18
REMARK                            x       y       z     vdW  Elec       q    Type
REMARK                         _______ _______ _______ _____ _____    ______ ____
ROOT
ATOM      1  C   UNL     1      44.747   5.858  11.246  0.00  0.00    +0.000 A 
ATOM      2  C   UNL     1      45.899   5.456  11.934  0.00  0.00    +0.000 A 
ATOM      3  C   UNL     1      46.615   6.363  12.726  0.00  0.00    +0.000 A 
ATOM      4  C   UNL     1      46.190   7.693  12.846  0.00  0.00    +0.000 A 
ATOM      5  C   UNL     1      45.075   8.109  12.108  0.00  0.00    +0.000 A 
ATOM      6  C   UNL     1      44.355   7.201  11.324  0.00  0.00    +0.000 A 
ENDROOT
BRANCH   1   7
ATOM      7  C   UNL     1      43.926   4.857  10.463  0.00  0.00    +0.000 C 
BRANCH   7  11
ATOM      8  C   UNL     1      46.243   2.423   7.745  0.00  0.00    +0.000 A 
ATOM      9  C   UNL     1      45.508   1.813   8.765  0.00  0.00    +0.000 A 
ATOM     10  C   UNL     1      44.755   2.602   9.639  0.00  0.00    +0.000 A 
ATOM     11  C   UNL     1      44.739   4.000   9.511  0.00  0.00    +0.000 A 
ATOM     12  C   UNL     1      45.508   4.596   8.497  0.00  0.00    +0.000 A 
ATOM     13  C   UNL     1      46.260   3.813   7.616  0.00  0.00    +0.000 A 
BRANCH   8  15
ATOM     14  C   UNL     1      46.923  -0.230   7.222  0.00  0.00    +0.000 C 
ATOM     15  S   UNL     1      47.201   1.421   6.633  0.00  0.00    +0.000 S 
ATOM     16  O   UNL     1      48.600   1.741   6.846  0.00  0.00    +0.000 OA
ATOM     17  O   UNL     1      46.605   1.532   5.314  0.00  0.00    +0.000 OA
ENDBRANCH   8  15
ENDBRANCH   7  11
ENDBRANCH   1   7
BRANCH   4  18
ATOM     18  C   UNL     1      46.908   8.664  13.749  0.00  0.00    +0.000 C 
BRANCH  18  19
ATOM     19  N   UNL     1      48.306   8.342  13.881  0.00  0.00    +0.000 N 
ATOM     20  C   UNL     1      49.274   9.302  13.730  0.00  0.00    +0.000 C 
ATOM     21  O   UNL     1      48.998  10.479  13.507  0.00  0.00    +0.000 OA
ATOM     22  H   UNL     1      48.561   7.362  13.801  0.00  0.00    +0.000 HD
BRANCH  20  23
ATOM     23  C   UNL     1      50.665   8.865  13.907  0.00  0.00    +0.000 A 
ATOM     24  C   UNL     1      51.084   8.372  15.136  0.00  0.00    +0.000 A 
ATOM     25  S   UNL     1      52.715   7.873  15.152  0.00  0.00    +0.000 S 
ATOM     26  C   UNL     1      52.932   8.346  13.535  0.00  0.00    +0.000 A 
ATOM     27  N   UNL     1      54.142   8.219  12.923  0.00  0.00    +0.000 NA
ATOM     28  C   UNL     1      54.170   8.642  11.702  0.00  0.00    +0.000 A 
ATOM     29  N   UNL     1      53.097   9.171  11.034  0.00  0.00    +0.000 N 
ATOM     30  C   UNL     1      51.852   9.294  11.600  0.00  0.00    +0.000 A 
ATOM     31  O   UNL     1      50.902   9.735  10.959  0.00  0.00    +0.000 OA
ATOM     32  C   UNL     1      51.769   8.850  12.978  0.00  0.00    +0.000 A 
ATOM     33  H   UNL     1      53.180   9.472  10.074  0.00  0.00    +0.000 HD
ENDBRANCH  20  23
ENDBRANCH  18  19
ENDBRANCH   4  18
TORSDOF 6
ENDMDL
MODEL 6
REMARK VINA RESULT:    -6.176      3.552      4.176
REMARK INTER + INTRA:          -9.467
REMARK INTER:                  -8.487
REMARK INTRA:                  -0.980
REMARK UNBOUND:                -1.125
REMARK  Name = 
REMARK  7 active torsions:
REMARK  status: ('A' for Active; 'I' for Inactive)
REMARK    1  A    between atoms: C_1  and  S_2
REMARK    2  A    between atoms: S_2  and  C_5
REMARK    3  A    between atoms: C_8  and  C_9
REMARK    4  A    between atoms: C_9  and  C_10
REMARK    5  A    between atoms: C_13  and  C_14
REMARK    6  A    between atoms: C_14  and  N_15
REMARK    7  A    between atoms: C_16  and  C_18
REMARK                            x       y       z     vdW  Elec       q    Type
REMARK                         _______ _______ _______ _____ _____    ______ ____
ROOT
ATOM      1  C   UNL     1      44.651   5.823  11.224  0.00  0.00    +0.000 A 
ATOM      2  C   UNL     1      45.901   5.510  11.775  0.00  0.00    +0.000 A 
ATOM      3  C   UNL     1      46.603   6.451  12.539  0.00  0.00    +0.000 A 
ATOM      4  C   UNL     1      46.067   7.725  12.770  0.00  0.00    +0.000 A 
ATOM      5  C   UNL     1      44.847   8.057  12.166  0.00  0.00    +0.000 A 
ATOM      6  C   UNL     1      44.141   7.115  11.410  0.00  0.00    +0.000 A 
ENDROOT
BRANCH   1   7
ATOM      7  C   UNL     1      43.855   4.777  10.474  0.00  0.00    +0.000 C 
BRANCH   7  11
ATOM      8  C   UNL     1      46.219   2.362   7.781  0.00  0.00    +0.000 A 
ATOM      9  C   UNL     1      45.476   1.746   8.792  0.00  0.00    +0.000 A 
ATOM     10  C   UNL     1      44.707   2.529   9.658  0.00  0.00    +0.000 A 
ATOM     11  C   UNL     1      44.684   3.927   9.531  0.00  0.00    +0.000 A 
ATOM     12  C   UNL     1      45.462   4.529   8.528  0.00  0.00    +0.000 A 
ATOM     13  C   UNL     1      46.229   3.752   7.654  0.00  0.00    +0.000 A 
BRANCH   8  15
ATOM     14  C   UNL     1      46.958  -0.281   7.292  0.00  0.00    +0.000 C 
ATOM     15  S   UNL     1      47.197   1.367   6.680  0.00  0.00    +0.000 S 
ATOM     16  O   UNL     1      48.588   1.722   6.883  0.00  0.00    +0.000 OA
ATOM     17  O   UNL     1      46.594   1.446   5.361  0.00  0.00    +0.000 OA
ENDBRANCH   8  15
ENDBRANCH   7  11
ENDBRANCH   1   7
BRANCH   4  18
ATOM     18  C   UNL     1      46.776   8.725  13.647  0.00  0.00    +0.000 C 
BRANCH  18  19
ATOM     19  N   UNL     1      48.206   8.548  13.616  0.00  0.00    +0.000 N 
ATOM     20  C   UNL     1      49.049   9.606  13.394  0.00  0.00    +0.000 C 
ATOM     21  O   UNL     1      48.632  10.753  13.241  0.00  0.00    +0.000 OA
ATOM     22  H   UNL     1      48.548   7.602  13.476  0.00  0.00    +0.000 HD
BRANCH  20  23
ATOM     23  C   UNL     1      50.488   9.313  13.405  0.00  0.00    +0.000 A 
ATOM     24  C   UNL     1      51.114   8.878  12.245  0.00  0.00    +0.000 A 
ATOM     25  S   UNL     1      52.791   8.625  12.426  0.00  0.00    +0.000 S 
ATOM     26  C   UNL     1      52.730   9.038  14.073  0.00  0.00    +0.000 A 
ATOM     27  N   UNL     1      53.848   8.995  14.850  0.00  0.00    +0.000 NA
ATOM     28  C   UNL     1      53.650   9.309  16.088  0.00  0.00    +0.000 A 
ATOM     29  N   UNL     1      52.440   9.670  16.619  0.00  0.00    +0.000 N 
ATOM     30  C   UNL     1      51.292   9.753  15.871  0.00  0.00    +0.000 A 
ATOM     31  O   UNL     1      50.231  10.120  16.370  0.00  0.00    +0.000 OA
ATOM     32  C   UNL     1      51.453   9.394  14.475  0.00  0.00    +0.000 A 
ATOM     33  H   UNL     1      52.353   9.917  17.593  0.00  0.00    +0.000 HD
ENDBRANCH  20  23
ENDBRANCH  18  19
ENDBRANCH   4  18
TORSDOF 6
ENDMDL
MODEL 7
REMARK VINA RESULT:    -5.991      3.836      5.919
REMARK INTER + INTRA:          -9.217
REMARK INTER:                  -8.029
REMARK INTRA:                  -1.188
REMARK UNBOUND:                -1.125
REMARK  Name = 
REMARK  7 active torsions:
REMARK  status: ('A' for Active; 'I' for Inactive)
REMARK    1  A    between atoms: C_1  and  S_2
REMARK    2  A    between atoms: S_2  and  C_5
REMARK    3  A    between atoms: C_8  and  C_9
REMARK    4  A    between atoms: C_9  and  C_10
REMARK    5  A    between atoms: C_13  and  C_14
REMARK    6  A    between atoms: C_14  and  N_15
REMARK    7  A    between atoms: C_16  and  C_18
REMARK                            x       y       z     vdW  Elec       q    Type
REMARK                         _______ _______ _______ _____ _____    ______ ____
ROOT
ATOM      1  C   UNL     1      44.881   5.637  11.536  0.00  0.00    +0.000 A 
ATOM      2  C   UNL     1      45.959   5.323  12.375  0.00  0.00    +0.000 A 
ATOM      3  C   UNL     1      46.662   6.331  13.046  0.00  0.00    +0.000 A 
ATOM      4  C   UNL     1      46.299   7.676  12.894  0.00  0.00    +0.000 A 
ATOM      5  C   UNL     1      45.263   7.993  12.006  0.00  0.00    +0.000 A 
ATOM      6  C   UNL     1      44.555   6.987  11.342  0.00  0.00    +0.000 A 
ENDROOT
BRANCH   1   7
ATOM      7  C   UNL     1      44.068   4.543  10.881  0.00  0.00    +0.000 C 
BRANCH   7  11
ATOM      8  C   UNL     1      46.128   2.473   7.696  0.00  0.00    +0.000 A 
ATOM      9  C   UNL     1      46.106   3.870   7.712  0.00  0.00    +0.000 A 
ATOM     10  C   UNL     1      45.444   4.537   8.747  0.00  0.00    +0.000 A 
ATOM     11  C   UNL     1      44.791   3.819   9.761  0.00  0.00    +0.000 A 
ATOM     12  C   UNL     1      44.799   2.415   9.710  0.00  0.00    +0.000 A 
ATOM     13  C   UNL     1      45.463   1.740   8.681  0.00  0.00    +0.000 A 
BRANCH   8  15
ATOM     14  C   UNL     1      48.627   2.246   6.481  0.00  0.00    +0.000 C 
ATOM     15  S   UNL     1      46.968   1.623   6.380  0.00  0.00    +0.000 S 
ATOM     16  O   UNL     1      46.397   2.076   5.126  0.00  0.00    +0.000 OA
ATOM     17  O   UNL     1      47.000   0.212   6.716  0.00  0.00    +0.000 OA
ENDBRANCH   8  15
ENDBRANCH   7  11
ENDBRANCH   1   7
BRANCH   4  18
ATOM     18  C   UNL     1      47.000   8.767  13.664  0.00  0.00    +0.000 C 
BRANCH  18  19
ATOM     19  N   UNL     1      48.087   9.341  12.913  0.00  0.00    +0.000 N 
ATOM     20  C   UNL     1      48.937  10.257  13.478  0.00  0.00    +0.000 C 
ATOM     21  O   UNL     1      48.833  10.608  14.652  0.00  0.00    +0.000 OA
ATOM     22  H   UNL     1      48.033   9.271  11.900  0.00  0.00    +0.000 HD
BRANCH  20  23
ATOM     23  C   UNL     1      50.023  10.759  12.625  0.00  0.00    +0.000 A 
ATOM     24  C   UNL     1      51.329  10.751  13.094  0.00  0.00    +0.000 A 
ATOM     25  S   UNL     1      52.465  11.329  11.960  0.00  0.00    +0.000 S 
ATOM     26  C   UNL     1      51.245  11.658  10.825  0.00  0.00    +0.000 A 
ATOM     27  N   UNL     1      51.542  12.214   9.616  0.00  0.00    +0.000 NA
ATOM     28  C   UNL     1      50.514  12.433   8.864  0.00  0.00    +0.000 A 
ATOM     29  N   UNL     1      49.220  12.141   9.203  0.00  0.00    +0.000 N 
ATOM     30  C   UNL     1      48.875  11.557  10.397  0.00  0.00    +0.000 A 
ATOM     31  O   UNL     1      47.709  11.270  10.653  0.00  0.00    +0.000 OA
ATOM     32  C   UNL     1      49.990  11.305  11.290  0.00  0.00    +0.000 A 
ATOM     33  H   UNL     1      48.461  12.325   8.564  0.00  0.00    +0.000 HD
ENDBRANCH  20  23
ENDBRANCH  18  19
ENDBRANCH   4  18
TORSDOF 6
ENDMDL
MODEL 8
REMARK VINA RESULT:    -5.969      3.594      5.481
REMARK INTER + INTRA:          -9.188
REMARK INTER:                  -7.946
REMARK INTRA:                  -1.243
REMARK UNBOUND:                -1.125
REMARK  Name = 
REMARK  7 active torsions:
REMARK  status: ('A' for Active; 'I' for Inactive)
REMARK    1  A    between atoms: C_1  and  S_2
REMARK    2  A    between atoms: S_2  and  C_5
REMARK    3  A    between atoms: C_8  and  C_9
REMARK    4  A    between atoms: C_9  and  C_10
REMARK    5  A    between atoms: C_13  and  C_14
REMARK    6  A    between atoms: C_14  and  N_15
REMARK    7  A    between atoms: C_16  and  C_18
REMARK                            x       y       z     vdW  Elec       q    Type
REMARK                         _______ _______ _______ _____ _____    ______ ____
ROOT
ATOM      1  C   UNL     1      44.994   5.522  11.538  0.00  0.00    +0.000 A 
ATOM      2  C   UNL     1      45.945   5.146  12.496  0.00  0.00    +0.000 A 
ATOM      3  C   UNL     1      46.669   6.113  13.205  0.00  0.00    +0.000 A 
ATOM      4  C   UNL     1      46.455   7.477  12.971  0.00  0.00    +0.000 A 
ATOM      5  C   UNL     1      45.550   7.851  11.969  0.00  0.00    +0.000 A 
ATOM      6  C   UNL     1      44.820   6.886  11.267  0.00  0.00    +0.000 A 
ENDROOT
BRANCH   1   7
ATOM      7  C   UNL     1      44.151   4.480  10.836  0.00  0.00    +0.000 C 
BRANCH   7  11
ATOM      8  C   UNL     1      46.178   2.444   7.608  0.00  0.00    +0.000 A 
ATOM      9  C   UNL     1      46.164   3.841   7.645  0.00  0.00    +0.000 A 
ATOM     10  C   UNL     1      45.513   4.497   8.694  0.00  0.00    +0.000 A 
ATOM     11  C   UNL     1      44.862   3.769   9.702  0.00  0.00    +0.000 A 
ATOM     12  C   UNL     1      44.862   2.365   9.630  0.00  0.00    +0.000 A 
ATOM     13  C   UNL     1      45.515   1.702   8.588  0.00  0.00    +0.000 A 
BRANCH   8  15
ATOM     14  C   UNL     1      48.670   2.214   6.380  0.00  0.00    +0.000 C 
ATOM     15  S   UNL     1      47.005   1.609   6.275  0.00  0.00    +0.000 S 
ATOM     16  O   UNL     1      46.433   2.088   5.032  0.00  0.00    +0.000 OA
ATOM     17  O   UNL     1      47.023   0.191   6.587  0.00  0.00    +0.000 OA
ENDBRANCH   8  15
ENDBRANCH   7  11
ENDBRANCH   1   7
BRANCH   4  18
ATOM     18  C   UNL     1      47.175   8.530  13.775  0.00  0.00    +0.000 C 
BRANCH  18  19
ATOM     19  N   UNL     1      48.282   9.097  13.048  0.00  0.00    +0.000 N 
ATOM     20  C   UNL     1      49.537   8.549  13.122  0.00  0.00    +0.000 C 
ATOM     21  O   UNL     1      49.771   7.538  13.782  0.00  0.00    +0.000 OA
ATOM     22  H   UNL     1      48.176  10.054  12.723  0.00  0.00    +0.000 HD
BRANCH  20  23
ATOM     23  C   UNL     1      50.584   9.197  12.323  0.00  0.00    +0.000 A 
ATOM     24  C   UNL     1      51.265   8.470  11.355  0.00  0.00    +0.000 A 
ATOM     25  S   UNL     1      52.417   9.388  10.494  0.00  0.00    +0.000 S 
ATOM     26  C   UNL     1      52.083  10.773  11.419  0.00  0.00    +0.000 A 
ATOM     27  N   UNL     1      52.764  11.935  11.214  0.00  0.00    +0.000 NA
ATOM     28  C   UNL     1      52.426  12.899  12.005  0.00  0.00    +0.000 A 
ATOM     29  N   UNL     1      51.464  12.811  12.977  0.00  0.00    +0.000 N 
ATOM     30  C   UNL     1      50.734  11.671  13.203  0.00  0.00    +0.000 A 
ATOM     31  O   UNL     1      49.850  11.639  14.055  0.00  0.00    +0.000 OA
ATOM     32  C   UNL     1      51.085  10.550  12.353  0.00  0.00    +0.000 A 
ATOM     33  H   UNL     1      51.236  13.606  13.555  0.00  0.00    +0.000 HD
ENDBRANCH  20  23
ENDBRANCH  18  19
ENDBRANCH   4  18
TORSDOF 6
ENDMDL
