MODEL 1
REMARK VINA RESULT:    -7.946      0.000      0.000
REMARK INTER + INTRA:         -11.049
REMARK INTER:                 -10.269
REMARK INTRA:                  -0.780
REMARK UNBOUND:                -0.780
REMARK  Name = 
REMARK  5 active torsions:
REMARK  status: ('A' for Active; 'I' for Inactive)
REMARK    1  A    between atoms: C_2  and  C_4
REMARK    2  A    between atoms: C_8  and  N_9
REMARK    3  A    between atoms: N_9  and  C_10
REMARK    4  A    between atoms: C_10  and  C_11
REMARK    5  A    between atoms: C_15  and  N_16
REMARK                            x       y       z     vdW  Elec       q    Type
REMARK                         _______ _______ _______ _____ _____    ______ ____
ROOT
ATOM      1  N   UNL     1      43.967   3.203  10.327  0.00  0.00    +0.000 N 
ATOM      2  H   UNL     1      43.943   2.331  10.854  0.00  0.00    +0.000 HD
ENDROOT
BRANCH   1   7
ATOM      3  C   UNL     1      46.415   2.075   7.751  0.00  0.00    +0.000 A 
ATOM      4  C   UNL     1      46.736   3.312   7.218  0.00  0.00    +0.000 A 
ATOM      5  N   UNL     1      46.155   4.466   7.619  0.00  0.00    +0.000 NA
ATOM      6  C   UNL     1      45.236   4.366   8.615  0.00  0.00    +0.000 A 
ATOM      7  C   UNL     1      44.839   3.175   9.237  0.00  0.00    +0.000 A 
ATOM      8  C   UNL     1      45.479   2.017   8.790  0.00  0.00    +0.000 A 
BRANCH   3  10
ATOM      9  N   UNL     1      47.817   1.012   6.081  0.00  0.00    +0.000 N 
ATOM     10  C   UNL     1      47.078   0.868   7.224  0.00  0.00    +0.000 C 
ATOM     11  O   UNL     1      47.011  -0.207   7.804  0.00  0.00    +0.000 OA
ATOM     12  H   UNL     1      48.358   0.207   5.796  0.00  0.00    +0.000 HD
ATOM     13  H   UNL     1      48.111   1.917   5.737  0.00  0.00    +0.000 HD
ENDBRANCH   3  10
ENDBRANCH   1   7
BRANCH   1  14
ATOM     14  C   UNL     1      43.843   4.402  11.142  0.00  0.00    +0.000 C 
BRANCH  14  15
ATOM     15  C   UNL     1      45.021   4.546  12.059  0.00  0.00    +0.000 A 
ATOM     16  C   UNL     1      45.498   3.472  12.794  0.00  0.00    +0.000 A 
ATOM     17  N   UNL     1      46.543   3.551  13.643  0.00  0.00    +0.000 NA
ATOM     18  C   UNL     1      47.145   4.765  13.752  0.00  0.00    +0.000 A 
ATOM     19  C   UNL     1      46.770   5.925  13.071  0.00  0.00    +0.000 A 
ATOM     20  C   UNL     1      45.681   5.773  12.204  0.00  0.00    +0.000 A 
BRANCH  19  21
ATOM     21  N   UNL     1      47.410   7.142  13.203  0.00  0.00    +0.000 N 
ATOM     22  C   UNL     1      46.669   8.396  13.357  0.00  0.00    +0.000 C 
ATOM     23  C   UNL     1      46.871   9.295  12.141  0.00  0.00    +0.000 C 
ATOM     24  C   UNL     1      48.354   9.486  11.832  0.00  0.00    +0.000 C 
ATOM     25  C   UNL     1      49.054   8.138  11.683  0.00  0.00    +0.000 C 
ATOM     26  C   UNL     1      48.843   7.262  12.918  0.00  0.00    +0.000 C 
ENDBRANCH  19  21
ENDBRANCH  14  15
ENDBRANCH   1  14
TORSDOF 5
ENDMDL
MODEL 2
REMARK VINA RESULT:    -7.881      1.304      1.576
REMARK INTER + INTRA:         -10.964
REMARK INTER:                 -10.390
REMARK INTRA:                  -0.574
REMARK UNBOUND:                -0.780
REMARK  Name = 
REMARK  5 active torsions:
REMARK  status: ('A' for Active; 'I' for Inactive)
REMARK    1  A    between atoms: C_2  and  C_4
REMARK    2  A    between atoms: C_8  and  N_9
REMARK    3  A    between atoms: N_9  and  C_10
REMARK    4  A    between atoms: C_10  and  C_11
REMARK    5  A    between atoms: C_15  and  N_16
REMARK                            x       y       z     vdW  Elec       q    Type
REMARK                         _______ _______ _______ _____ _____    ______ ____
ROOT
ATOM      1  N   UNL     1      44.290   4.758   9.344  0.00  0.00    +0.000 N 
ATOM      2  H   UNL     1      43.684   5.199   8.652  0.00  0.00    +0.000 HD
ENDROOT
BRANCH   1   7
ATOM      3  C   UNL     1      46.509   2.626   7.239  0.00  0.00    +0.000 A 
ATOM      4  C   UNL     1      46.209   1.398   7.803  0.00  0.00    +0.000 A 
ATOM      5  N   UNL     1      45.373   1.251   8.857  0.00  0.00    +0.000 NA
ATOM      6  C   UNL     1      44.801   2.385   9.337  0.00  0.00    +0.000 A 
ATOM      7  C   UNL     1      45.018   3.678   8.844  0.00  0.00    +0.000 A 
ATOM      8  C   UNL     1      45.881   3.768   7.749  0.00  0.00    +0.000 A 
BRANCH   3  10
ATOM      9  N   UNL     1      48.791   2.607   6.416  0.00  0.00    +0.000 N 
ATOM     10  C   UNL     1      47.459   2.690   6.112  0.00  0.00    +0.000 C 
ATOM     11  O   UNL     1      47.076   2.769   4.953  0.00  0.00    +0.000 OA
ATOM     12  H   UNL     1      49.423   2.537   5.630  0.00  0.00    +0.000 HD
ATOM     13  H   UNL     1      49.122   2.275   7.312  0.00  0.00    +0.000 HD
ENDBRANCH   3  10
ENDBRANCH   1   7
BRANCH   1  14
ATOM     14  C   UNL     1      43.734   4.715  10.688  0.00  0.00    +0.000 C 
BRANCH  14  15
ATOM     15  C   UNL     1      44.825   4.758  11.716  0.00  0.00    +0.000 A 
ATOM     16  C   UNL     1      45.103   3.662  12.518  0.00  0.00    +0.000 A 
ATOM     17  N   UNL     1      46.062   3.653  13.467  0.00  0.00    +0.000 NA
ATOM     18  C   UNL     1      46.784   4.795  13.610  0.00  0.00    +0.000 A 
ATOM     19  C   UNL     1      46.611   5.967  12.870  0.00  0.00    +0.000 A 
ATOM     20  C   UNL     1      45.603   5.908  11.900  0.00  0.00    +0.000 A 
BRANCH  19  21
ATOM     21  N   UNL     1      47.369   7.110  13.040  0.00  0.00    +0.000 N 
ATOM     22  C   UNL     1      46.756   8.418  13.282  0.00  0.00    +0.000 C 
ATOM     23  C   UNL     1      47.006   9.357  12.106  0.00  0.00    +0.000 C 
ATOM     24  C   UNL     1      48.491   9.424  11.755  0.00  0.00    +0.000 C 
ATOM     25  C   UNL     1      49.054   8.026  11.514  0.00  0.00    +0.000 C 
ATOM     26  C   UNL     1      48.797   7.110  12.711  0.00  0.00    +0.000 C 
ENDBRANCH  19  21
ENDBRANCH  14  15
ENDBRANCH   1  14
TORSDOF 5
ENDMDL
MODEL 3
REMARK VINA RESULT:    -7.538      3.028      7.397
REMARK INTER + INTRA:         -10.522
REMARK INTER:                  -9.780
REMARK INTRA:                  -0.742
REMARK UNBOUND:                -0.780
REMARK  Name = 
REMARK  5 active torsions:
REMARK  status: ('A' for Active; 'I' for Inactive)
REMARK    1  A    between atoms: C_2  and  C_4
REMARK    2  A    between atoms: C_8  and  N_9
REMARK    3  A    between atoms: N_9  and  C_10
REMARK    4  A    between atoms: C_10  and  C_11
REMARK    5  A    between atoms: C_15  and  N_16
REMARK                            x       y       z     vdW  Elec       q    Type
REMARK                         _______ _______ _______ _____ _____    ______ ____
ROOT
ATOM      1  N   UNL     1      47.340   5.936  13.145  0.00  0.00    +0.000 N 
ATOM      2  H   UNL     1      47.711   5.250  12.489  0.00  0.00    +0.000 HD
ENDROOT
BRANCH   1   7
ATOM      3  C   UNL     1      47.820   4.754  16.648  0.00  0.00    +0.000 A 
ATOM      4  C   UNL     1      48.675   5.752  17.085  0.00  0.00    +0.000 A 
ATOM      5  N   UNL     1      49.135   6.739  16.282  0.00  0.00    +0.000 NA
ATOM      6  C   UNL     1      48.690   6.730  14.999  0.00  0.00    +0.000 A 
ATOM      7  C   UNL     1      47.818   5.783  14.447  0.00  0.00    +0.000 A 
ATOM      8  C   UNL     1      47.367   4.794  15.325  0.00  0.00    +0.000 A 
BRANCH   3  10
ATOM      9  N   UNL     1      48.043   3.650  18.797  0.00  0.00    +0.000 N 
ATOM     10  C   UNL     1      47.400   3.700  17.590  0.00  0.00    +0.000 C 
ATOM     11  O   UNL     1      46.486   2.930  17.326  0.00  0.00    +0.000 OA
ATOM     12  H   UNL     1      47.669   3.000  19.474  0.00  0.00    +0.000 HD
ATOM     13  H   UNL     1      48.598   4.420  19.146  0.00  0.00    +0.000 HD
ENDBRANCH   3  10
ENDBRANCH   1   7
BRANCH   1  14
ATOM     14  C   UNL     1      45.952   6.305  12.908  0.00  0.00    +0.000 C 
BRANCH  14  15
ATOM     15  C   UNL     1      45.166   5.127  12.413  0.00  0.00    +0.000 A 
ATOM     16  C   UNL     1      44.315   4.424  13.252  0.00  0.00    +0.000 A 
ATOM     17  N   UNL     1      43.598   3.350  12.862  0.00  0.00    +0.000 NA
ATOM     18  C   UNL     1      43.733   2.970  11.564  0.00  0.00    +0.000 A 
ATOM     19  C   UNL     1      44.550   3.587  10.614  0.00  0.00    +0.000 A 
ATOM     20  C   UNL     1      45.264   4.697  11.083  0.00  0.00    +0.000 A 
BRANCH  19  21
ATOM     21  N   UNL     1      44.658   3.176   9.300  0.00  0.00    +0.000 N 
ATOM     22  C   UNL     1      44.794   1.763   8.938  0.00  0.00    +0.000 C 
ATOM     23  C   UNL     1      46.166   1.492   8.327  0.00  0.00    +0.000 C 
ATOM     24  C   UNL     1      46.464   2.457   7.181  0.00  0.00    +0.000 C 
ATOM     25  C   UNL     1      46.304   3.905   7.637  0.00  0.00    +0.000 C 
ATOM     26  C   UNL     1      44.919   4.150   8.236  0.00  0.00    +0.000 C 
ENDBRANCH  19  21
ENDBRANCH  14  15
ENDBRANCH   1  14
TORSDOF 5
ENDMDL
MODEL 4
REMARK VINA RESULT:    -7.339      1.811      3.153
REMARK INTER + INTRA:         -10.263
REMARK INTER:                  -9.489
REMARK INTRA:                  -0.775
REMARK UNBOUND:                -0.780
REMARK  Name = 
REMARK  5 active torsions:
REMARK  status: ('A' for Active; 'I' for Inactive)
REMARK    1  A    between atoms: C_2  and  C_4
REMARK    2  A    between atoms: C_8  and  N_9
REMARK    3  A    between atoms: N_9  and  C_10
REMARK    4  A    between atoms: C_10  and  C_11
REMARK    5  A    between atoms: C_15  and  N_16
REMARK                            x       y       z     vdW  Elec       q    Type
REMARK                         _______ _______ _______ _____ _____    ______ ____
ROOT
ATOM      1  N   UNL     1      43.951   4.778   9.348  0.00  0.00    +0.000 N 
ATOM      2  H   UNL     1      43.250   5.033   8.655  0.00  0.00    +0.000 HD
ENDROOT
BRANCH   1   7
ATOM      3  C   UNL     1      46.433   2.632   7.577  0.00  0.00    +0.000 A 
ATOM      4  C   UNL     1      46.087   1.413   8.137  0.00  0.00    +0.000 A 
ATOM      5  N   UNL     1      45.136   1.279   9.089  0.00  0.00    +0.000 NA
ATOM      6  C   UNL     1      44.495   2.414   9.468  0.00  0.00    +0.000 A 
ATOM      7  C   UNL     1      44.749   3.698   8.967  0.00  0.00    +0.000 A 
ATOM      8  C   UNL     1      45.733   3.775   7.978  0.00  0.00    +0.000 A 
BRANCH   3  10
ATOM      9  N   UNL     1      47.238   3.354   5.405  0.00  0.00    +0.000 N 
ATOM     10  C   UNL     1      47.507   2.684   6.568  0.00  0.00    +0.000 C 
ATOM     11  O   UNL     1      48.607   2.190   6.774  0.00  0.00    +0.000 OA
ATOM     12  H   UNL     1      48.016   3.480   4.773  0.00  0.00    +0.000 HD
ATOM     13  H   UNL     1      46.457   3.990   5.316  0.00  0.00    +0.000 HD
ENDBRANCH   3  10
ENDBRANCH   1   7
BRANCH   1  14
ATOM     14  C   UNL     1      43.512   4.919  10.728  0.00  0.00    +0.000 C 
BRANCH  14  15
ATOM     15  C   UNL     1      44.455   5.793  11.500  0.00  0.00    +0.000 A 
ATOM     16  C   UNL     1      44.368   7.176  11.441  0.00  0.00    +0.000 A 
ATOM     17  N   UNL     1      45.200   8.007  12.103  0.00  0.00    +0.000 NA
ATOM     18  C   UNL     1      46.159   7.422  12.868  0.00  0.00    +0.000 A 
ATOM     19  C   UNL     1      46.357   6.048  13.018  0.00  0.00    +0.000 A 
ATOM     20  C   UNL     1      45.458   5.242  12.308  0.00  0.00    +0.000 A 
BRANCH  19  21
ATOM     21  N   UNL     1      47.341   5.488  13.810  0.00  0.00    +0.000 N 
ATOM     22  C   UNL     1      47.169   4.187  14.458  0.00  0.00    +0.000 C 
ATOM     23  C   UNL     1      47.116   4.342  15.975  0.00  0.00    +0.000 C 
ATOM     24  C   UNL     1      48.311   5.138  16.493  0.00  0.00    +0.000 C 
ATOM     25  C   UNL     1      48.421   6.480  15.774  0.00  0.00    +0.000 C 
ATOM     26  C   UNL     1      48.480   6.294  14.257  0.00  0.00    +0.000 C 
ENDBRANCH  19  21
ENDBRANCH  14  15
ENDBRANCH   1  14
TORSDOF 5
ENDMDL
MODEL 5
REMARK VINA RESULT:    -7.155      2.919      6.898
REMARK INTER + INTRA:         -10.026
REMARK INTER:                  -9.025
REMARK INTRA:                  -1.001
REMARK UNBOUND:                -0.780
REMARK  Name = 
REMARK  5 active torsions:
REMARK  status: ('A' for Active; 'I' for Inactive)
REMARK    1  A    between atoms: C_2  and  C_4
REMARK    2  A    between atoms: C_8  and  N_9
REMARK    3  A    between atoms: N_9  and  C_10
REMARK    4  A    between atoms: C_10  and  C_11
REMARK    5  A    between atoms: C_15  and  N_16
REMARK                            x       y       z     vdW  Elec       q    Type
REMARK                         _______ _______ _______ _____ _____    ______ ____
ROOT
ATOM      1  N   UNL     1      46.788   5.521  14.334  0.00  0.00    +0.000 N 
ATOM      2  H   UNL     1      46.077   5.756  15.025  0.00  0.00    +0.000 HD
ENDROOT
BRANCH   1   7
ATOM      3  C   UNL     1      46.809   8.700  12.386  0.00  0.00    +0.000 A 
ATOM      4  C   UNL     1      48.058   8.574  11.801  0.00  0.00    +0.000 A 
ATOM      5  N   UNL     1      48.896   7.543  12.058  0.00  0.00    +0.000 NA
ATOM      6  C   UNL     1      48.441   6.594  12.915  0.00  0.00    +0.000 A 
ATOM      7  C   UNL     1      47.196   6.607  13.558  0.00  0.00    +0.000 A 
ATOM      8  C   UNL     1      46.368   7.689  13.247  0.00  0.00    +0.000 A 
BRANCH   3  10
ATOM      9  N   UNL     1      44.707   9.897  12.574  0.00  0.00    +0.000 N 
ATOM     10  C   UNL     1      45.980   9.878  12.070  0.00  0.00    +0.000 C 
ATOM     11  O   UNL     1      46.420  10.819  11.424  0.00  0.00    +0.000 OA
ATOM     12  H   UNL     1      44.191  10.757  12.448  0.00  0.00    +0.000 HD
ATOM     13  H   UNL     1      44.411   9.281  13.319  0.00  0.00    +0.000 HD
ENDBRANCH   3  10
ENDBRANCH   1   7
BRANCH   1  14
ATOM     14  C   UNL     1      46.633   4.204  13.735  0.00  0.00    +0.000 C 
BRANCH  14  15
ATOM     15  C   UNL     1      45.424   4.163  12.848  0.00  0.00    +0.000 A 
ATOM     16  C   UNL     1      44.177   4.555  13.309  0.00  0.00    +0.000 A 
ATOM     17  N   UNL     1      43.057   4.523  12.558  0.00  0.00    +0.000 NA
ATOM     18  C   UNL     1      43.197   4.085  11.280  0.00  0.00    +0.000 A 
ATOM     19  C   UNL     1      44.390   3.663  10.688  0.00  0.00    +0.000 A 
ATOM     20  C   UNL     1      45.514   3.725  11.521  0.00  0.00    +0.000 A 
BRANCH  19  21
ATOM     21  N   UNL     1      44.495   3.229   9.381  0.00  0.00    +0.000 N 
ATOM     22  C   UNL     1      44.683   1.815   9.046  0.00  0.00    +0.000 C 
ATOM     23  C   UNL     1      46.056   1.587   8.420  0.00  0.00    +0.000 C 
ATOM     24  C   UNL     1      46.297   2.538   7.250  0.00  0.00    +0.000 C 
ATOM     25  C   UNL     1      46.086   3.988   7.678  0.00  0.00    +0.000 C 
ATOM     26  C   UNL     1      44.701   4.190   8.294  0.00  0.00    +0.000 C 
ENDBRANCH  19  21
ENDBRANCH  14  15
ENDBRANCH   1  14
TORSDOF 5
ENDMDL
MODEL 6
REMARK VINA RESULT:    -6.866      2.767      6.741
REMARK INTER + INTRA:          -9.653
REMARK INTER:                  -8.775
REMARK INTRA:                  -0.878
REMARK UNBOUND:                -0.780
REMARK  Name = 
REMARK  5 active torsions:
REMARK  status: ('A' for Active; 'I' for Inactive)
REMARK    1  A    between atoms: C_2  and  C_4
REMARK    2  A    between atoms: C_8  and  N_9
REMARK    3  A    between atoms: N_9  and  C_10
REMARK    4  A    between atoms: C_10  and  C_11
REMARK    5  A    between atoms: C_15  and  N_16
REMARK                            x       y       z     vdW  Elec       q    Type
REMARK                         _______ _______ _______ _____ _____    ______ ____
ROOT
ATOM      1  N   UNL     1      45.018   7.327  13.006  0.00  0.00    +0.000 N 
ATOM      2  H   UNL     1      44.657   8.080  13.591  0.00  0.00    +0.000 HD
ENDROOT
BRANCH   1   7
ATOM      3  C   UNL     1      48.586   8.060  12.209  0.00  0.00    +0.000 A 
ATOM      4  C   UNL     1      49.153   6.909  12.730  0.00  0.00    +0.000 A 
ATOM      5  N   UNL     1      48.438   5.953  13.366  0.00  0.00    +0.000 NA
ATOM      6  C   UNL     1      47.099   6.158  13.454  0.00  0.00    +0.000 A 
ATOM      7  C   UNL     1      46.412   7.274  12.958  0.00  0.00    +0.000 A 
ATOM      8  C   UNL     1      47.199   8.224  12.301  0.00  0.00    +0.000 A 
BRANCH   3  10
ATOM      9  N   UNL     1      48.890  10.275  11.268  0.00  0.00    +0.000 N 
ATOM     10  C   UNL     1      49.453   9.063  11.562  0.00  0.00    +0.000 C 
ATOM     11  O   UNL     1      50.634   8.841  11.337  0.00  0.00    +0.000 OA
ATOM     12  H   UNL     1      49.521  10.990  10.931  0.00  0.00    +0.000 HD
ATOM     13  H   UNL     1      48.017  10.580  11.677  0.00  0.00    +0.000 HD
ENDBRANCH   3  10
ENDBRANCH   1   7
BRANCH   1  14
ATOM     14  C   UNL     1      44.228   7.062  11.813  0.00  0.00    +0.000 C 
BRANCH  14  15
ATOM     15  C   UNL     1      44.061   5.586  11.604  0.00  0.00    +0.000 A 
ATOM     16  C   UNL     1      43.602   4.761  12.619  0.00  0.00    +0.000 A 
ATOM     17  N   UNL     1      43.448   3.428  12.488  0.00  0.00    +0.000 NA
ATOM     18  C   UNL     1      43.759   2.897  11.277  0.00  0.00    +0.000 A 
ATOM     19  C   UNL     1      44.228   3.610  10.171  0.00  0.00    +0.000 A 
ATOM     20  C   UNL     1      44.362   4.990  10.373  0.00  0.00    +0.000 A 
BRANCH  19  21
ATOM     21  N   UNL     1      44.531   3.037   8.950  0.00  0.00    +0.000 N 
ATOM     22  C   UNL     1      44.832   1.611   8.817  0.00  0.00    +0.000 C 
ATOM     23  C   UNL     1      46.286   1.402   8.403  0.00  0.00    +0.000 C 
ATOM     24  C   UNL     1      46.636   2.228   7.167  0.00  0.00    +0.000 C 
ATOM     25  C   UNL     1      46.297   3.700   7.386  0.00  0.00    +0.000 C 
ATOM     26  C   UNL     1      44.833   3.880   7.790  0.00  0.00    +0.000 C 
ENDBRANCH  19  21
ENDBRANCH  14  15
ENDBRANCH   1  14
TORSDOF 5
ENDMDL
MODEL 7
REMARK VINA RESULT:    -6.756      2.809      6.873
REMARK INTER + INTRA:          -9.510
REMARK INTER:                  -8.663
REMARK INTRA:                  -0.848
REMARK UNBOUND:                -0.780
REMARK  Name = 
REMARK  5 active torsions:
REMARK  status: ('A' for Active; 'I' for Inactive)
REMARK    1  A    between atoms: C_2  and  C_4
REMARK    2  A    between atoms: C_8  and  N_9
REMARK    3  A    between atoms: N_9  and  C_10
REMARK    4  A    between atoms: C_10  and  C_11
REMARK    5  A    between atoms: C_15  and  N_16
REMARK                            x       y       z     vdW  Elec       q    Type
REMARK                         _______ _______ _______ _____ _____    ______ ____
ROOT
ATOM      1  N   UNL     1      46.648   5.135  14.592  0.00  0.00    +0.000 N 
ATOM      2  H   UNL     1      45.757   5.608  14.738  0.00  0.00    +0.000 HD
ENDROOT
BRANCH   1   7
ATOM      3  C   UNL     1      49.309   7.319  13.160  0.00  0.00    +0.000 A 
ATOM      4  C   UNL     1      50.048   7.524  14.312  0.00  0.00    +0.000 A 
ATOM      5  N   UNL     1      49.687   7.035  15.521  0.00  0.00    +0.000 NA
ATOM      6  C   UNL     1      48.553   6.289  15.558  0.00  0.00    +0.000 A 
ATOM      7  C   UNL     1      47.731   6.005  14.460  0.00  0.00    +0.000 A 
ATOM      8  C   UNL     1      48.157   6.526  13.235  0.00  0.00    +0.000 A 
BRANCH   3  10
ATOM      9  N   UNL     1      50.807   7.309  11.252  0.00  0.00    +0.000 N 
ATOM     10  C   UNL     1      49.764   7.921  11.893  0.00  0.00    +0.000 C 
ATOM     11  O   UNL     1      49.208   8.897  11.409  0.00  0.00    +0.000 OA
ATOM     12  H   UNL     1      51.034   7.661  10.333  0.00  0.00    +0.000 HD
ATOM     13  H   UNL     1      51.103   6.368  11.477  0.00  0.00    +0.000 HD
ENDBRANCH   3  10
ENDBRANCH   1   7
BRANCH   1  14
ATOM     14  C   UNL     1      46.563   3.933  13.776  0.00  0.00    +0.000 C 
BRANCH  14  15
ATOM     15  C   UNL     1      45.407   4.016  12.825  0.00  0.00    +0.000 A 
ATOM     16  C   UNL     1      44.183   4.534  13.221  0.00  0.00    +0.000 A 
ATOM     17  N   UNL     1      43.108   4.618  12.411  0.00  0.00    +0.000 NA
ATOM     18  C   UNL     1      43.271   4.169  11.139  0.00  0.00    +0.000 A 
ATOM     19  C   UNL     1      44.445   3.627  10.609  0.00  0.00    +0.000 A 
ATOM     20  C   UNL     1      45.524   3.573  11.501  0.00  0.00    +0.000 A 
BRANCH  19  21
ATOM     21  N   UNL     1      44.576   3.185   9.307  0.00  0.00    +0.000 N 
ATOM     22  C   UNL     1      44.733   1.766   8.982  0.00  0.00    +0.000 C 
ATOM     23  C   UNL     1      46.116   1.495   8.396  0.00  0.00    +0.000 C 
ATOM     24  C   UNL     1      46.419   2.435   7.232  0.00  0.00    +0.000 C 
ATOM     25  C   UNL     1      46.238   3.892   7.650  0.00  0.00    +0.000 C 
ATOM     26  C   UNL     1      44.842   4.136   8.224  0.00  0.00    +0.000 C 
ENDBRANCH  19  21
ENDBRANCH  14  15
ENDBRANCH   1  14
TORSDOF 5
ENDMDL
MODEL 8
REMARK VINA RESULT:    -6.624      2.634      4.989
REMARK INTER + INTRA:          -9.340
REMARK INTER:                  -8.608
REMARK INTRA:                  -0.732
REMARK UNBOUND:                -0.780
REMARK  Name = 
REMARK  5 active torsions:
REMARK  status: ('A' for Active; 'I' for Inactive)
REMARK    1  A    between atoms: C_2  and  C_4
REMARK    2  A    between atoms: C_8  and  N_9
REMARK    3  A    between atoms: N_9  and  C_10
REMARK    4  A    between atoms: C_10  and  C_11
REMARK    5  A    between atoms: C_15  and  N_16
REMARK                            x       y       z     vdW  Elec       q    Type
REMARK                         _______ _______ _______ _____ _____    ______ ____
ROOT
ATOM      1  N   UNL     1      45.543   6.367  12.451  0.00  0.00    +0.000 N 
ATOM      2  H   UNL     1      45.367   6.639  13.417  0.00  0.00    +0.000 HD
ENDROOT
BRANCH   1   7
ATOM      3  C   UNL     1      44.384   3.400  10.513  0.00  0.00    +0.000 A 
ATOM      4  C   UNL     1      43.624   2.795  11.500  0.00  0.00    +0.000 A 
ATOM      5  N   UNL     1      43.525   3.278  12.759  0.00  0.00    +0.000 NA
ATOM      6  C   UNL     1      44.198   4.428  13.021  0.00  0.00    +0.000 A 
ATOM      7  C   UNL     1      44.987   5.135  12.104  0.00  0.00    +0.000 A 
ATOM      8  C   UNL     1      45.044   4.596  10.816  0.00  0.00    +0.000 A 
BRANCH   3  10
ATOM      9  N   UNL     1      44.263   3.601   8.098  0.00  0.00    +0.000 N 
ATOM     10  C   UNL     1      44.458   2.781   9.177  0.00  0.00    +0.000 C 
ATOM     11  O   UNL     1      44.725   1.596   9.032  0.00  0.00    +0.000 OA
ATOM     12  H   UNL     1      44.429   3.189   7.190  0.00  0.00    +0.000 HD
ATOM     13  H   UNL     1      44.310   4.608   8.169  0.00  0.00    +0.000 HD
ENDBRANCH   3  10
ENDBRANCH   1   7
BRANCH   1  14
ATOM     14  C   UNL     1      46.853   6.752  11.948  0.00  0.00    +0.000 C 
BRANCH  14  15
ATOM     15  C   UNL     1      47.836   6.886  13.073  0.00  0.00    +0.000 A 
ATOM     16  C   UNL     1      48.904   7.768  12.997  0.00  0.00    +0.000 A 
ATOM     17  N   UNL     1      49.823   7.915  13.973  0.00  0.00    +0.000 NA
ATOM     18  C   UNL     1      49.659   7.148  15.082  0.00  0.00    +0.000 A 
ATOM     19  C   UNL     1      48.632   6.224  15.290  0.00  0.00    +0.000 A 
ATOM     20  C   UNL     1      47.710   6.122  14.241  0.00  0.00    +0.000 A 
BRANCH  19  21
ATOM     21  N   UNL     1      48.494   5.463  16.435  0.00  0.00    +0.000 N 
ATOM     22  C   UNL     1      49.517   5.444  17.482  0.00  0.00    +0.000 C 
ATOM     23  C   UNL     1      50.169   4.068  17.575  0.00  0.00    +0.000 C 
ATOM     24  C   UNL     1      49.121   2.965  17.713  0.00  0.00    +0.000 C 
ATOM     25  C   UNL     1      48.096   3.050  16.586  0.00  0.00    +0.000 C 
ATOM     26  C   UNL     1      47.453   4.435  16.521  0.00  0.00    +0.000 C 
ENDBRANCH  19  21
ENDBRANCH  14  15
ENDBRANCH   1  14
TORSDOF 5
ENDMDL
MODEL 9
REMARK VINA RESULT:    -6.347      3.710      7.819
REMARK INTER + INTRA:          -8.982
REMARK INTER:                  -8.232
REMARK INTRA:                  -0.751
REMARK UNBOUND:                -0.780
REMARK  Name = 
REMARK  5 active torsions:
REMARK  status: ('A' for Active; 'I' for Inactive)
REMARK    1  A    between atoms: C_2  and  C_4
REMARK    2  A    between atoms: C_8  and  N_9
REMARK    3  A    between atoms: N_9  and  C_10
REMARK    4  A    between atoms: C_10  and  C_11
REMARK    5  A    between atoms: C_15  and  N_16
REMARK                            x       y       z     vdW  Elec       q    Type
REMARK                         _______ _______ _______ _____ _____    ______ ____
ROOT
ATOM      1  N   UNL     1      48.380   6.861  16.331  0.00  0.00    +0.000 N 
ATOM      2  H   UNL     1      48.232   7.725  16.850  0.00  0.00    +0.000 HD
ENDROOT
BRANCH   1   7
ATOM      3  C   UNL     1      49.285   3.449  17.530  0.00  0.00    +0.000 A 
ATOM      4  C   UNL     1      48.764   3.537  18.810  0.00  0.00    +0.000 A 
ATOM      5  N   UNL     1      48.194   4.660  19.302  0.00  0.00    +0.000 NA
ATOM      6  C   UNL     1      48.124   5.722  18.460  0.00  0.00    +0.000 A 
ATOM      7  C   UNL     1      48.605   5.750  17.144  0.00  0.00    +0.000 A 
ATOM      8  C   UNL     1      49.174   4.559  16.685  0.00  0.00    +0.000 A 
BRANCH   3  10
ATOM      9  N   UNL     1      50.869   1.653  17.919  0.00  0.00    +0.000 N 
ATOM     10  C   UNL     1      49.919   2.191  17.093  0.00  0.00    +0.000 C 
ATOM     11  O   UNL     1      49.582   1.626  16.062  0.00  0.00    +0.000 OA
ATOM     12  H   UNL     1      51.211   0.736  17.666  0.00  0.00    +0.000 HD
ATOM     13  H   UNL     1      50.973   1.939  18.883  0.00  0.00    +0.000 HD
ENDBRANCH   3  10
ENDBRANCH   1   7
BRANCH   1  14
ATOM     14  C   UNL     1      49.117   7.026  15.087  0.00  0.00    +0.000 C 
BRANCH  14  15
ATOM     15  C   UNL     1      48.209   6.866  13.905  0.00  0.00    +0.000 A 
ATOM     16  C   UNL     1      48.380   7.622  12.755  0.00  0.00    +0.000 A 
ATOM     17  N   UNL     1      47.584   7.527  11.671  0.00  0.00    +0.000 NA
ATOM     18  C   UNL     1      46.572   6.622  11.740  0.00  0.00    +0.000 A 
ATOM     19  C   UNL     1      46.287   5.798  12.831  0.00  0.00    +0.000 A 
ATOM     20  C   UNL     1      47.154   5.943  13.921  0.00  0.00    +0.000 A 
BRANCH  19  21
ATOM     21  N   UNL     1      45.251   4.884  12.863  0.00  0.00    +0.000 N 
ATOM     22  C   UNL     1      45.443   3.480  12.493  0.00  0.00    +0.000 C 
ATOM     23  C   UNL     1      44.671   3.148  11.219  0.00  0.00    +0.000 C 
ATOM     24  C   UNL     1      43.206   3.564  11.334  0.00  0.00    +0.000 C 
ATOM     25  C   UNL     1      43.090   5.036  11.718  0.00  0.00    +0.000 C 
ATOM     26  C   UNL     1      43.865   5.339  13.000  0.00  0.00    +0.000 C 
ENDBRANCH  19  21
ENDBRANCH  14  15
ENDBRANCH   1  14
TORSDOF 5
ENDMDL
