MODEL 1
REMARK VINA RESULT:    -7.365      0.000      0.000
REMARK INTER + INTRA:         -11.188
REMARK INTER:                 -10.164
REMARK INTRA:                  -1.024
REMARK UNBOUND:                -1.024
REMARK  Name = 
REMARK  7 active torsions:
REMARK  status: ('A' for Active; 'I' for Inactive)
REMARK    1  A    between atoms: N_1  and  C_2
REMARK    2  A    between atoms: C_2  and  C_3
REMARK    3  A    between atoms: C_2  and  C_24
REMARK    4  A    between atoms: C_3  and  C_4
REMARK    5  A    between atoms: C_7  and  C_8
REMARK    6  A    between atoms: C_8  and  N_9
REMARK    7  A    between atoms: C_10  and  C_12
REMARK                            x       y       z     vdW  Elec       q    Type
REMARK                         _______ _______ _______ _____ _____    ______ ____
ROOT
ATOM      1  C   UNL     1      45.212   6.852  11.837  0.00  0.00    +0.000 A 
ATOM      2  C   UNL     1      46.398   6.140  11.621  0.00  0.00    +0.000 A 
ATOM      3  C   UNL     1      47.595   6.530  12.229  0.00  0.00    +0.000 A 
ATOM      4  C   UNL     1      47.642   7.656  13.056  0.00  0.00    +0.000 A 
ATOM      5  C   UNL     1      46.482   8.419  13.215  0.00  0.00    +0.000 A 
ATOM      6  C   UNL     1      45.282   8.019  12.615  0.00  0.00    +0.000 A 
ENDROOT
BRANCH   1   7
ATOM      7  C   UNL     1      43.894   6.471  11.190  0.00  0.00    +0.000 C 
BRANCH   7   8
ATOM      8  C   UNL     1      43.066   5.289  11.747  0.00  0.00    +0.000 C 
BRANCH   8   9
ATOM      9  C   UNL     1      43.580   3.867  11.378  0.00  0.00    +0.000 C 
ATOM     10  O   UNL     1      43.641   2.991  12.252  0.00  0.00    +0.000 OA
ATOM     11  N   UNL     1      43.936   3.583  10.068  0.00  0.00    +0.000 N 
ATOM     12  C   UNL     1      44.225   2.195   9.702  0.00  0.00    +0.000 C 
ATOM     13  C   UNL     1      45.643   2.064   9.158  0.00  0.00    +0.000 C 
ATOM     14  C   UNL     1      45.867   3.033   7.998  0.00  0.00    +0.000 C 
ATOM     15  C   UNL     1      45.500   4.464   8.398  0.00  0.00    +0.000 C 
ATOM     16  C   UNL     1      44.083   4.539   8.972  0.00  0.00    +0.000 C 
ENDBRANCH   8   9
BRANCH   8  17
ATOM     17  N   UNL     1      42.887   5.371  13.218  0.00  0.00    +0.000 NA
ATOM     18  H   UNL     1      41.900   5.337  13.457  0.00  0.00    +0.000 HD
ATOM     19  H   UNL     1      43.212   6.303  13.505  0.00  0.00    +0.000 HD
ENDBRANCH   8  17
ENDBRANCH   7   8
ENDBRANCH   1   7
BRANCH   4  20
ATOM     20  C   UNL     1      48.933   8.067  13.709  0.00  0.00    +0.000 C 
BRANCH  20  21
ATOM     21  N   UNL     1      49.155   7.321  14.921  0.00  0.00    +0.000 N 
ATOM     22  C   UNL     1      48.778   7.812  16.140  0.00  0.00    +0.000 C 
ATOM     23  O   UNL     1      48.213   8.896  16.261  0.00  0.00    +0.000 OA
ATOM     24  H   UNL     1      49.795   6.535  14.865  0.00  0.00    +0.000 HD
BRANCH  22  25
ATOM     25  C   UNL     1      49.032   6.947  17.300  0.00  0.00    +0.000 A 
ATOM     26  C   UNL     1      49.677   7.466  18.413  0.00  0.00    +0.000 A 
ATOM     27  S   UNL     1      49.839   6.352  19.693  0.00  0.00    +0.000 S 
ATOM     28  C   UNL     1      49.098   5.118  18.784  0.00  0.00    +0.000 A 
ATOM     29  N   UNL     1      48.936   3.871  19.303  0.00  0.00    +0.000 NA
ATOM     30  C   UNL     1      48.378   3.028  18.498  0.00  0.00    +0.000 A 
ATOM     31  N   UNL     1      47.972   3.320  17.221  0.00  0.00    +0.000 N 
ATOM     32  C   UNL     1      48.095   4.569  16.664  0.00  0.00    +0.000 A 
ATOM     33  O   UNL     1      47.687   4.801  15.530  0.00  0.00    +0.000 OA
ATOM     34  C   UNL     1      48.720   5.557  17.525  0.00  0.00    +0.000 A 
ATOM     35  H   UNL     1      47.539   2.613  16.644  0.00  0.00    +0.000 HD
ENDBRANCH  22  25
ENDBRANCH  20  21
ENDBRANCH   4  20
TORSDOF 7
ENDMDL
MODEL 2
REMARK VINA RESULT:    -7.288      2.074      2.207
REMARK INTER + INTRA:         -11.081
REMARK INTER:                 -10.020
REMARK INTRA:                  -1.062
REMARK UNBOUND:                -1.024
REMARK  Name = 
REMARK  7 active torsions:
REMARK  status: ('A' for Active; 'I' for Inactive)
REMARK    1  A    between atoms: N_1  and  C_2
REMARK    2  A    between atoms: C_2  and  C_3
REMARK    3  A    between atoms: C_2  and  C_24
REMARK    4  A    between atoms: C_3  and  C_4
REMARK    5  A    between atoms: C_7  and  C_8
REMARK    6  A    between atoms: C_8  and  N_9
REMARK    7  A    between atoms: C_10  and  C_12
REMARK                            x       y       z     vdW  Elec       q    Type
REMARK                         _______ _______ _______ _____ _____    ______ ____
ROOT
ATOM      1  C   UNL     1      45.567   6.107  12.810  0.00  0.00    +0.000 A 
ATOM      2  C   UNL     1      46.716   5.457  13.279  0.00  0.00    +0.000 A 
ATOM      3  C   UNL     1      47.960   6.094  13.266  0.00  0.00    +0.000 A 
ATOM      4  C   UNL     1      48.094   7.391  12.766  0.00  0.00    +0.000 A 
ATOM      5  C   UNL     1      46.969   8.018  12.222  0.00  0.00    +0.000 A 
ATOM      6  C   UNL     1      45.722   7.384  12.248  0.00  0.00    +0.000 A 
ENDROOT
BRANCH   1   7
ATOM      7  C   UNL     1      44.200   5.451  12.795  0.00  0.00    +0.000 C 
BRANCH   7   8
ATOM      8  C   UNL     1      43.546   5.043  11.453  0.00  0.00    +0.000 C 
BRANCH   8   9
ATOM      9  C   UNL     1      43.842   3.594  10.967  0.00  0.00    +0.000 C 
ATOM     10  O   UNL     1      43.701   2.645  11.749  0.00  0.00    +0.000 OA
ATOM     11  N   UNL     1      44.230   3.376   9.653  0.00  0.00    +0.000 N 
ATOM     12  C   UNL     1      44.309   1.998   9.163  0.00  0.00    +0.000 C 
ATOM     13  C   UNL     1      45.718   1.679   8.676  0.00  0.00    +0.000 C 
ATOM     14  C   UNL     1      46.174   2.698   7.633  0.00  0.00    +0.000 C 
ATOM     15  C   UNL     1      46.022   4.127   8.158  0.00  0.00    +0.000 C 
ATOM     16  C   UNL     1      44.603   4.389   8.669  0.00  0.00    +0.000 C 
ENDBRANCH   8   9
BRANCH   8  17
ATOM     17  N   UNL     1      42.078   5.263  11.453  0.00  0.00    +0.000 NA
ATOM     18  H   UNL     1      41.869   6.257  11.451  0.00  0.00    +0.000 HD
ATOM     19  H   UNL     1      41.724   4.903  12.348  0.00  0.00    +0.000 HD
ENDBRANCH   8  17
ENDBRANCH   7   8
ENDBRANCH   1   7
BRANCH   4  20
ATOM     20  C   UNL     1      49.436   8.071  12.759  0.00  0.00    +0.000 C 
BRANCH  20  21
ATOM     21  N   UNL     1      50.349   7.411  13.655  0.00  0.00    +0.000 N 
ATOM     22  C   UNL     1      50.670   7.949  14.870  0.00  0.00    +0.000 C 
ATOM     23  O   UNL     1      50.179   9.002  15.268  0.00  0.00    +0.000 OA
ATOM     24  H   UNL     1      50.914   6.663  13.265  0.00  0.00    +0.000 HD
BRANCH  22  25
ATOM     25  C   UNL     1      51.591   7.169  15.707  0.00  0.00    +0.000 A 
ATOM     26  C   UNL     1      52.957   7.403  15.623  0.00  0.00    +0.000 A 
ATOM     27  S   UNL     1      53.880   6.461  16.703  0.00  0.00    +0.000 S 
ATOM     28  C   UNL     1      52.492   5.667  17.284  0.00  0.00    +0.000 A 
ATOM     29  N   UNL     1      52.588   4.702  18.238  0.00  0.00    +0.000 NA
ATOM     30  C   UNL     1      51.459   4.169  18.572  0.00  0.00    +0.000 A 
ATOM     31  N   UNL     1      50.245   4.513  18.035  0.00  0.00    +0.000 N 
ATOM     32  C   UNL     1      50.097   5.496  17.088  0.00  0.00    +0.000 A 
ATOM     33  O   UNL     1      48.989   5.801  16.657  0.00  0.00    +0.000 OA
ATOM     34  C   UNL     1      51.337   6.127  16.671  0.00  0.00    +0.000 A 
ATOM     35  H   UNL     1      49.398   4.059  18.344  0.00  0.00    +0.000 HD
ENDBRANCH  22  25
ENDBRANCH  20  21
ENDBRANCH   4  20
TORSDOF 7
ENDMDL
MODEL 3
REMARK VINA RESULT:    -7.203      2.867      7.935
REMARK INTER + INTRA:         -10.963
REMARK INTER:                  -9.412
REMARK INTRA:                  -1.551
REMARK UNBOUND:                -1.024
REMARK  Name = 
REMARK  7 active torsions:
REMARK  status: ('A' for Active; 'I' for Inactive)
REMARK    1  A    between atoms: N_1  and  C_2
REMARK    2  A    between atoms: C_2  and  C_3
REMARK    3  A    between atoms: C_2  and  C_24
REMARK    4  A    between atoms: C_3  and  C_4
REMARK    5  A    between atoms: C_7  and  C_8
REMARK    6  A    between atoms: C_8  and  N_9
REMARK    7  A    between atoms: C_10  and  C_12
REMARK                            x       y       z     vdW  Elec       q    Type
REMARK                         _______ _______ _______ _____ _____    ______ ____
ROOT
ATOM      1  C   UNL     1      49.027   8.209  16.023  0.00  0.00    +0.000 A 
ATOM      2  C   UNL     1      49.386   7.104  15.242  0.00  0.00    +0.000 A 
ATOM      3  C   UNL     1      48.946   6.981  13.921  0.00  0.00    +0.000 A 
ATOM      4  C   UNL     1      48.118   7.951  13.350  0.00  0.00    +0.000 A 
ATOM      5  C   UNL     1      47.689   9.018  14.146  0.00  0.00    +0.000 A 
ATOM      6  C   UNL     1      48.141   9.145  15.465  0.00  0.00    +0.000 A 
ENDROOT
BRANCH   1   7
ATOM      7  C   UNL     1      49.472   8.378  17.463  0.00  0.00    +0.000 C 
BRANCH   7   8
ATOM      8  C   UNL     1      48.907   7.452  18.567  0.00  0.00    +0.000 C 
BRANCH   8   9
ATOM      9  C   UNL     1      49.528   6.026  18.639  0.00  0.00    +0.000 C 
ATOM     10  O   UNL     1      50.695   5.885  19.029  0.00  0.00    +0.000 OA
ATOM     11  N   UNL     1      48.759   4.923  18.296  0.00  0.00    +0.000 N 
ATOM     12  C   UNL     1      49.292   3.585  18.561  0.00  0.00    +0.000 C 
ATOM     13  C   UNL     1      49.391   2.779  17.271  0.00  0.00    +0.000 C 
ATOM     14  C   UNL     1      48.042   2.740  16.554  0.00  0.00    +0.000 C 
ATOM     15  C   UNL     1      47.489   4.152  16.347  0.00  0.00    +0.000 C 
ATOM     16  C   UNL     1      47.443   4.935  17.662  0.00  0.00    +0.000 C 
ENDBRANCH   8   9
BRANCH   8  17
ATOM     17  N   UNL     1      48.971   8.076  19.912  0.00  0.00    +0.000 NA
ATOM     18  H   UNL     1      48.448   8.947  19.923  0.00  0.00    +0.000 HD
ATOM     19  H   UNL     1      49.952   8.336  20.072  0.00  0.00    +0.000 HD
ENDBRANCH   8  17
ENDBRANCH   7   8
ENDBRANCH   1   7
BRANCH   4  20
ATOM     20  C   UNL     1      47.652   7.814  11.927  0.00  0.00    +0.000 C 
BRANCH  20  21
ATOM     21  N   UNL     1      46.953   6.571  11.734  0.00  0.00    +0.000 N 
ATOM     22  C   UNL     1      45.589   6.500  11.804  0.00  0.00    +0.000 C 
ATOM     23  O   UNL     1      44.894   7.493  12.010  0.00  0.00    +0.000 OA
ATOM     24  H   UNL     1      47.508   5.721  11.770  0.00  0.00    +0.000 HD
BRANCH  22  25
ATOM     25  C   UNL     1      44.989   5.182  11.562  0.00  0.00    +0.000 A 
ATOM     26  C   UNL     1      44.319   4.535  12.591  0.00  0.00    +0.000 A 
ATOM     27  S   UNL     1      43.630   3.046  12.129  0.00  0.00    +0.000 S 
ATOM     28  C   UNL     1      44.247   3.188  10.549  0.00  0.00    +0.000 A 
ATOM     29  N   UNL     1      44.026   2.214   9.624  0.00  0.00    +0.000 NA
ATOM     30  C   UNL     1      44.569   2.441   8.474  0.00  0.00    +0.000 A 
ATOM     31  N   UNL     1      45.313   3.552   8.167  0.00  0.00    +0.000 N 
ATOM     32  C   UNL     1      45.542   4.569   9.061  0.00  0.00    +0.000 A 
ATOM     33  O   UNL     1      46.183   5.564   8.738  0.00  0.00    +0.000 OA
ATOM     34  C   UNL     1      44.958   4.365  10.374  0.00  0.00    +0.000 A 
ATOM     35  H   UNL     1      45.707   3.669   7.245  0.00  0.00    +0.000 HD
ENDBRANCH  22  25
ENDBRANCH  20  21
ENDBRANCH   4  20
TORSDOF 7
ENDMDL
MODEL 4
REMARK VINA RESULT:    -7.003      3.233      5.354
REMARK INTER + INTRA:         -10.688
REMARK INTER:                  -9.687
REMARK INTRA:                  -1.001
REMARK UNBOUND:                -1.024
REMARK  Name = 
REMARK  7 active torsions:
REMARK  status: ('A' for Active; 'I' for Inactive)
REMARK    1  A    between atoms: N_1  and  C_2
REMARK    2  A    between atoms: C_2  and  C_3
REMARK    3  A    between atoms: C_2  and  C_24
REMARK    4  A    between atoms: C_3  and  C_4
REMARK    5  A    between atoms: C_7  and  C_8
REMARK    6  A    between atoms: C_8  and  N_9
REMARK    7  A    between atoms: C_10  and  C_12
REMARK                            x       y       z     vdW  Elec       q    Type
REMARK                         _______ _______ _______ _____ _____    ______ ____
ROOT
ATOM      1  C   UNL     1      45.069   7.352  12.009  0.00  0.00    +0.000 A 
ATOM      2  C   UNL     1      44.217   6.298  12.356  0.00  0.00    +0.000 A 
ATOM      3  C   UNL     1      44.697   5.178  13.042  0.00  0.00    +0.000 A 
ATOM      4  C   UNL     1      46.048   5.072  13.381  0.00  0.00    +0.000 A 
ATOM      5  C   UNL     1      46.922   6.082  12.968  0.00  0.00    +0.000 A 
ATOM      6  C   UNL     1      46.437   7.209  12.294  0.00  0.00    +0.000 A 
ENDROOT
BRANCH   1   7
ATOM      7  C   UNL     1      44.595   8.580  11.256  0.00  0.00    +0.000 C 
BRANCH   7   8
ATOM      8  C   UNL     1      44.720   9.983  11.897  0.00  0.00    +0.000 C 
BRANCH   8   9
ATOM      9  C   UNL     1      45.505  11.040  11.068  0.00  0.00    +0.000 C 
ATOM     10  O   UNL     1      44.923  11.684  10.185  0.00  0.00    +0.000 OA
ATOM     11  N   UNL     1      46.844  11.275  11.346  0.00  0.00    +0.000 N 
ATOM     12  C   UNL     1      47.509  12.406  10.696  0.00  0.00    +0.000 C 
ATOM     13  C   UNL     1      48.702  11.930   9.874  0.00  0.00    +0.000 C 
ATOM     14  C   UNL     1      49.657  11.106  10.735  0.00  0.00    +0.000 C 
ATOM     15  C   UNL     1      48.917   9.970  11.444  0.00  0.00    +0.000 C 
ATOM     16  C   UNL     1      47.708  10.491  12.225  0.00  0.00    +0.000 C 
ENDBRANCH   8   9
BRANCH   8  17
ATOM     17  N   UNL     1      43.400  10.549  12.274  0.00  0.00    +0.000 NA
ATOM     18  H   UNL     1      43.000  11.064  11.496  0.00  0.00    +0.000 HD
ATOM     19  H   UNL     1      43.574  11.244  13.011  0.00  0.00    +0.000 HD
ENDBRANCH   8  17
ENDBRANCH   7   8
ENDBRANCH   1   7
BRANCH   4  20
ATOM     20  C   UNL     1      46.556   3.866  14.121  0.00  0.00    +0.000 C 
BRANCH  20  21
ATOM     21  N   UNL     1      47.598   4.232  15.045  0.00  0.00    +0.000 N 
ATOM     22  C   UNL     1      47.492   3.970  16.382  0.00  0.00    +0.000 C 
ATOM     23  O   UNL     1      46.519   3.390  16.858  0.00  0.00    +0.000 OA
ATOM     24  H   UNL     1      48.300   4.885  14.709  0.00  0.00    +0.000 HD
BRANCH  22  25
ATOM     25  C   UNL     1      48.632   4.366  17.219  0.00  0.00    +0.000 A 
ATOM     26  C   UNL     1      48.610   5.592  17.870  0.00  0.00    +0.000 A 
ATOM     27  S   UNL     1      49.978   5.872  18.848  0.00  0.00    +0.000 S 
ATOM     28  C   UNL     1      50.674   4.387  18.395  0.00  0.00    +0.000 A 
ATOM     29  N   UNL     1      51.889   4.010  18.877  0.00  0.00    +0.000 NA
ATOM     30  C   UNL     1      52.307   2.869  18.435  0.00  0.00    +0.000 A 
ATOM     31  N   UNL     1      51.619   2.076  17.553  0.00  0.00    +0.000 N 
ATOM     32  C   UNL     1      50.381   2.404  17.058  0.00  0.00    +0.000 A 
ATOM     33  O   UNL     1      49.781   1.651  16.298  0.00  0.00    +0.000 OA
ATOM     34  C   UNL     1      49.864   3.680  17.518  0.00  0.00    +0.000 A 
ATOM     35  H   UNL     1      52.002   1.191  17.249  0.00  0.00    +0.000 HD
ENDBRANCH  22  25
ENDBRANCH  20  21
ENDBRANCH   4  20
TORSDOF 7
ENDMDL
MODEL 5
REMARK VINA RESULT:    -6.880      2.970      7.650
REMARK INTER + INTRA:         -10.518
REMARK INTER:                  -8.373
REMARK INTRA:                  -2.145
REMARK UNBOUND:                -1.024
REMARK  Name = 
REMARK  7 active torsions:
REMARK  status: ('A' for Active; 'I' for Inactive)
REMARK    1  A    between atoms: N_1  and  C_2
REMARK    2  A    between atoms: C_2  and  C_3
REMARK    3  A    between atoms: C_2  and  C_24
REMARK    4  A    between atoms: C_3  and  C_4
REMARK    5  A    between atoms: C_7  and  C_8
REMARK    6  A    between atoms: C_8  and  N_9
REMARK    7  A    between atoms: C_10  and  C_12
REMARK                            x       y       z     vdW  Elec       q    Type
REMARK                         _______ _______ _______ _____ _____    ______ ____
ROOT
ATOM      1  C   UNL     1      51.041   7.057  17.424  0.00  0.00    +0.000 A 
ATOM      2  C   UNL     1      51.069   6.933  16.030  0.00  0.00    +0.000 A 
ATOM      3  C   UNL     1      50.138   7.598  15.227  0.00  0.00    +0.000 A 
ATOM      4  C   UNL     1      49.138   8.390  15.798  0.00  0.00    +0.000 A 
ATOM      5  C   UNL     1      49.052   8.456  17.192  0.00  0.00    +0.000 A 
ATOM      6  C   UNL     1      49.994   7.801  17.993  0.00  0.00    +0.000 A 
ENDROOT
BRANCH   1   7
ATOM      7  C   UNL     1      52.024   6.347  18.333  0.00  0.00    +0.000 C 
BRANCH   7   8
ATOM      8  C   UNL     1      51.601   5.063  19.086  0.00  0.00    +0.000 C 
BRANCH   8   9
ATOM      9  C   UNL     1      51.010   3.923  18.206  0.00  0.00    +0.000 C 
ATOM     10  O   UNL     1      51.765   3.231  17.511  0.00  0.00    +0.000 OA
ATOM     11  N   UNL     1      49.646   3.673  18.230  0.00  0.00    +0.000 N 
ATOM     12  C   UNL     1      49.138   2.477  17.555  0.00  0.00    +0.000 C 
ATOM     13  C   UNL     1      48.129   2.854  16.476  0.00  0.00    +0.000 C 
ATOM     14  C   UNL     1      47.010   3.715  17.061  0.00  0.00    +0.000 C 
ATOM     15  C   UNL     1      47.580   4.923  17.809  0.00  0.00    +0.000 C 
ATOM     16  C   UNL     1      48.614   4.498  18.855  0.00  0.00    +0.000 C 
ENDBRANCH   8   9
BRANCH   8  17
ATOM     17  N   UNL     1      52.700   4.510  19.917  0.00  0.00    +0.000 NA
ATOM     18  H   UNL     1      53.579   4.964  19.687  0.00  0.00    +0.000 HD
ATOM     19  H   UNL     1      52.812   3.526  19.645  0.00  0.00    +0.000 HD
ENDBRANCH   8  17
ENDBRANCH   7   8
ENDBRANCH   1   7
BRANCH   4  20
ATOM     20  C   UNL     1      48.141   9.104  14.927  0.00  0.00    +0.000 C 
BRANCH  20  21
ATOM     21  N   UNL     1      47.197   8.177  14.362  0.00  0.00    +0.000 N 
ATOM     22  C   UNL     1      46.871   8.211  13.034  0.00  0.00    +0.000 C 
ATOM     23  O   UNL     1      47.383   9.012  12.256  0.00  0.00    +0.000 OA
ATOM     24  H   UNL     1      46.618   7.656  15.014  0.00  0.00    +0.000 HD
BRANCH  22  25
ATOM     25  C   UNL     1      45.916   7.196  12.569  0.00  0.00    +0.000 A 
ATOM     26  C   UNL     1      44.785   7.590  11.868  0.00  0.00    +0.000 A 
ATOM     27  S   UNL     1      43.814   6.289  11.348  0.00  0.00    +0.000 S 
ATOM     28  C   UNL     1      44.844   5.154  12.087  0.00  0.00    +0.000 A 
ATOM     29  N   UNL     1      44.569   3.822  12.030  0.00  0.00    +0.000 NA
ATOM     30  C   UNL     1      45.423   3.076  12.650  0.00  0.00    +0.000 A 
ATOM     31  N   UNL     1      46.523   3.542  13.324  0.00  0.00    +0.000 N 
ATOM     32  C   UNL     1      46.852   4.874  13.388  0.00  0.00    +0.000 A 
ATOM     33  O   UNL     1      47.865   5.250  13.970  0.00  0.00    +0.000 OA
ATOM     34  C   UNL     1      45.923   5.761  12.711  0.00  0.00    +0.000 A 
ATOM     35  H   UNL     1      47.154   2.903  13.785  0.00  0.00    +0.000 HD
ENDBRANCH  22  25
ENDBRANCH  20  21
ENDBRANCH   4  20
TORSDOF 7
ENDMDL
MODEL 6
REMARK VINA RESULT:    -6.590      3.282      5.530
REMARK INTER + INTRA:         -10.118
REMARK INTER:                  -8.849
REMARK INTRA:                  -1.270
REMARK UNBOUND:                -1.024
REMARK  Name = 
REMARK  7 active torsions:
REMARK  status: ('A' for Active; 'I' for Inactive)
REMARK    1  A    between atoms: N_1  and  C_2
REMARK    2  A    between atoms: C_2  and  C_3
REMARK    3  A    between atoms: C_2  and  C_24
REMARK    4  A    between atoms: C_3  and  C_4
REMARK    5  A    between atoms: C_7  and  C_8
REMARK    6  A    between atoms: C_8  and  N_9
REMARK    7  A    between atoms: C_10  and  C_12
REMARK                            x       y       z     vdW  Elec       q    Type
REMARK                         _______ _______ _______ _____ _____    ______ ____
ROOT
ATOM      1  C   UNL     1      44.593   7.723  11.658  0.00  0.00    +0.000 A 
ATOM      2  C   UNL     1      43.863   6.529  11.682  0.00  0.00    +0.000 A 
ATOM      3  C   UNL     1      44.344   5.402  12.355  0.00  0.00    +0.000 A 
ATOM      4  C   UNL     1      45.580   5.433  13.007  0.00  0.00    +0.000 A 
ATOM      5  C   UNL     1      46.353   6.595  12.922  0.00  0.00    +0.000 A 
ATOM      6  C   UNL     1      45.862   7.725  12.258  0.00  0.00    +0.000 A 
ENDROOT
BRANCH   1   7
ATOM      7  C   UNL     1      44.115   8.965  10.931  0.00  0.00    +0.000 C 
BRANCH   7   8
ATOM      8  C   UNL     1      44.365  10.367  11.537  0.00  0.00    +0.000 C 
BRANCH   8   9
ATOM      9  C   UNL     1      45.150  11.365  10.637  0.00  0.00    +0.000 C 
ATOM     10  O   UNL     1      44.584  11.898   9.674  0.00  0.00    +0.000 OA
ATOM     11  N   UNL     1      46.469  11.672  10.939  0.00  0.00    +0.000 N 
ATOM     12  C   UNL     1      47.124  12.756  10.205  0.00  0.00    +0.000 C 
ATOM     13  C   UNL     1      48.362  12.244   9.478  0.00  0.00    +0.000 C 
ATOM     14  C   UNL     1      49.308  11.541  10.451  0.00  0.00    +0.000 C 
ATOM     15  C   UNL     1      48.575  10.455  11.241  0.00  0.00    +0.000 C 
ATOM     16  C   UNL     1      47.321  11.007  11.923  0.00  0.00    +0.000 C 
ENDBRANCH   8   9
BRANCH   8  17
ATOM     17  N   UNL     1      43.110  11.014  11.995  0.00  0.00    +0.000 NA
ATOM     18  H   UNL     1      43.311  11.721  12.695  0.00  0.00    +0.000 HD
ATOM     19  H   UNL     1      42.562  10.290  12.476  0.00  0.00    +0.000 HD
ENDBRANCH   8  17
ENDBRANCH   7   8
ENDBRANCH   1   7
BRANCH   4  20
ATOM     20  C   UNL     1      46.089   4.218  13.733  0.00  0.00    +0.000 C 
BRANCH  20  21
ATOM     21  N   UNL     1      46.717   4.588  14.975  0.00  0.00    +0.000 N 
ATOM     22  C   UNL     1      47.588   3.749  15.612  0.00  0.00    +0.000 C 
ATOM     23  O   UNL     1      47.897   2.654  15.148  0.00  0.00    +0.000 OA
ATOM     24  H   UNL     1      46.322   5.383  15.469  0.00  0.00    +0.000 HD
BRANCH  22  25
ATOM     25  C   UNL     1      48.185   4.249  16.857  0.00  0.00    +0.000 A 
ATOM     26  C   UNL     1      47.957   3.571  18.047  0.00  0.00    +0.000 A 
ATOM     27  S   UNL     1      48.770   4.245  19.385  0.00  0.00    +0.000 S 
ATOM     28  C   UNL     1      49.414   5.498  18.432  0.00  0.00    +0.000 A 
ATOM     29  N   UNL     1      50.209   6.456  18.983  0.00  0.00    +0.000 NA
ATOM     30  C   UNL     1      50.612   7.357  18.150  0.00  0.00    +0.000 A 
ATOM     31  N   UNL     1      50.289   7.389  16.817  0.00  0.00    +0.000 N 
ATOM     32  C   UNL     1      49.510   6.432  16.214  0.00  0.00    +0.000 A 
ATOM     33  O   UNL     1      49.272   6.475  15.010  0.00  0.00    +0.000 OA
ATOM     34  C   UNL     1      49.024   5.395  17.106  0.00  0.00    +0.000 A 
ATOM     35  H   UNL     1      50.641   8.122  16.219  0.00  0.00    +0.000 HD
ENDBRANCH  22  25
ENDBRANCH  20  21
ENDBRANCH   4  20
TORSDOF 7
ENDMDL
MODEL 7
REMARK VINA RESULT:    -6.558      1.409      2.325
REMARK INTER + INTRA:         -10.074
REMARK INTER:                  -9.540
REMARK INTRA:                  -0.533
REMARK UNBOUND:                -1.024
REMARK  Name = 
REMARK  7 active torsions:
REMARK  status: ('A' for Active; 'I' for Inactive)
REMARK    1  A    between atoms: N_1  and  C_2
REMARK    2  A    between atoms: C_2  and  C_3
REMARK    3  A    between atoms: C_2  and  C_24
REMARK    4  A    between atoms: C_3  and  C_4
REMARK    5  A    between atoms: C_7  and  C_8
REMARK    6  A    between atoms: C_8  and  N_9
REMARK    7  A    between atoms: C_10  and  C_12
REMARK                            x       y       z     vdW  Elec       q    Type
REMARK                         _______ _______ _______ _____ _____    ______ ____
ROOT
ATOM      1  C   UNL     1      45.281   6.776  12.029  0.00  0.00    +0.000 A 
ATOM      2  C   UNL     1      45.470   7.964  12.746  0.00  0.00    +0.000 A 
ATOM      3  C   UNL     1      46.675   8.225  13.405  0.00  0.00    +0.000 A 
ATOM      4  C   UNL     1      47.717   7.294  13.383  0.00  0.00    +0.000 A 
ATOM      5  C   UNL     1      47.509   6.071  12.738  0.00  0.00    +0.000 A 
ATOM      6  C   UNL     1      46.307   5.819  12.068  0.00  0.00    +0.000 A 
ENDROOT
BRANCH   1   7
ATOM      7  C   UNL     1      43.988   6.448  11.309  0.00  0.00    +0.000 C 
BRANCH   7   8
ATOM      8  C   UNL     1      43.099   5.279  11.797  0.00  0.00    +0.000 C 
BRANCH   8   9
ATOM      9  C   UNL     1      43.583   3.851  11.411  0.00  0.00    +0.000 C 
ATOM     10  O   UNL     1      43.631   2.965  12.275  0.00  0.00    +0.000 OA
ATOM     11  N   UNL     1      43.927   3.574  10.096  0.00  0.00    +0.000 N 
ATOM     12  C   UNL     1      44.186   2.184   9.715  0.00  0.00    +0.000 C 
ATOM     13  C   UNL     1      45.599   2.031   9.162  0.00  0.00    +0.000 C 
ATOM     14  C   UNL     1      45.837   3.008   8.011  0.00  0.00    +0.000 C 
ATOM     15  C   UNL     1      45.500   4.441   8.428  0.00  0.00    +0.000 C 
ATOM     16  C   UNL     1      44.088   4.538   9.010  0.00  0.00    +0.000 C 
ENDBRANCH   8   9
BRANCH   8  17
ATOM     17  N   UNL     1      42.860   5.328  13.261  0.00  0.00    +0.000 NA
ATOM     18  H   UNL     1      42.183   4.621  13.534  0.00  0.00    +0.000 HD
ATOM     19  H   UNL     1      42.415   6.233  13.459  0.00  0.00    +0.000 HD
ENDBRANCH   8  17
ENDBRANCH   7   8
ENDBRANCH   1   7
BRANCH   4  20
ATOM     20  C   UNL     1      49.012   7.583  14.092  0.00  0.00    +0.000 C 
BRANCH  20  21
ATOM     21  N   UNL     1      49.158   6.747  15.254  0.00  0.00    +0.000 N 
ATOM     22  C   UNL     1      48.861   7.207  16.507  0.00  0.00    +0.000 C 
ATOM     23  O   UNL     1      48.434   8.343  16.701  0.00  0.00    +0.000 OA
ATOM     24  H   UNL     1      49.697   5.893  15.141  0.00  0.00    +0.000 HD
BRANCH  22  25
ATOM     25  C   UNL     1      49.024   6.251  17.610  0.00  0.00    +0.000 A 
ATOM     26  C   UNL     1      48.449   4.992  17.515  0.00  0.00    +0.000 A 
ATOM     27  S   UNL     1      48.783   3.984  18.849  0.00  0.00    +0.000 S 
ATOM     28  C   UNL     1      49.665   5.214  19.626  0.00  0.00    +0.000 A 
ATOM     29  N   UNL     1      50.223   5.006  20.850  0.00  0.00    +0.000 NA
ATOM     30  C   UNL     1      50.847   6.030  21.332  0.00  0.00    +0.000 A 
ATOM     31  N   UNL     1      50.959   7.243  20.702  0.00  0.00    +0.000 N 
ATOM     32  C   UNL     1      50.432   7.491  19.458  0.00  0.00    +0.000 A 
ATOM     33  O   UNL     1      50.584   8.579  18.911  0.00  0.00    +0.000 OA
ATOM     34  C   UNL     1      49.715   6.375  18.870  0.00  0.00    +0.000 A 
ATOM     35  H   UNL     1      51.464   8.003  21.134  0.00  0.00    +0.000 HD
ENDBRANCH  22  25
ENDBRANCH  20  21
ENDBRANCH   4  20
TORSDOF 7
ENDMDL
MODEL 8
REMARK VINA RESULT:    -6.475      2.258      2.709
REMARK INTER + INTRA:          -9.960
REMARK INTER:                  -9.534
REMARK INTRA:                  -0.426
REMARK UNBOUND:                -1.024
REMARK  Name = 
REMARK  7 active torsions:
REMARK  status: ('A' for Active; 'I' for Inactive)
REMARK    1  A    between atoms: N_1  and  C_2
REMARK    2  A    between atoms: C_2  and  C_3
REMARK    3  A    between atoms: C_2  and  C_24
REMARK    4  A    between atoms: C_3  and  C_4
REMARK    5  A    between atoms: C_7  and  C_8
REMARK    6  A    between atoms: C_8  and  N_9
REMARK    7  A    between atoms: C_10  and  C_12
REMARK                            x       y       z     vdW  Elec       q    Type
REMARK                         _______ _______ _______ _____ _____    ______ ____
ROOT
ATOM      1  C   UNL     1      45.021   6.864  11.781  0.00  0.00    +0.000 A 
ATOM      2  C   UNL     1      45.114   8.043  12.530  0.00  0.00    +0.000 A 
ATOM      3  C   UNL     1      46.329   8.449  13.088  0.00  0.00    +0.000 A 
ATOM      4  C   UNL     1      47.482   7.675  12.931  0.00  0.00    +0.000 A 
ATOM      5  C   UNL     1      47.382   6.456  12.254  0.00  0.00    +0.000 A 
ATOM      6  C   UNL     1      46.167   6.059  11.684  0.00  0.00    +0.000 A 
ENDROOT
BRANCH   1   7
ATOM      7  C   UNL     1      43.722   6.380  11.167  0.00  0.00    +0.000 C 
BRANCH   7   8
ATOM      8  C   UNL     1      42.978   5.165  11.772  0.00  0.00    +0.000 C 
BRANCH   8   9
ATOM      9  C   UNL     1      43.534   3.765  11.381  0.00  0.00    +0.000 C 
ATOM     10  O   UNL     1      43.620   2.878  12.240  0.00  0.00    +0.000 OA
ATOM     11  N   UNL     1      43.900   3.514  10.066  0.00  0.00    +0.000 N 
ATOM     12  C   UNL     1      44.229   2.141   9.679  0.00  0.00    +0.000 C 
ATOM     13  C   UNL     1      45.651   2.060   9.134  0.00  0.00    +0.000 C 
ATOM     14  C   UNL     1      45.849   3.054   7.991  0.00  0.00    +0.000 C 
ATOM     15  C   UNL     1      45.439   4.467   8.414  0.00  0.00    +0.000 C 
ATOM     16  C   UNL     1      44.020   4.491   8.987  0.00  0.00    +0.000 C 
ENDBRANCH   8   9
BRANCH   8  17
ATOM     17  N   UNL     1      42.876   5.249  13.251  0.00  0.00    +0.000 NA
ATOM     18  H   UNL     1      43.786   5.102  13.677  0.00  0.00    +0.000 HD
ATOM     19  H   UNL     1      42.293   4.458  13.553  0.00  0.00    +0.000 HD
ENDBRANCH   8  17
ENDBRANCH   7   8
ENDBRANCH   1   7
BRANCH   4  20
ATOM     20  C   UNL     1      48.787   8.120  13.532  0.00  0.00    +0.000 C 
BRANCH  20  21
ATOM     21  N   UNL     1      49.300   7.125  14.437  0.00  0.00    +0.000 N 
ATOM     22  C   UNL     1      50.040   7.471  15.534  0.00  0.00    +0.000 C 
ATOM     23  O   UNL     1      50.281   8.642  15.815  0.00  0.00    +0.000 OA
ATOM     24  H   UNL     1      49.290   6.162  14.114  0.00  0.00    +0.000 HD
BRANCH  22  25
ATOM     25  C   UNL     1      50.484   6.369  16.397  0.00  0.00    +0.000 A 
ATOM     26  C   UNL     1      49.543   5.614  17.083  0.00  0.00    +0.000 A 
ATOM     27  S   UNL     1      50.217   4.338  17.990  0.00  0.00    +0.000 S 
ATOM     28  C   UNL     1      51.797   4.780  17.539  0.00  0.00    +0.000 A 
ATOM     29  N   UNL     1      52.874   4.086  17.998  0.00  0.00    +0.000 NA
ATOM     30  C   UNL     1      54.013   4.542  17.594  0.00  0.00    +0.000 A 
ATOM     31  N   UNL     1      54.172   5.631  16.775  0.00  0.00    +0.000 N 
ATOM     32  C   UNL     1      53.115   6.347  16.269  0.00  0.00    +0.000 A 
ATOM     33  O   UNL     1      53.295   7.294  15.510  0.00  0.00    +0.000 OA
ATOM     34  C   UNL     1      51.808   5.880  16.695  0.00  0.00    +0.000 A 
ATOM     35  H   UNL     1      55.093   5.933  16.492  0.00  0.00    +0.000 HD
ENDBRANCH  22  25
ENDBRANCH  20  21
ENDBRANCH   4  20
TORSDOF 7
ENDMDL
MODEL 9
REMARK VINA RESULT:    -6.361      4.999      8.471
REMARK INTER + INTRA:          -9.802
REMARK INTER:                  -8.900
REMARK INTRA:                  -0.901
REMARK UNBOUND:                -1.024
REMARK  Name = 
REMARK  7 active torsions:
REMARK  status: ('A' for Active; 'I' for Inactive)
REMARK    1  A    between atoms: N_1  and  C_2
REMARK    2  A    between atoms: C_2  and  C_3
REMARK    3  A    between atoms: C_2  and  C_24
REMARK    4  A    between atoms: C_3  and  C_4
REMARK    5  A    between atoms: C_7  and  C_8
REMARK    6  A    between atoms: C_8  and  N_9
REMARK    7  A    between atoms: C_10  and  C_12
REMARK                            x       y       z     vdW  Elec       q    Type
REMARK                         _______ _______ _______ _____ _____    ______ ____
ROOT
ATOM      1  C   UNL     1      49.896   9.146  11.574  0.00  0.00    +0.000 A 
ATOM      2  C   UNL     1      49.452   7.819  11.640  0.00  0.00    +0.000 A 
ATOM      3  C   UNL     1      48.139   7.515  12.007  0.00  0.00    +0.000 A 
ATOM      4  C   UNL     1      47.236   8.529  12.339  0.00  0.00    +0.000 A 
ATOM      5  C   UNL     1      47.691   9.851  12.354  0.00  0.00    +0.000 A 
ATOM      6  C   UNL     1      49.003  10.154  11.973  0.00  0.00    +0.000 A 
ENDROOT
BRANCH   1   7
ATOM      7  C   UNL     1      51.314   9.521  11.191  0.00  0.00    +0.000 C 
BRANCH   7   8
ATOM      8  C   UNL     1      52.333   8.423  10.802  0.00  0.00    +0.000 C 
BRANCH   8   9
ATOM      9  C   UNL     1      53.360   8.810   9.700  0.00  0.00    +0.000 C 
ATOM     10  O   UNL     1      53.772   9.975   9.628  0.00  0.00    +0.000 OA
ATOM     11  N   UNL     1      53.829   7.840   8.826  0.00  0.00    +0.000 N 
ATOM     12  C   UNL     1      54.938   8.177   7.931  0.00  0.00    +0.000 C 
ATOM     13  C   UNL     1      54.528   7.997   6.473  0.00  0.00    +0.000 C 
ATOM     14  C   UNL     1      53.991   6.587   6.234  0.00  0.00    +0.000 C 
ATOM     15  C   UNL     1      52.875   6.248   7.225  0.00  0.00    +0.000 C 
ATOM     16  C   UNL     1      53.321   6.479   8.671  0.00  0.00    +0.000 C 
ENDBRANCH   8   9
BRANCH   8  17
ATOM     17  N   UNL     1      53.064   7.892  11.980  0.00  0.00    +0.000 NA
ATOM     18  H   UNL     1      54.013   7.638  11.722  0.00  0.00    +0.000 HD
ATOM     19  H   UNL     1      52.601   7.015  12.247  0.00  0.00    +0.000 HD
ENDBRANCH   8  17
ENDBRANCH   7   8
ENDBRANCH   1   7
BRANCH   4  20
ATOM     20  C   UNL     1      45.823   8.194  12.730  0.00  0.00    +0.000 C 
BRANCH  20  21
ATOM     21  N   UNL     1      45.514   6.824  12.412  0.00  0.00    +0.000 N 
ATOM     22  C   UNL     1      44.434   6.496  11.640  0.00  0.00    +0.000 C 
ATOM     23  O   UNL     1      43.691   7.350  11.161  0.00  0.00    +0.000 OA
ATOM     24  H   UNL     1      45.983   6.109  12.960  0.00  0.00    +0.000 HD
BRANCH  22  25
ATOM     25  C   UNL     1      44.239   5.068  11.362  0.00  0.00    +0.000 A 
ATOM     26  C   UNL     1      43.498   4.293  12.245  0.00  0.00    +0.000 A 
ATOM     27  S   UNL     1      43.314   2.674  11.746  0.00  0.00    +0.000 S 
ATOM     28  C   UNL     1      44.262   2.937  10.357  0.00  0.00    +0.000 A 
ATOM     29  N   UNL     1      44.517   1.924   9.485  0.00  0.00    +0.000 NA
ATOM     30  C   UNL     1      45.266   2.258   8.486  0.00  0.00    +0.000 A 
ATOM     31  N   UNL     1      45.785   3.511   8.285  0.00  0.00    +0.000 N 
ATOM     32  C   UNL     1      45.536   4.568   9.126  0.00  0.00    +0.000 A 
ATOM     33  O   UNL     1      45.989   5.685   8.893  0.00  0.00    +0.000 OA
ATOM     34  C   UNL     1      44.702   4.248  10.270  0.00  0.00    +0.000 A 
ATOM     35  H   UNL     1      46.362   3.707   7.480  0.00  0.00    +0.000 HD
ENDBRANCH  22  25
ENDBRANCH  20  21
ENDBRANCH   4  20
TORSDOF 7
ENDMDL
