MODEL 1
REMARK VINA RESULT:    -7.587      0.000      0.000
REMARK INTER + INTRA:         -13.339
REMARK INTER:                 -12.022
REMARK INTRA:                  -1.317
REMARK UNBOUND:                -1.317
REMARK  Name = 
REMARK  12 active torsions:
REMARK  status: ('A' for Active; 'I' for Inactive)
REMARK    1  A    between atoms: C_1  and  C_2
REMARK    2  A    between atoms: C_2  and  O_3
REMARK    3  A    between atoms: O_3  and  C_4
REMARK    4  A    between atoms: C_6  and  C_7
REMARK    5  A    between atoms: C_7  and  C_8
REMARK    6  A    between atoms: C_8  and  N_9
REMARK    7  A    between atoms: C_13  and  C_14
REMARK    8  A    between atoms: C_20  and  O_21
REMARK    9  A    between atoms: O_21  and  C_22
REMARK   10  A    between atoms: C_22  and  C_23
REMARK   11  A    between atoms: C_24  and  N_25
REMARK   12  A    between atoms: N_25  and  C_26
REMARK                            x       y       z     vdW  Elec       q    Type
REMARK                         _______ _______ _______ _____ _____    ______ ____
ROOT
ATOM      1  C   UNL     1      46.784   5.266  13.855  0.00  0.00    +0.000 A 
ATOM      2  C   UNL     1      45.604   4.671  13.383  0.00  0.00    +0.000 A 
ATOM      3  C   UNL     1      44.576   5.413  12.782  0.00  0.00    +0.000 A 
ATOM      4  C   UNL     1      44.785   6.778  12.587  0.00  0.00    +0.000 A 
ATOM      5  C   UNL     1      45.973   7.386  13.020  0.00  0.00    +0.000 A 
ATOM      6  C   UNL     1      47.017   6.629  13.613  0.00  0.00    +0.000 A 
ENDROOT
BRANCH   6   7
ATOM      7  N   UNL     1      48.182   7.326  14.032  0.00  0.00    +0.000 N 
ATOM      8  H   UNL     1      47.924   8.073  14.675  0.00  0.00    +0.000 HD
BRANCH   7   9
ATOM      9  C   UNL     1      49.428   7.488  13.359  0.00  0.00    +0.000 C 
ATOM     10  C   UNL     1      49.789   8.979  13.168  0.00  0.00    +0.000 C 
ATOM     11  C   UNL     1      50.067   8.694  11.687  0.00  0.00    +0.000 C 
ATOM     12  C   UNL     1      49.260   7.394  11.824  0.00  0.00    +0.000 C 
ENDBRANCH   7   9
ENDBRANCH   6   7
BRANCH   1  13
ATOM     13  O   UNL     1      47.739   4.530  14.518  0.00  0.00    +0.000 OA
BRANCH  13  15
ATOM     14  C   UNL     1      48.143   2.927  16.260  0.00  0.00    +0.000 C 
ATOM     15  C   UNL     1      47.444   4.218  15.883  0.00  0.00    +0.000 C 
ENDBRANCH  13  15
ENDBRANCH   1  13
BRANCH   3  16
ATOM     16  C   UNL     1      43.235   4.803  12.401  0.00  0.00    +0.000 C 
BRANCH  16  17
ATOM     17  C   UNL     1      43.235   4.146  11.020  0.00  0.00    +0.000 C 
BRANCH  17  18
ATOM     18  N   UNL     1      43.993   4.887  10.012  0.00  0.00    +0.000 N 
ATOM     19  C   UNL     1      44.798   4.002   9.253  0.00  0.00    +0.000 A 
ATOM     20  C   UNL     1      45.620   4.520   8.258  0.00  0.00    +0.000 A 
ATOM     21  C   UNL     1      46.431   3.651   7.522  0.00  0.00    +0.000 A 
ATOM     22  C   UNL     1      46.402   2.280   7.786  0.00  0.00    +0.000 A 
ATOM     23  C   UNL     1      45.534   1.847   8.767  0.00  0.00    +0.000 A 
ATOM     24  N   UNL     1      44.741   2.672   9.490  0.00  0.00    +0.000 NA
ATOM     25  H   UNL     1      44.597   5.596  10.421  0.00  0.00    +0.000 HD
BRANCH  22  26
ATOM     26  C   UNL     1      47.288   1.366   7.025  0.00  0.00    +0.000 C 
ATOM     27  N   UNL     1      48.398   1.875   6.408  0.00  0.00    +0.000 N 
ATOM     28  O   UNL     1      47.032   0.173   6.933  0.00  0.00    +0.000 OA
ATOM     29  H   UNL     1      48.679   2.843   6.383  0.00  0.00    +0.000 HD
ATOM     30  H   UNL     1      48.955   1.219   5.876  0.00  0.00    +0.000 HD
ENDBRANCH  22  26
ENDBRANCH  17  18
ENDBRANCH  16  17
ENDBRANCH   3  16
BRANCH   5  31
ATOM     31  O   UNL     1      46.180   8.747  12.932  0.00  0.00    +0.000 OA
BRANCH  31  32
ATOM     32  C   UNL     1      45.228   9.495  12.164  0.00  0.00    +0.000 C 
ATOM     33  C   UNL     1      45.820  10.710  11.461  0.00  0.00    +0.000 C 
ENDBRANCH  31  32
ENDBRANCH   5  31
TORSDOF 10
ENDMDL
MODEL 2
REMARK VINA RESULT:    -7.494      1.024      3.513
REMARK INTER + INTRA:         -13.192
REMARK INTER:                 -11.782
REMARK INTRA:                  -1.409
REMARK UNBOUND:                -1.317
REMARK  Name = 
REMARK  12 active torsions:
REMARK  status: ('A' for Active; 'I' for Inactive)
REMARK    1  A    between atoms: C_1  and  C_2
REMARK    2  A    between atoms: C_2  and  O_3
REMARK    3  A    between atoms: O_3  and  C_4
REMARK    4  A    between atoms: C_6  and  C_7
REMARK    5  A    between atoms: C_7  and  C_8
REMARK    6  A    between atoms: C_8  and  N_9
REMARK    7  A    between atoms: C_13  and  C_14
REMARK    8  A    between atoms: C_20  and  O_21
REMARK    9  A    between atoms: O_21  and  C_22
REMARK   10  A    between atoms: C_22  and  C_23
REMARK   11  A    between atoms: C_24  and  N_25
REMARK   12  A    between atoms: N_25  and  C_26
REMARK                            x       y       z     vdW  Elec       q    Type
REMARK                         _______ _______ _______ _____ _____    ______ ____
ROOT
ATOM      1  C   UNL     1      46.656   7.152  12.429  0.00  0.00    +0.000 A 
ATOM      2  C   UNL     1      45.297   6.862  12.236  0.00  0.00    +0.000 A 
ATOM      3  C   UNL     1      44.689   5.716  12.770  0.00  0.00    +0.000 A 
ATOM      4  C   UNL     1      45.462   4.886  13.582  0.00  0.00    +0.000 A 
ATOM      5  C   UNL     1      46.815   5.177  13.816  0.00  0.00    +0.000 A 
ATOM      6  C   UNL     1      47.421   6.346  13.287  0.00  0.00    +0.000 A 
ENDROOT
BRANCH   6   7
ATOM      7  N   UNL     1      48.798   6.558  13.563  0.00  0.00    +0.000 N 
ATOM      8  H   UNL     1      49.354   5.817  13.140  0.00  0.00    +0.000 HD
BRANCH   7   9
ATOM      9  C   UNL     1      49.404   7.239  14.659  0.00  0.00    +0.000 C 
ATOM     10  C   UNL     1      48.451   8.283  15.285  0.00  0.00    +0.000 C 
ATOM     11  C   UNL     1      49.577   9.322  15.200  0.00  0.00    +0.000 C 
ATOM     12  C   UNL     1      50.283   8.419  14.178  0.00  0.00    +0.000 C 
ENDBRANCH   7   9
ENDBRANCH   6   7
BRANCH   1  13
ATOM     13  O   UNL     1      47.247   8.236  11.823  0.00  0.00    +0.000 OA
BRANCH  13  15
ATOM     14  C   UNL     1      47.802  10.537  12.235  0.00  0.00    +0.000 C 
ATOM     15  C   UNL     1      46.688   9.512  12.150  0.00  0.00    +0.000 C 
ENDBRANCH  13  15
ENDBRANCH   1  13
BRANCH   3  16
ATOM     16  C   UNL     1      43.256   5.317  12.447  0.00  0.00    +0.000 C 
BRANCH  16  17
ATOM     17  C   UNL     1      43.125   4.523  11.147  0.00  0.00    +0.000 C 
BRANCH  17  18
ATOM     18  N   UNL     1      43.901   5.074  10.035  0.00  0.00    +0.000 N 
ATOM     19  C   UNL     1      44.637   4.048   9.393  0.00  0.00    +0.000 A 
ATOM     20  C   UNL     1      45.464   4.377   8.325  0.00  0.00    +0.000 A 
ATOM     21  C   UNL     1      46.208   3.370   7.703  0.00  0.00    +0.000 A 
ATOM     22  C   UNL     1      46.108   2.051   8.153  0.00  0.00    +0.000 A 
ATOM     23  C   UNL     1      45.240   1.808   9.197  0.00  0.00    +0.000 A 
ATOM     24  N   UNL     1      44.510   2.769   9.812  0.00  0.00    +0.000 NA
ATOM     25  H   UNL     1      44.552   5.796  10.334  0.00  0.00    +0.000 HD
BRANCH  22  26
ATOM     26  C   UNL     1      46.924   0.992   7.511  0.00  0.00    +0.000 C 
ATOM     27  N   UNL     1      47.866   1.346   6.585  0.00  0.00    +0.000 N 
ATOM     28  O   UNL     1      46.756  -0.187   7.791  0.00  0.00    +0.000 OA
ATOM     29  H   UNL     1      48.057   2.278   6.250  0.00  0.00    +0.000 HD
ATOM     30  H   UNL     1      48.376   0.587   6.152  0.00  0.00    +0.000 HD
ENDBRANCH  22  26
ENDBRANCH  17  18
ENDBRANCH  16  17
ENDBRANCH   3  16
BRANCH   5  31
ATOM     31  O   UNL     1      47.638   4.334  14.533  0.00  0.00    +0.000 OA
BRANCH  31  32
ATOM     32  C   UNL     1      47.287   4.104  15.904  0.00  0.00    +0.000 C 
ATOM     33  C   UNL     1      48.023   2.932  16.541  0.00  0.00    +0.000 C 
ENDBRANCH  31  32
ENDBRANCH   5  31
TORSDOF 10
ENDMDL
MODEL 3
REMARK VINA RESULT:    -6.243      1.935      2.527
REMARK INTER + INTRA:         -11.210
REMARK INTER:                  -9.936
REMARK INTRA:                  -1.274
REMARK UNBOUND:                -1.317
REMARK  Name = 
REMARK  12 active torsions:
REMARK  status: ('A' for Active; 'I' for Inactive)
REMARK    1  A    between atoms: C_1  and  C_2
REMARK    2  A    between atoms: C_2  and  O_3
REMARK    3  A    between atoms: O_3  and  C_4
REMARK    4  A    between atoms: C_6  and  C_7
REMARK    5  A    between atoms: C_7  and  C_8
REMARK    6  A    between atoms: C_8  and  N_9
REMARK    7  A    between atoms: C_13  and  C_14
REMARK    8  A    between atoms: C_20  and  O_21
REMARK    9  A    between atoms: O_21  and  C_22
REMARK   10  A    between atoms: C_22  and  C_23
REMARK   11  A    between atoms: C_24  and  N_25
REMARK   12  A    between atoms: N_25  and  C_26
REMARK                            x       y       z     vdW  Elec       q    Type
REMARK                         _______ _______ _______ _____ _____    ______ ____
ROOT
ATOM      1  C   UNL     1      47.072   7.547  12.449  0.00  0.00    +0.000 A 
ATOM      2  C   UNL     1      46.139   6.526  12.215  0.00  0.00    +0.000 A 
ATOM      3  C   UNL     1      44.783   6.788  11.967  0.00  0.00    +0.000 A 
ATOM      4  C   UNL     1      44.382   8.121  11.881  0.00  0.00    +0.000 A 
ATOM      5  C   UNL     1      45.306   9.158  12.078  0.00  0.00    +0.000 A 
ATOM      6  C   UNL     1      46.680   8.888  12.312  0.00  0.00    +0.000 A 
ENDROOT
BRANCH   6   7
ATOM      7  N   UNL     1      47.545   9.997  12.512  0.00  0.00    +0.000 N 
ATOM      8  H   UNL     1      47.227  10.544  13.310  0.00  0.00    +0.000 HD
BRANCH   7   9
ATOM      9  C   UNL     1      48.355  10.692  11.566  0.00  0.00    +0.000 C 
ATOM     10  C   UNL     1      49.704   9.974  11.328  0.00  0.00    +0.000 C 
ATOM     11  C   UNL     1      50.423  11.310  11.554  0.00  0.00    +0.000 C 
ATOM     12  C   UNL     1      49.151  11.838  12.235  0.00  0.00    +0.000 C 
ENDBRANCH   7   9
ENDBRANCH   6   7
BRANCH   1  13
ATOM     13  O   UNL     1      48.377   7.261  12.775  0.00  0.00    +0.000 OA
BRANCH  13  15
ATOM     14  C   UNL     1      49.878   7.555  14.628  0.00  0.00    +0.000 C 
ATOM     15  C   UNL     1      48.610   6.886  14.137  0.00  0.00    +0.000 C 
ENDBRANCH  13  15
ENDBRANCH   1  13
BRANCH   3  16
ATOM     16  C   UNL     1      43.738   5.687  11.857  0.00  0.00    +0.000 C 
BRANCH  16  17
ATOM     17  C   UNL     1      43.654   5.064  10.463  0.00  0.00    +0.000 C 
BRANCH  17  18
ATOM     18  N   UNL     1      43.966   3.635  10.432  0.00  0.00    +0.000 N 
ATOM     19  C   UNL     1      44.845   3.346   9.359  0.00  0.00    +0.000 A 
ATOM     20  C   UNL     1      45.237   2.030   9.143  0.00  0.00    +0.000 A 
ATOM     21  C   UNL     1      46.087   1.738   8.072  0.00  0.00    +0.000 A 
ATOM     22  C   UNL     1      46.535   2.766   7.239  0.00  0.00    +0.000 A 
ATOM     23  C   UNL     1      46.123   4.046   7.545  0.00  0.00    +0.000 A 
ATOM     24  N   UNL     1      45.302   4.349   8.577  0.00  0.00    +0.000 NA
ATOM     25  H   UNL     1      43.136   3.057  10.331  0.00  0.00    +0.000 HD
BRANCH  22  26
ATOM     26  C   UNL     1      47.410   2.447   6.085  0.00  0.00    +0.000 C 
ATOM     27  N   UNL     1      48.767   2.526   6.236  0.00  0.00    +0.000 N 
ATOM     28  O   UNL     1      46.934   2.130   5.003  0.00  0.00    +0.000 OA
ATOM     29  H   UNL     1      49.262   2.816   7.065  0.00  0.00    +0.000 HD
ATOM     30  H   UNL     1      49.322   2.329   5.413  0.00  0.00    +0.000 HD
ENDBRANCH  22  26
ENDBRANCH  17  18
ENDBRANCH  16  17
ENDBRANCH   3  16
BRANCH   5  31
ATOM     31  O   UNL     1      44.933  10.485  12.096  0.00  0.00    +0.000 OA
BRANCH  31  32
ATOM     32  C   UNL     1      44.282  10.987  10.921  0.00  0.00    +0.000 C 
ATOM     33  C   UNL     1      45.200  11.775   9.995  0.00  0.00    +0.000 C 
ENDBRANCH  31  32
ENDBRANCH   5  31
TORSDOF 10
ENDMDL
MODEL 4
REMARK VINA RESULT:    -5.910      3.108      8.519
REMARK INTER + INTRA:         -10.682
REMARK INTER:                  -9.077
REMARK INTRA:                  -1.605
REMARK UNBOUND:                -1.317
REMARK  Name = 
REMARK  12 active torsions:
REMARK  status: ('A' for Active; 'I' for Inactive)
REMARK    1  A    between atoms: C_1  and  C_2
REMARK    2  A    between atoms: C_2  and  O_3
REMARK    3  A    between atoms: O_3  and  C_4
REMARK    4  A    between atoms: C_6  and  C_7
REMARK    5  A    between atoms: C_7  and  C_8
REMARK    6  A    between atoms: C_8  and  N_9
REMARK    7  A    between atoms: C_13  and  C_14
REMARK    8  A    between atoms: C_20  and  O_21
REMARK    9  A    between atoms: O_21  and  C_22
REMARK   10  A    between atoms: C_22  and  C_23
REMARK   11  A    between atoms: C_24  and  N_25
REMARK   12  A    between atoms: N_25  and  C_26
REMARK                            x       y       z     vdW  Elec       q    Type
REMARK                         _______ _______ _______ _____ _____    ______ ____
ROOT
ATOM      1  C   UNL     1      45.715   7.327  12.302  0.00  0.00    +0.000 A 
ATOM      2  C   UNL     1      47.032   7.813  12.280  0.00  0.00    +0.000 A 
ATOM      3  C   UNL     1      48.091   7.144  12.910  0.00  0.00    +0.000 A 
ATOM      4  C   UNL     1      47.820   5.914  13.511  0.00  0.00    +0.000 A 
ATOM      5  C   UNL     1      46.517   5.394  13.515  0.00  0.00    +0.000 A 
ATOM      6  C   UNL     1      45.452   6.067  12.862  0.00  0.00    +0.000 A 
ENDROOT
BRANCH   6   7
ATOM      7  N   UNL     1      44.161   5.476  12.923  0.00  0.00    +0.000 N 
ATOM      8  H   UNL     1      43.931   5.249  13.889  0.00  0.00    +0.000 HD
BRANCH   7   9
ATOM      9  C   UNL     1      43.460   4.735  11.927  0.00  0.00    +0.000 C 
ATOM     10  C   UNL     1      43.513   3.213  12.199  0.00  0.00    +0.000 C 
ATOM     11  C   UNL     1      43.955   2.998  10.745  0.00  0.00    +0.000 C 
ATOM     12  C   UNL     1      44.343   4.483  10.681  0.00  0.00    +0.000 C 
ENDBRANCH   7   9
ENDBRANCH   6   7
BRANCH   1  13
ATOM     13  O   UNL     1      44.680   8.046  11.751  0.00  0.00    +0.000 OA
BRANCH  13  15
ATOM     14  C   UNL     1      43.789  10.085  10.847  0.00  0.00    +0.000 C 
ATOM     15  C   UNL     1      44.849   9.467  11.736  0.00  0.00    +0.000 C 
ENDBRANCH  13  15
ENDBRANCH   1  13
BRANCH   3  16
ATOM     16  C   UNL     1      49.490   7.732  13.018  0.00  0.00    +0.000 C 
BRANCH  16  17
ATOM     17  C   UNL     1      49.890   8.093  14.449  0.00  0.00    +0.000 C 
BRANCH  17  18
ATOM     18  N   UNL     1      50.759   7.105  15.089  0.00  0.00    +0.000 N 
ATOM     19  C   UNL     1      50.188   6.662  16.307  0.00  0.00    +0.000 A 
ATOM     20  C   UNL     1      50.880   5.739  17.082  0.00  0.00    +0.000 A 
ATOM     21  C   UNL     1      50.329   5.316  18.295  0.00  0.00    +0.000 A 
ATOM     22  C   UNL     1      49.093   5.817  18.710  0.00  0.00    +0.000 A 
ATOM     23  C   UNL     1      48.459   6.705  17.865  0.00  0.00    +0.000 A 
ATOM     24  N   UNL     1      48.976   7.126  16.687  0.00  0.00    +0.000 NA
ATOM     25  H   UNL     1      51.688   7.471  15.285  0.00  0.00    +0.000 HD
BRANCH  22  26
ATOM     26  C   UNL     1      48.527   5.391  20.013  0.00  0.00    +0.000 C 
ATOM     27  N   UNL     1      49.086   4.326  20.665  0.00  0.00    +0.000 N 
ATOM     28  O   UNL     1      47.565   5.969  20.501  0.00  0.00    +0.000 OA
ATOM     29  H   UNL     1      49.848   3.754  20.336  0.00  0.00    +0.000 HD
ATOM     30  H   UNL     1      48.647   4.053  21.535  0.00  0.00    +0.000 HD
ENDBRANCH  22  26
ENDBRANCH  17  18
ENDBRANCH  16  17
ENDBRANCH   3  16
BRANCH   5  31
ATOM     31  O   UNL     1      46.188   4.231  14.179  0.00  0.00    +0.000 OA
BRANCH  31  32
ATOM     32  C   UNL     1      47.263   3.528  14.816  0.00  0.00    +0.000 C 
ATOM     33  C   UNL     1      47.290   3.684  16.332  0.00  0.00    +0.000 C 
ENDBRANCH  31  32
ENDBRANCH   5  31
TORSDOF 10
ENDMDL
MODEL 5
REMARK VINA RESULT:    -5.735      3.723      5.919
REMARK INTER + INTRA:         -10.404
REMARK INTER:                  -8.839
REMARK INTRA:                  -1.564
REMARK UNBOUND:                -1.317
REMARK  Name = 
REMARK  12 active torsions:
REMARK  status: ('A' for Active; 'I' for Inactive)
REMARK    1  A    between atoms: C_1  and  C_2
REMARK    2  A    between atoms: C_2  and  O_3
REMARK    3  A    between atoms: O_3  and  C_4
REMARK    4  A    between atoms: C_6  and  C_7
REMARK    5  A    between atoms: C_7  and  C_8
REMARK    6  A    between atoms: C_8  and  N_9
REMARK    7  A    between atoms: C_13  and  C_14
REMARK    8  A    between atoms: C_20  and  O_21
REMARK    9  A    between atoms: O_21  and  C_22
REMARK   10  A    between atoms: C_22  and  C_23
REMARK   11  A    between atoms: C_24  and  N_25
REMARK   12  A    between atoms: N_25  and  C_26
REMARK                            x       y       z     vdW  Elec       q    Type
REMARK                         _______ _______ _______ _____ _____    ______ ____
ROOT
ATOM      1  C   UNL     1      48.920   6.119  16.514  0.00  0.00    +0.000 A 
ATOM      2  C   UNL     1      48.706   6.762  15.286  0.00  0.00    +0.000 A 
ATOM      3  C   UNL     1      48.670   8.160  15.165  0.00  0.00    +0.000 A 
ATOM      4  C   UNL     1      48.933   8.919  16.305  0.00  0.00    +0.000 A 
ATOM      5  C   UNL     1      49.184   8.295  17.536  0.00  0.00    +0.000 A 
ATOM      6  C   UNL     1      49.236   6.881  17.650  0.00  0.00    +0.000 A 
ENDROOT
BRANCH   6   7
ATOM      7  N   UNL     1      49.485   6.332  18.936  0.00  0.00    +0.000 N 
ATOM      8  H   UNL     1      50.384   5.853  18.939  0.00  0.00    +0.000 HD
BRANCH   7   9
ATOM      9  C   UNL     1      48.557   5.916  19.935  0.00  0.00    +0.000 C 
ATOM     10  C   UNL     1      48.855   6.571  21.304  0.00  0.00    +0.000 C 
ATOM     11  C   UNL     1      48.779   5.184  21.954  0.00  0.00    +0.000 C 
ATOM     12  C   UNL     1      48.968   4.562  20.562  0.00  0.00    +0.000 C 
ENDBRANCH   7   9
ENDBRANCH   6   7
BRANCH   1  13
ATOM     13  O   UNL     1      48.865   4.749  16.621  0.00  0.00    +0.000 OA
BRANCH  13  15
ATOM     14  C   UNL     1      47.317   3.119  17.469  0.00  0.00    +0.000 C 
ATOM     15  C   UNL     1      47.580   4.159  16.399  0.00  0.00    +0.000 C 
ENDBRANCH  13  15
ENDBRANCH   1  13
BRANCH   3  16
ATOM     16  C   UNL     1      48.294   8.865  13.871  0.00  0.00    +0.000 C 
BRANCH  16  17
ATOM     17  C   UNL     1      46.901   8.495  13.358  0.00  0.00    +0.000 C 
BRANCH  17  18
ATOM     18  N   UNL     1      46.883   8.046  11.965  0.00  0.00    +0.000 N 
ATOM     19  C   UNL     1      46.150   6.840  11.846  0.00  0.00    +0.000 A 
ATOM     20  C   UNL     1      46.041   6.235  10.599  0.00  0.00    +0.000 A 
ATOM     21  C   UNL     1      45.336   5.033  10.483  0.00  0.00    +0.000 A 
ATOM     22  C   UNL     1      44.746   4.460  11.612  0.00  0.00    +0.000 A 
ATOM     23  C   UNL     1      44.875   5.144  12.803  0.00  0.00    +0.000 A 
ATOM     24  N   UNL     1      45.552   6.308  12.936  0.00  0.00    +0.000 NA
ATOM     25  H   UNL     1      47.817   7.891  11.593  0.00  0.00    +0.000 HD
BRANCH  22  26
ATOM     26  C   UNL     1      44.027   3.169  11.490  0.00  0.00    +0.000 C 
ATOM     27  N   UNL     1      43.713   2.472  12.624  0.00  0.00    +0.000 N 
ATOM     28  O   UNL     1      43.725   2.718  10.393  0.00  0.00    +0.000 OA
ATOM     29  H   UNL     1      43.949   2.728  13.570  0.00  0.00    +0.000 HD
ATOM     30  H   UNL     1      43.249   1.582  12.489  0.00  0.00    +0.000 HD
ENDBRANCH  22  26
ENDBRANCH  17  18
ENDBRANCH  16  17
ENDBRANCH   3  16
BRANCH   5  31
ATOM     31  O   UNL     1      49.355   9.008  18.704  0.00  0.00    +0.000 OA
BRANCH  31  32
ATOM     32  C   UNL     1      48.329   9.952  19.038  0.00  0.00    +0.000 C 
ATOM     33  C   UNL     1      47.022   9.311  19.490  0.00  0.00    +0.000 C 
ENDBRANCH  31  32
ENDBRANCH   5  31
TORSDOF 10
ENDMDL
MODEL 6
REMARK VINA RESULT:    -5.704      3.435      7.409
REMARK INTER + INTRA:         -10.355
REMARK INTER:                  -9.675
REMARK INTRA:                  -0.680
REMARK UNBOUND:                -1.317
REMARK  Name = 
REMARK  12 active torsions:
REMARK  status: ('A' for Active; 'I' for Inactive)
REMARK    1  A    between atoms: C_1  and  C_2
REMARK    2  A    between atoms: C_2  and  O_3
REMARK    3  A    between atoms: O_3  and  C_4
REMARK    4  A    between atoms: C_6  and  C_7
REMARK    5  A    between atoms: C_7  and  C_8
REMARK    6  A    between atoms: C_8  and  N_9
REMARK    7  A    between atoms: C_13  and  C_14
REMARK    8  A    between atoms: C_20  and  O_21
REMARK    9  A    between atoms: O_21  and  C_22
REMARK   10  A    between atoms: C_22  and  C_23
REMARK   11  A    between atoms: C_24  and  N_25
REMARK   12  A    between atoms: N_25  and  C_26
REMARK                            x       y       z     vdW  Elec       q    Type
REMARK                         _______ _______ _______ _____ _____    ______ ____
ROOT
ATOM      1  C   UNL     1      47.189   6.906  12.877  0.00  0.00    +0.000 A 
ATOM      2  C   UNL     1      47.657   5.817  13.627  0.00  0.00    +0.000 A 
ATOM      3  C   UNL     1      46.814   4.779  14.054  0.00  0.00    +0.000 A 
ATOM      4  C   UNL     1      45.481   4.811  13.642  0.00  0.00    +0.000 A 
ATOM      5  C   UNL     1      45.002   5.874  12.861  0.00  0.00    +0.000 A 
ATOM      6  C   UNL     1      45.862   6.913  12.419  0.00  0.00    +0.000 A 
ENDROOT
BRANCH   6   7
ATOM      7  N   UNL     1      45.291   7.956  11.641  0.00  0.00    +0.000 N 
ATOM      8  H   UNL     1      45.643   7.907  10.687  0.00  0.00    +0.000 HD
BRANCH   7   9
ATOM      9  C   UNL     1      44.802   9.228  12.058  0.00  0.00    +0.000 C 
ATOM     10  C   UNL     1      43.888   9.871  10.989  0.00  0.00    +0.000 C 
ATOM     11  C   UNL     1      44.704  11.165  11.109  0.00  0.00    +0.000 C 
ATOM     12  C   UNL     1      45.827  10.352  11.772  0.00  0.00    +0.000 C 
ENDBRANCH   7   9
ENDBRANCH   6   7
BRANCH   1  13
ATOM     13  O   UNL     1      48.017   7.953  12.546  0.00  0.00    +0.000 OA
BRANCH  13  15
ATOM     14  C   UNL     1      50.062   8.750  11.569  0.00  0.00    +0.000 C 
ATOM     15  C   UNL     1      49.386   7.610  12.304  0.00  0.00    +0.000 C 
ENDBRANCH  13  15
ENDBRANCH   1  13
BRANCH   3  16
ATOM     16  C   UNL     1      47.277   3.672  14.989  0.00  0.00    +0.000 C 
BRANCH  16  17
ATOM     17  C   UNL     1      47.227   4.063  16.467  0.00  0.00    +0.000 C 
BRANCH  17  18
ATOM     18  N   UNL     1      48.387   4.833  16.916  0.00  0.00    +0.000 N 
ATOM     19  C   UNL     1      49.491   3.974  17.139  0.00  0.00    +0.000 A 
ATOM     20  C   UNL     1      50.686   4.516  17.601  0.00  0.00    +0.000 A 
ATOM     21  C   UNL     1      51.771   3.668  17.842  0.00  0.00    +0.000 A 
ATOM     22  C   UNL     1      51.647   2.296  17.613  0.00  0.00    +0.000 A 
ATOM     23  C   UNL     1      50.437   1.847  17.124  0.00  0.00    +0.000 A 
ATOM     24  N   UNL     1      49.375   2.652  16.883  0.00  0.00    +0.000 NA
ATOM     25  H   UNL     1      48.204   5.349  17.773  0.00  0.00    +0.000 HD
BRANCH  22  26
ATOM     26  C   UNL     1      52.789   1.396  17.901  0.00  0.00    +0.000 C 
ATOM     27  N   UNL     1      52.550   0.072  18.146  0.00  0.00    +0.000 N 
ATOM     28  O   UNL     1      53.935   1.825  17.935  0.00  0.00    +0.000 OA
ATOM     29  H   UNL     1      51.648  -0.377  18.186  0.00  0.00    +0.000 HD
ATOM     30  H   UNL     1      53.357  -0.496  18.368  0.00  0.00    +0.000 HD
ENDBRANCH  22  26
ENDBRANCH  17  18
ENDBRANCH  16  17
ENDBRANCH   3  16
BRANCH   5  31
ATOM     31  O   UNL     1      43.672   5.993  12.513  0.00  0.00    +0.000 OA
BRANCH  31  32
ATOM     32  C   UNL     1      43.086   4.882  11.822  0.00  0.00    +0.000 C 
ATOM     33  C   UNL     1      43.623   4.679  10.411  0.00  0.00    +0.000 C 
ENDBRANCH  31  32
ENDBRANCH   5  31
TORSDOF 10
ENDMDL
MODEL 7
REMARK VINA RESULT:    -5.668      3.728      6.360
REMARK INTER + INTRA:         -10.299
REMARK INTER:                  -8.704
REMARK INTRA:                  -1.595
REMARK UNBOUND:                -1.317
REMARK  Name = 
REMARK  12 active torsions:
REMARK  status: ('A' for Active; 'I' for Inactive)
REMARK    1  A    between atoms: C_1  and  C_2
REMARK    2  A    between atoms: C_2  and  O_3
REMARK    3  A    between atoms: O_3  and  C_4
REMARK    4  A    between atoms: C_6  and  C_7
REMARK    5  A    between atoms: C_7  and  C_8
REMARK    6  A    between atoms: C_8  and  N_9
REMARK    7  A    between atoms: C_13  and  C_14
REMARK    8  A    between atoms: C_20  and  O_21
REMARK    9  A    between atoms: O_21  and  C_22
REMARK   10  A    between atoms: C_22  and  C_23
REMARK   11  A    between atoms: C_24  and  N_25
REMARK   12  A    between atoms: N_25  and  C_26
REMARK                            x       y       z     vdW  Elec       q    Type
REMARK                         _______ _______ _______ _____ _____    ______ ____
ROOT
ATOM      1  C   UNL     1      49.263   7.986  17.624  0.00  0.00    +0.000 A 
ATOM      2  C   UNL     1      48.916   8.617  16.420  0.00  0.00    +0.000 A 
ATOM      3  C   UNL     1      48.614   7.899  15.254  0.00  0.00    +0.000 A 
ATOM      4  C   UNL     1      48.590   6.506  15.334  0.00  0.00    +0.000 A 
ATOM      5  C   UNL     1      48.899   5.856  16.537  0.00  0.00    +0.000 A 
ATOM      6  C   UNL     1      49.189   6.587  17.719  0.00  0.00    +0.000 A 
ENDROOT
BRANCH   6   7
ATOM      7  N   UNL     1      49.502   5.849  18.892  0.00  0.00    +0.000 N 
ATOM      8  H   UNL     1      50.312   5.255  18.720  0.00  0.00    +0.000 HD
BRANCH   7   9
ATOM      9  C   UNL     1      48.647   5.439  19.956  0.00  0.00    +0.000 C 
ATOM     10  C   UNL     1      47.254   6.103  19.861  0.00  0.00    +0.000 C 
ATOM     11  C   UNL     1      47.377   6.510  21.335  0.00  0.00    +0.000 C 
ATOM     12  C   UNL     1      48.892   6.277  21.234  0.00  0.00    +0.000 C 
ENDBRANCH   7   9
ENDBRANCH   6   7
BRANCH   1  13
ATOM     13  O   UNL     1      49.639   8.713  18.729  0.00  0.00    +0.000 OA
BRANCH  13  15
ATOM     14  C   UNL     1      51.450   8.920  20.294  0.00  0.00    +0.000 C 
ATOM     15  C   UNL     1      51.037   9.000  18.838  0.00  0.00    +0.000 C 
ENDBRANCH  13  15
ENDBRANCH   1  13
BRANCH   3  16
ATOM     16  C   UNL     1      48.381   8.571  13.909  0.00  0.00    +0.000 C 
BRANCH  16  17
ATOM     17  C   UNL     1      46.946   8.431  13.399  0.00  0.00    +0.000 C 
BRANCH  17  18
ATOM     18  N   UNL     1      46.852   8.037  11.993  0.00  0.00    +0.000 N 
ATOM     19  C   UNL     1      46.122   6.830  11.867  0.00  0.00    +0.000 A 
ATOM     20  C   UNL     1      45.949   6.274  10.605  0.00  0.00    +0.000 A 
ATOM     21  C   UNL     1      45.247   5.071  10.480  0.00  0.00    +0.000 A 
ATOM     22  C   UNL     1      44.725   4.448  11.616  0.00  0.00    +0.000 A 
ATOM     23  C   UNL     1      44.916   5.085  12.825  0.00  0.00    +0.000 A 
ATOM     24  N   UNL     1      45.591   6.250  12.966  0.00  0.00    +0.000 NA
ATOM     25  H   UNL     1      47.765   7.906  11.563  0.00  0.00    +0.000 HD
BRANCH  22  26
ATOM     26  C   UNL     1      44.009   3.157  11.483  0.00  0.00    +0.000 C 
ATOM     27  N   UNL     1      43.697   2.448  12.610  0.00  0.00    +0.000 N 
ATOM     28  O   UNL     1      43.709   2.714  10.382  0.00  0.00    +0.000 OA
ATOM     29  H   UNL     1      43.933   2.696  13.559  0.00  0.00    +0.000 HD
ATOM     30  H   UNL     1      43.236   1.559  12.468  0.00  0.00    +0.000 HD
ENDBRANCH  22  26
ENDBRANCH  17  18
ENDBRANCH  16  17
ENDBRANCH   3  16
BRANCH   5  31
ATOM     31  O   UNL     1      48.979   4.482  16.635  0.00  0.00    +0.000 OA
BRANCH  31  32
ATOM     32  C   UNL     1      47.769   3.749  16.404  0.00  0.00    +0.000 C 
ATOM     33  C   UNL     1      47.297   2.941  17.607  0.00  0.00    +0.000 C 
ENDBRANCH  31  32
ENDBRANCH   5  31
TORSDOF 10
ENDMDL
MODEL 8
REMARK VINA RESULT:    -5.653      3.130      7.581
REMARK INTER + INTRA:         -10.274
REMARK INTER:                  -9.171
REMARK INTRA:                  -1.103
REMARK UNBOUND:                -1.317
REMARK  Name = 
REMARK  12 active torsions:
REMARK  status: ('A' for Active; 'I' for Inactive)
REMARK    1  A    between atoms: C_1  and  C_2
REMARK    2  A    between atoms: C_2  and  O_3
REMARK    3  A    between atoms: O_3  and  C_4
REMARK    4  A    between atoms: C_6  and  C_7
REMARK    5  A    between atoms: C_7  and  C_8
REMARK    6  A    between atoms: C_8  and  N_9
REMARK    7  A    between atoms: C_13  and  C_14
REMARK    8  A    between atoms: C_20  and  O_21
REMARK    9  A    between atoms: O_21  and  C_22
REMARK   10  A    between atoms: C_22  and  C_23
REMARK   11  A    between atoms: C_24  and  N_25
REMARK   12  A    between atoms: N_25  and  C_26
REMARK                            x       y       z     vdW  Elec       q    Type
REMARK                         _______ _______ _______ _____ _____    ______ ____
ROOT
ATOM      1  C   UNL     1      46.046   5.593  13.279  0.00  0.00    +0.000 A 
ATOM      2  C   UNL     1      47.314   6.193  13.308  0.00  0.00    +0.000 A 
ATOM      3  C   UNL     1      47.590   7.402  12.652  0.00  0.00    +0.000 A 
ATOM      4  C   UNL     1      46.533   8.053  12.014  0.00  0.00    +0.000 A 
ATOM      5  C   UNL     1      45.250   7.487  12.003  0.00  0.00    +0.000 A 
ATOM      6  C   UNL     1      44.972   6.272  12.682  0.00  0.00    +0.000 A 
ENDROOT
BRANCH   6   7
ATOM      7  N   UNL     1      43.648   5.763  12.610  0.00  0.00    +0.000 N 
ATOM      8  H   UNL     1      43.220   5.782  13.533  0.00  0.00    +0.000 HD
BRANCH   7   9
ATOM      9  C   UNL     1      43.087   4.836  11.684  0.00  0.00    +0.000 C 
ATOM     10  C   UNL     1      43.342   3.372  12.112  0.00  0.00    +0.000 C 
ATOM     11  C   UNL     1      43.854   3.076  10.697  0.00  0.00    +0.000 C 
ATOM     12  C   UNL     1      44.034   4.587  10.486  0.00  0.00    +0.000 C 
ENDBRANCH   7   9
ENDBRANCH   6   7
BRANCH   1  13
ATOM     13  O   UNL     1      45.824   4.365  13.857  0.00  0.00    +0.000 OA
BRANCH  13  15
ATOM     14  C   UNL     1      47.323   3.404  15.470  0.00  0.00    +0.000 C 
ATOM     15  C   UNL     1      46.976   3.528  14.000  0.00  0.00    +0.000 C 
ENDBRANCH  13  15
ENDBRANCH   1  13
BRANCH   3  16
ATOM     16  C   UNL     1      48.992   7.986  12.554  0.00  0.00    +0.000 C 
BRANCH  16  17
ATOM     17  C   UNL     1      49.800   7.845  13.845  0.00  0.00    +0.000 C 
BRANCH  17  18
ATOM     18  N   UNL     1      49.252   8.598  14.973  0.00  0.00    +0.000 N 
ATOM     19  C   UNL     1      49.052   7.742  16.085  0.00  0.00    +0.000 A 
ATOM     20  C   UNL     1      48.507   8.267  17.251  0.00  0.00    +0.000 A 
ATOM     21  C   UNL     1      48.289   7.421  18.343  0.00  0.00    +0.000 A 
ATOM     22  C   UNL     1      48.625   6.068  18.253  0.00  0.00    +0.000 A 
ATOM     23  C   UNL     1      49.190   5.638  17.070  0.00  0.00    +0.000 A 
ATOM     24  N   UNL     1      49.410   6.441  16.003  0.00  0.00    +0.000 NA
ATOM     25  H   UNL     1      48.366   9.045  14.750  0.00  0.00    +0.000 HD
BRANCH  22  26
ATOM     26  C   UNL     1      48.361   5.168  19.401  0.00  0.00    +0.000 C 
ATOM     27  N   UNL     1      47.546   5.598  20.412  0.00  0.00    +0.000 N 
ATOM     28  O   UNL     1      48.871   4.057  19.460  0.00  0.00    +0.000 OA
ATOM     29  H   UNL     1      47.111   6.504  20.486  0.00  0.00    +0.000 HD
ATOM     30  H   UNL     1      47.420   4.961  21.188  0.00  0.00    +0.000 HD
ENDBRANCH  22  26
ENDBRANCH  17  18
ENDBRANCH  16  17
ENDBRANCH   3  16
BRANCH   5  31
ATOM     31  O   UNL     1      44.201   8.049  11.305  0.00  0.00    +0.000 OA
BRANCH  31  32
ATOM     32  C   UNL     1      44.258   9.466  11.088  0.00  0.00    +0.000 C 
ATOM     33  C   UNL     1      42.927  10.081  10.672  0.00  0.00    +0.000 C 
ENDBRANCH  31  32
ENDBRANCH   5  31
TORSDOF 10
ENDMDL
MODEL 9
REMARK VINA RESULT:    -5.373      4.727      7.039
REMARK INTER + INTRA:          -9.831
REMARK INTER:                  -8.292
REMARK INTRA:                  -1.540
REMARK UNBOUND:                -1.317
REMARK  Name = 
REMARK  12 active torsions:
REMARK  status: ('A' for Active; 'I' for Inactive)
REMARK    1  A    between atoms: C_1  and  C_2
REMARK    2  A    between atoms: C_2  and  O_3
REMARK    3  A    between atoms: O_3  and  C_4
REMARK    4  A    between atoms: C_6  and  C_7
REMARK    5  A    between atoms: C_7  and  C_8
REMARK    6  A    between atoms: C_8  and  N_9
REMARK    7  A    between atoms: C_13  and  C_14
REMARK    8  A    between atoms: C_20  and  O_21
REMARK    9  A    between atoms: O_21  and  C_22
REMARK   10  A    between atoms: C_22  and  C_23
REMARK   11  A    between atoms: C_24  and  N_25
REMARK   12  A    between atoms: N_25  and  C_26
REMARK                            x       y       z     vdW  Elec       q    Type
REMARK                         _______ _______ _______ _____ _____    ______ ____
ROOT
ATOM      1  C   UNL     1      51.260   4.248  18.531  0.00  0.00    +0.000 A 
ATOM      2  C   UNL     1      50.459   3.761  17.487  0.00  0.00    +0.000 A 
ATOM      3  C   UNL     1      49.061   3.684  17.583  0.00  0.00    +0.000 A 
ATOM      4  C   UNL     1      48.459   4.186  18.737  0.00  0.00    +0.000 A 
ATOM      5  C   UNL     1      49.239   4.710  19.778  0.00  0.00    +0.000 A 
ATOM      6  C   UNL     1      50.652   4.800  19.670  0.00  0.00    +0.000 A 
ENDROOT
BRANCH   6   7
ATOM      7  N   UNL     1      51.366   5.334  20.776  0.00  0.00    +0.000 N 
ATOM      8  H   UNL     1      51.207   4.757  21.601  0.00  0.00    +0.000 HD
BRANCH   7   9
ATOM      9  C   UNL     1      51.767   6.678  21.027  0.00  0.00    +0.000 C 
ATOM     10  C   UNL     1      51.554   7.582  19.791  0.00  0.00    +0.000 C 
ATOM     11  C   UNL     1      52.994   8.087  19.945  0.00  0.00    +0.000 C 
ATOM     12  C   UNL     1      53.290   6.862  20.824  0.00  0.00    +0.000 C 
ENDBRANCH   7   9
ENDBRANCH   6   7
BRANCH   1  13
ATOM     13  O   UNL     1      52.632   4.232  18.446  0.00  0.00    +0.000 OA
BRANCH  13  15
ATOM     14  C   UNL     1      54.690   5.261  17.755  0.00  0.00    +0.000 C 
ATOM     15  C   UNL     1      53.205   5.121  17.482  0.00  0.00    +0.000 C 
ENDBRANCH  13  15
ENDBRANCH   1  13
BRANCH   3  16
ATOM     16  C   UNL     1      48.197   3.024  16.519  0.00  0.00    +0.000 C 
BRANCH  16  17
ATOM     17  C   UNL     1      47.003   3.877  16.089  0.00  0.00    +0.000 C 
BRANCH  17  18
ATOM     18  N   UNL     1      47.368   5.051  15.296  0.00  0.00    +0.000 N 
ATOM     19  C   UNL     1      46.707   5.024  14.043  0.00  0.00    +0.000 A 
ATOM     20  C   UNL     1      46.948   6.044  13.130  0.00  0.00    +0.000 A 
ATOM     21  C   UNL     1      46.312   6.009  11.885  0.00  0.00    +0.000 A 
ATOM     22  C   UNL     1      45.442   4.961  11.576  0.00  0.00    +0.000 A 
ATOM     23  C   UNL     1      45.236   4.008  12.553  0.00  0.00    +0.000 A 
ATOM     24  N   UNL     1      45.840   4.025  13.764  0.00  0.00    +0.000 NA
ATOM     25  H   UNL     1      48.370   5.111  15.127  0.00  0.00    +0.000 HD
BRANCH  22  26
ATOM     26  C   UNL     1      44.796   4.910  10.243  0.00  0.00    +0.000 C 
ATOM     27  N   UNL     1      45.533   5.221   9.133  0.00  0.00    +0.000 N 
ATOM     28  O   UNL     1      43.616   4.608  10.126  0.00  0.00    +0.000 OA
ATOM     29  H   UNL     1      46.495   5.523   9.117  0.00  0.00    +0.000 HD
ATOM     30  H   UNL     1      45.042   5.202   8.249  0.00  0.00    +0.000 HD
ENDBRANCH  22  26
ENDBRANCH  17  18
ENDBRANCH  16  17
ENDBRANCH   3  16
BRANCH   5  31
ATOM     31  O   UNL     1      48.691   5.128  20.973  0.00  0.00    +0.000 OA
BRANCH  31  32
ATOM     32  C   UNL     1      47.521   5.953  20.891  0.00  0.00    +0.000 C 
ATOM     33  C   UNL     1      47.716   7.358  21.447  0.00  0.00    +0.000 C 
ENDBRANCH  31  32
ENDBRANCH   5  31
TORSDOF 10
ENDMDL
