MODEL 1
REMARK VINA RESULT:    -7.955      0.000      0.000
REMARK INTER + INTRA:         -12.500
REMARK INTER:                 -11.210
REMARK INTRA:                  -1.290
REMARK UNBOUND:                -1.290
REMARK  Name = 
REMARK  7 active torsions:
REMARK  status: ('A' for Active; 'I' for Inactive)
REMARK    1  A    between atoms: C_2  and  C_20
REMARK    2  A    between atoms: N_3  and  C_4
REMARK    3  A    between atoms: C_4  and  C_5
REMARK    4  A    between atoms: C_8  and  C_9
REMARK    5  A    between atoms: C_9  and  O_10
REMARK    6  A    between atoms: O_10  and  C_11
REMARK    7  A    between atoms: C_11  and  C_12
REMARK                            x       y       z     vdW  Elec       q    Type
REMARK                         _______ _______ _______ _____ _____    ______ ____
ROOT
ATOM      1  C   UNL     1      46.865   7.544  13.138  0.00  0.00    +0.000 C 
ENDROOT
BRANCH   1   2
ATOM      2  C   UNL     1      46.043   6.454  12.502  0.00  0.00    +0.000 A 
ATOM      3  C   UNL     1      46.111   6.227  11.121  0.00  0.00    +0.000 A 
ATOM      4  C   UNL     1      45.386   5.184  10.529  0.00  0.00    +0.000 A 
ATOM      5  C   UNL     1      44.574   4.348  11.309  0.00  0.00    +0.000 A 
ATOM      6  C   UNL     1      44.500   4.584  12.688  0.00  0.00    +0.000 A 
ATOM      7  C   UNL     1      45.219   5.628  13.277  0.00  0.00    +0.000 A 
BRANCH   5   8
ATOM      8  C   UNL     1      43.767   3.235  10.684  0.00  0.00    +0.000 C 
BRANCH   8   9
ATOM      9  O   UNL     1      44.193   3.031   9.341  0.00  0.00    +0.000 OA
BRANCH   9  10
ATOM     10  C   UNL     1      45.035   1.885   9.205  0.00  0.00    +0.000 C 
BRANCH  10  11
ATOM     11  C   UNL     1      45.971   2.081   8.046  0.00  0.00    +0.000 A 
ATOM     12  C   UNL     1      46.005   3.263   7.299  0.00  0.00    +0.000 A 
ATOM     13  C   UNL     1      46.911   3.402   6.251  0.00  0.00    +0.000 A 
ATOM     14  C   UNL     1      47.772   2.351   5.989  0.00  0.00    +0.000 A 
ATOM     15  N   UNL     1      47.783   1.196   6.690  0.00  0.00    +0.000 NA
ATOM     16  C   UNL     1      46.886   1.091   7.698  0.00  0.00    +0.000 A 
ENDBRANCH  10  11
ENDBRANCH   9  10
ENDBRANCH   8   9
ENDBRANCH   5   8
ENDBRANCH   1   2
BRANCH   1  19
ATOM     17  O   UNL     1      49.528   6.892  13.629  0.00  0.00    +0.000 OA
ATOM     18  C   UNL     1      48.734   6.895  14.572  0.00  0.00    +0.000 C 
ATOM     19  N   UNL     1      47.402   7.173  14.418  0.00  0.00    +0.000 N 
ATOM     20  H   UNL     1      46.836   7.395  15.229  0.00  0.00    +0.000 HD
BRANCH  18  21
ATOM     21  C   UNL     1      49.172   6.553  15.921  0.00  0.00    +0.000 A 
ATOM     22  C   UNL     1      50.005   7.394  16.653  0.00  0.00    +0.000 A 
ATOM     23  S   UNL     1      50.346   6.798  18.216  0.00  0.00    +0.000 S 
ATOM     24  C   UNL     1      49.370   5.421  17.966  0.00  0.00    +0.000 A 
ATOM     25  N   UNL     1      49.200   4.488  18.937  0.00  0.00    +0.000 NA
ATOM     26  C   UNL     1      48.413   3.515  18.608  0.00  0.00    +0.000 A 
ATOM     27  N   UNL     1      47.786   3.390  17.394  0.00  0.00    +0.000 N 
ATOM     28  C   UNL     1      47.983   4.268  16.364  0.00  0.00    +0.000 A 
ATOM     29  O   UNL     1      47.515   4.042  15.254  0.00  0.00    +0.000 OA
ATOM     30  C   UNL     1      48.823   5.403  16.697  0.00  0.00    +0.000 A 
ATOM     31  H   UNL     1      47.216   2.581  17.181  0.00  0.00    +0.000 HD
ENDBRANCH  18  21
ENDBRANCH   1  19
TORSDOF 7
ENDMDL
MODEL 2
REMARK VINA RESULT:    -7.595      1.492      1.694
REMARK INTER + INTRA:         -11.993
REMARK INTER:                 -10.777
REMARK INTRA:                  -1.216
REMARK UNBOUND:                -1.290
REMARK  Name = 
REMARK  7 active torsions:
REMARK  status: ('A' for Active; 'I' for Inactive)
REMARK    1  A    between atoms: C_2  and  C_20
REMARK    2  A    between atoms: N_3  and  C_4
REMARK    3  A    between atoms: C_4  and  C_5
REMARK    4  A    between atoms: C_8  and  C_9
REMARK    5  A    between atoms: C_9  and  O_10
REMARK    6  A    between atoms: O_10  and  C_11
REMARK    7  A    between atoms: C_11  and  C_12
REMARK                            x       y       z     vdW  Elec       q    Type
REMARK                         _______ _______ _______ _____ _____    ______ ____
ROOT
ATOM      1  C   UNL     1      48.335   6.372  13.772  0.00  0.00    +0.000 C 
ENDROOT
BRANCH   1   2
ATOM      2  C   UNL     1      47.087   5.969  13.030  0.00  0.00    +0.000 A 
ATOM      3  C   UNL     1      46.824   6.481  11.753  0.00  0.00    +0.000 A 
ATOM      4  C   UNL     1      45.691   6.075  11.037  0.00  0.00    +0.000 A 
ATOM      5  C   UNL     1      44.793   5.149  11.588  0.00  0.00    +0.000 A 
ATOM      6  C   UNL     1      45.054   4.646  12.869  0.00  0.00    +0.000 A 
ATOM      7  C   UNL     1      46.182   5.058  13.586  0.00  0.00    +0.000 A 
BRANCH   5   8
ATOM      8  C   UNL     1      43.554   4.719  10.841  0.00  0.00    +0.000 C 
BRANCH   8   9
ATOM      9  O   UNL     1      43.913   4.256   9.543  0.00  0.00    +0.000 OA
BRANCH   9  10
ATOM     10  C   UNL     1      44.317   2.886   9.546  0.00  0.00    +0.000 C 
BRANCH  10  11
ATOM     11  C   UNL     1      45.407   2.678   8.532  0.00  0.00    +0.000 A 
ATOM     12  C   UNL     1      45.891   3.715   7.727  0.00  0.00    +0.000 A 
ATOM     13  C   UNL     1      46.921   3.473   6.822  0.00  0.00    +0.000 A 
ATOM     14  C   UNL     1      47.448   2.195   6.758  0.00  0.00    +0.000 A 
ATOM     15  N   UNL     1      47.019   1.167   7.522  0.00  0.00    +0.000 NA
ATOM     16  C   UNL     1      46.013   1.434   8.388  0.00  0.00    +0.000 A 
ENDBRANCH  10  11
ENDBRANCH   9  10
ENDBRANCH   8   9
ENDBRANCH   5   8
ENDBRANCH   1   2
BRANCH   1  19
ATOM     17  O   UNL     1      49.825   7.935  15.530  0.00  0.00    +0.000 OA
ATOM     18  C   UNL     1      48.921   7.229  15.983  0.00  0.00    +0.000 C 
ATOM     19  N   UNL     1      48.159   6.407  15.196  0.00  0.00    +0.000 N 
ATOM     20  H   UNL     1      47.290   6.030  15.556  0.00  0.00    +0.000 HD
BRANCH  18  21
ATOM     21  C   UNL     1      48.639   7.201  17.414  0.00  0.00    +0.000 A 
ATOM     22  C   UNL     1      48.148   8.317  18.083  0.00  0.00    +0.000 A 
ATOM     23  S   UNL     1      47.860   8.026  19.741  0.00  0.00    +0.000 S 
ATOM     24  C   UNL     1      48.355   6.400  19.600  0.00  0.00    +0.000 A 
ATOM     25  N   UNL     1      48.331   5.557  20.664  0.00  0.00    +0.000 NA
ATOM     26  C   UNL     1      48.712   4.350  20.396  0.00  0.00    +0.000 A 
ATOM     27  N   UNL     1      49.118   3.912  19.162  0.00  0.00    +0.000 N 
ATOM     28  C   UNL     1      49.223   4.741  18.079  0.00  0.00    +0.000 A 
ATOM     29  O   UNL     1      49.723   4.341  17.033  0.00  0.00    +0.000 OA
ATOM     30  C   UNL     1      48.765   6.097  18.316  0.00  0.00    +0.000 A 
ATOM     31  H   UNL     1      49.447   2.964  19.024  0.00  0.00    +0.000 HD
ENDBRANCH  18  21
ENDBRANCH   1  19
TORSDOF 7
ENDMDL
MODEL 3
REMARK VINA RESULT:    -7.332      2.348      3.014
REMARK INTER + INTRA:         -11.622
REMARK INTER:                 -10.619
REMARK INTRA:                  -1.003
REMARK UNBOUND:                -1.290
REMARK  Name = 
REMARK  7 active torsions:
REMARK  status: ('A' for Active; 'I' for Inactive)
REMARK    1  A    between atoms: C_2  and  C_20
REMARK    2  A    between atoms: N_3  and  C_4
REMARK    3  A    between atoms: C_4  and  C_5
REMARK    4  A    between atoms: C_8  and  C_9
REMARK    5  A    between atoms: C_9  and  O_10
REMARK    6  A    between atoms: O_10  and  C_11
REMARK    7  A    between atoms: C_11  and  C_12
REMARK                            x       y       z     vdW  Elec       q    Type
REMARK                         _______ _______ _______ _____ _____    ______ ____
ROOT
ATOM      1  C   UNL     1      48.603   6.912  14.566  0.00  0.00    +0.000 C 
ENDROOT
BRANCH   1   2
ATOM      2  C   UNL     1      47.631   6.261  13.618  0.00  0.00    +0.000 A 
ATOM      3  C   UNL     1      46.965   5.083  13.981  0.00  0.00    +0.000 A 
ATOM      4  C   UNL     1      46.023   4.498  13.124  0.00  0.00    +0.000 A 
ATOM      5  C   UNL     1      45.731   5.080  11.883  0.00  0.00    +0.000 A 
ATOM      6  C   UNL     1      46.405   6.253  11.518  0.00  0.00    +0.000 A 
ATOM      7  C   UNL     1      47.350   6.832  12.371  0.00  0.00    +0.000 A 
BRANCH   5   8
ATOM      8  C   UNL     1      44.737   4.450  10.936  0.00  0.00    +0.000 C 
BRANCH   8   9
ATOM      9  O   UNL     1      45.044   4.828   9.598  0.00  0.00    +0.000 OA
BRANCH   9  10
ATOM     10  C   UNL     1      44.470   3.941   8.637  0.00  0.00    +0.000 C 
BRANCH  10  11
ATOM     11  C   UNL     1      45.535   3.038   8.083  0.00  0.00    +0.000 A 
ATOM     12  C   UNL     1      46.521   3.492   7.200  0.00  0.00    +0.000 A 
ATOM     13  C   UNL     1      47.501   2.618   6.738  0.00  0.00    +0.000 A 
ATOM     14  C   UNL     1      47.474   1.309   7.187  0.00  0.00    +0.000 A 
ATOM     15  N   UNL     1      46.549   0.830   8.046  0.00  0.00    +0.000 NA
ATOM     16  C   UNL     1      45.607   1.704   8.472  0.00  0.00    +0.000 A 
ENDBRANCH  10  11
ENDBRANCH   9  10
ENDBRANCH   8   9
ENDBRANCH   5   8
ENDBRANCH   1   2
BRANCH   1  19
ATOM     17  O   UNL     1      50.481   5.943  16.381  0.00  0.00    +0.000 OA
ATOM     18  C   UNL     1      49.332   6.160  16.773  0.00  0.00    +0.000 C 
ATOM     19  N   UNL     1      48.338   6.607  15.944  0.00  0.00    +0.000 N 
ATOM     20  H   UNL     1      47.488   6.992  16.340  0.00  0.00    +0.000 HD
BRANCH  18  21
ATOM     21  C   UNL     1      48.955   5.905  18.159  0.00  0.00    +0.000 A 
ATOM     22  C   UNL     1      49.170   4.668  18.758  0.00  0.00    +0.000 A 
ATOM     23  S   UNL     1      48.683   4.627  20.394  0.00  0.00    +0.000 S 
ATOM     24  C   UNL     1      48.200   6.262  20.351  0.00  0.00    +0.000 A 
ATOM     25  N   UNL     1      47.702   6.883  21.450  0.00  0.00    +0.000 NA
ATOM     26  C   UNL     1      47.402   8.129  21.269  0.00  0.00    +0.000 A 
ATOM     27  N   UNL     1      47.553   8.807  20.086  0.00  0.00    +0.000 N 
ATOM     28  C   UNL     1      47.986   8.205  18.937  0.00  0.00    +0.000 A 
ATOM     29  O   UNL     1      47.972   8.812  17.872  0.00  0.00    +0.000 OA
ATOM     30  C   UNL     1      48.377   6.817  19.098  0.00  0.00    +0.000 A 
ATOM     31  H   UNL     1      47.260   9.771  19.995  0.00  0.00    +0.000 HD
ENDBRANCH  18  21
ENDBRANCH   1  19
TORSDOF 7
ENDMDL
MODEL 4
REMARK VINA RESULT:    -7.104      2.362      3.403
REMARK INTER + INTRA:         -11.301
REMARK INTER:                 -10.346
REMARK INTRA:                  -0.954
REMARK UNBOUND:                -1.290
REMARK  Name = 
REMARK  7 active torsions:
REMARK  status: ('A' for Active; 'I' for Inactive)
REMARK    1  A    between atoms: C_2  and  C_20
REMARK    2  A    between atoms: N_3  and  C_4
REMARK    3  A    between atoms: C_4  and  C_5
REMARK    4  A    between atoms: C_8  and  C_9
REMARK    5  A    between atoms: C_9  and  O_10
REMARK    6  A    between atoms: O_10  and  C_11
REMARK    7  A    between atoms: C_11  and  C_12
REMARK                            x       y       z     vdW  Elec       q    Type
REMARK                         _______ _______ _______ _____ _____    ______ ____
ROOT
ATOM      1  C   UNL     1      47.524   4.197  15.374  0.00  0.00    +0.000 C 
ENDROOT
BRANCH   1   2
ATOM      2  C   UNL     1      46.902   4.668  14.086  0.00  0.00    +0.000 A 
ATOM      3  C   UNL     1      47.377   5.822  13.448  0.00  0.00    +0.000 A 
ATOM      4  C   UNL     1      46.836   6.239  12.225  0.00  0.00    +0.000 A 
ATOM      5  C   UNL     1      45.804   5.510  11.616  0.00  0.00    +0.000 A 
ATOM      6  C   UNL     1      45.325   4.363  12.261  0.00  0.00    +0.000 A 
ATOM      7  C   UNL     1      45.861   3.950  13.485  0.00  0.00    +0.000 A 
BRANCH   5   8
ATOM      8  C   UNL     1      45.193   5.959  10.310  0.00  0.00    +0.000 C 
BRANCH   8   9
ATOM      9  O   UNL     1      45.788   5.245   9.232  0.00  0.00    +0.000 OA
BRANCH   9  10
ATOM     10  C   UNL     1      44.939   4.213   8.728  0.00  0.00    +0.000 C 
BRANCH  10  11
ATOM     11  C   UNL     1      45.776   3.116   8.132  0.00  0.00    +0.000 A 
ATOM     12  C   UNL     1      46.751   3.359   7.159  0.00  0.00    +0.000 A 
ATOM     13  C   UNL     1      47.517   2.309   6.661  0.00  0.00    +0.000 A 
ATOM     14  C   UNL     1      47.293   1.039   7.165  0.00  0.00    +0.000 A 
ATOM     15  N   UNL     1      46.370   0.760   8.111  0.00  0.00    +0.000 NA
ATOM     16  C   UNL     1      45.638   1.802   8.570  0.00  0.00    +0.000 A 
ENDBRANCH  10  11
ENDBRANCH   9  10
ENDBRANCH   8   9
ENDBRANCH   5   8
ENDBRANCH   1   2
BRANCH   1  19
ATOM     17  O   UNL     1      49.705   5.477  16.542  0.00  0.00    +0.000 OA
ATOM     18  C   UNL     1      48.570   5.769  16.925  0.00  0.00    +0.000 C 
ATOM     19  N   UNL     1      47.444   5.169  16.428  0.00  0.00    +0.000 N 
ATOM     20  H   UNL     1      46.536   5.591  16.589  0.00  0.00    +0.000 HD
BRANCH  18  21
ATOM     21  C   UNL     1      48.367   6.759  17.977  0.00  0.00    +0.000 A 
ATOM     22  C   UNL     1      48.338   6.400  19.320  0.00  0.00    +0.000 A 
ATOM     23  S   UNL     1      48.129   7.735  20.363  0.00  0.00    +0.000 S 
ATOM     24  C   UNL     1      48.099   8.826  19.052  0.00  0.00    +0.000 A 
ATOM     25  N   UNL     1      47.969  10.163  19.246  0.00  0.00    +0.000 NA
ATOM     26  C   UNL     1      47.988  10.864  18.158  0.00  0.00    +0.000 A 
ATOM     27  N   UNL     1      48.121  10.346  16.895  0.00  0.00    +0.000 N 
ATOM     28  C   UNL     1      48.186   9.003  16.648  0.00  0.00    +0.000 A 
ATOM     29  O   UNL     1      48.163   8.578  15.498  0.00  0.00    +0.000 OA
ATOM     30  C   UNL     1      48.213   8.175  17.839  0.00  0.00    +0.000 A 
ATOM     31  H   UNL     1      48.086  10.943  16.079  0.00  0.00    +0.000 HD
ENDBRANCH  18  21
ENDBRANCH   1  19
TORSDOF 7
ENDMDL
MODEL 5
REMARK VINA RESULT:    -6.865      3.456      8.147
REMARK INTER + INTRA:         -10.965
REMARK INTER:                  -9.462
REMARK INTRA:                  -1.502
REMARK UNBOUND:                -1.290
REMARK  Name = 
REMARK  7 active torsions:
REMARK  status: ('A' for Active; 'I' for Inactive)
REMARK    1  A    between atoms: C_2  and  C_20
REMARK    2  A    between atoms: N_3  and  C_4
REMARK    3  A    between atoms: C_4  and  C_5
REMARK    4  A    between atoms: C_8  and  C_9
REMARK    5  A    between atoms: C_9  and  O_10
REMARK    6  A    between atoms: O_10  and  C_11
REMARK    7  A    between atoms: C_11  and  C_12
REMARK                            x       y       z     vdW  Elec       q    Type
REMARK                         _______ _______ _______ _____ _____    ______ ____
ROOT
ATOM      1  C   UNL     1      48.211   8.118  12.025  0.00  0.00    +0.000 C 
ENDROOT
BRANCH   1   2
ATOM      2  C   UNL     1      48.395   8.040  13.518  0.00  0.00    +0.000 A 
ATOM      3  C   UNL     1      48.985   6.912  14.103  0.00  0.00    +0.000 A 
ATOM      4  C   UNL     1      49.203   6.853  15.486  0.00  0.00    +0.000 A 
ATOM      5  C   UNL     1      48.831   7.922  16.313  0.00  0.00    +0.000 A 
ATOM      6  C   UNL     1      48.232   9.045  15.726  0.00  0.00    +0.000 A 
ATOM      7  C   UNL     1      48.009   9.100  14.347  0.00  0.00    +0.000 A 
BRANCH   5   8
ATOM      8  C   UNL     1      49.036   7.865  17.808  0.00  0.00    +0.000 C 
BRANCH   8   9
ATOM      9  O   UNL     1      47.864   7.354  18.433  0.00  0.00    +0.000 OA
BRANCH   9  10
ATOM     10  C   UNL     1      48.136   6.217  19.253  0.00  0.00    +0.000 C 
BRANCH  10  11
ATOM     11  C   UNL     1      48.167   4.977  18.404  0.00  0.00    +0.000 A 
ATOM     12  C   UNL     1      49.320   4.199  18.252  0.00  0.00    +0.000 A 
ATOM     13  C   UNL     1      49.285   3.045  17.475  0.00  0.00    +0.000 A 
ATOM     14  C   UNL     1      48.086   2.693  16.880  0.00  0.00    +0.000 A 
ATOM     15  N   UNL     1      46.947   3.408  17.007  0.00  0.00    +0.000 NA
ATOM     16  C   UNL     1      47.016   4.527  17.765  0.00  0.00    +0.000 A 
ENDBRANCH  10  11
ENDBRANCH   9  10
ENDBRANCH   8   9
ENDBRANCH   5   8
ENDBRANCH   1   2
BRANCH   1  19
ATOM     17  O   UNL     1      45.465   7.964  11.587  0.00  0.00    +0.000 OA
ATOM     18  C   UNL     1      46.172   7.003  11.272  0.00  0.00    +0.000 C 
ATOM     19  N   UNL     1      47.525   6.980  11.480  0.00  0.00    +0.000 N 
ATOM     20  H   UNL     1      48.096   6.290  11.005  0.00  0.00    +0.000 HD
BRANCH  18  21
ATOM     21  C   UNL     1      45.584   5.801  10.692  0.00  0.00    +0.000 A 
ATOM     22  C   UNL     1      45.797   5.454   9.362  0.00  0.00    +0.000 A 
ATOM     23  S   UNL     1      45.041   3.986   8.927  0.00  0.00    +0.000 S 
ATOM     24  C   UNL     1      44.437   3.763  10.506  0.00  0.00    +0.000 A 
ATOM     25  N   UNL     1      43.707   2.668  10.837  0.00  0.00    +0.000 NA
ATOM     26  C   UNL     1      43.340   2.628  12.078  0.00  0.00    +0.000 A 
ATOM     27  N   UNL     1      43.634   3.586  13.014  0.00  0.00    +0.000 N 
ATOM     28  C   UNL     1      44.307   4.737  12.710  0.00  0.00    +0.000 A 
ATOM     29  O   UNL     1      44.425   5.629  13.542  0.00  0.00    +0.000 OA
ATOM     30  C   UNL     1      44.779   4.811  11.340  0.00  0.00    +0.000 A 
ATOM     31  H   UNL     1      43.281   3.519  13.960  0.00  0.00    +0.000 HD
ENDBRANCH  18  21
ENDBRANCH   1  19
TORSDOF 7
ENDMDL
MODEL 6
REMARK VINA RESULT:    -6.842      2.897      8.438
REMARK INTER + INTRA:         -10.932
REMARK INTER:                  -9.444
REMARK INTRA:                  -1.487
REMARK UNBOUND:                -1.290
REMARK  Name = 
REMARK  7 active torsions:
REMARK  status: ('A' for Active; 'I' for Inactive)
REMARK    1  A    between atoms: C_2  and  C_20
REMARK    2  A    between atoms: N_3  and  C_4
REMARK    3  A    between atoms: C_4  and  C_5
REMARK    4  A    between atoms: C_8  and  C_9
REMARK    5  A    between atoms: C_9  and  O_10
REMARK    6  A    between atoms: O_10  and  C_11
REMARK    7  A    between atoms: C_11  and  C_12
REMARK                            x       y       z     vdW  Elec       q    Type
REMARK                         _______ _______ _______ _____ _____    ______ ____
ROOT
ATOM      1  C   UNL     1      47.631   7.728  11.854  0.00  0.00    +0.000 C 
ENDROOT
BRANCH   1   2
ATOM      2  C   UNL     1      48.192   7.924  13.238  0.00  0.00    +0.000 A 
ATOM      3  C   UNL     1      47.677   8.919  14.078  0.00  0.00    +0.000 A 
ATOM      4  C   UNL     1      48.160   9.076  15.384  0.00  0.00    +0.000 A 
ATOM      5  C   UNL     1      49.173   8.239  15.874  0.00  0.00    +0.000 A 
ATOM      6  C   UNL     1      49.692   7.251  15.029  0.00  0.00    +0.000 A 
ATOM      7  C   UNL     1      49.214   7.100  13.723  0.00  0.00    +0.000 A 
BRANCH   5   8
ATOM      8  C   UNL     1      49.723   8.410  17.271  0.00  0.00    +0.000 C 
BRANCH   8   9
ATOM      9  O   UNL     1      50.038   7.135  17.820  0.00  0.00    +0.000 OA
BRANCH   9  10
ATOM     10  C   UNL     1      48.922   6.535  18.480  0.00  0.00    +0.000 C 
BRANCH  10  11
ATOM     11  C   UNL     1      48.688   5.158  17.925  0.00  0.00    +0.000 A 
ATOM     12  C   UNL     1      47.410   4.601  17.812  0.00  0.00    +0.000 A 
ATOM     13  C   UNL     1      47.248   3.331  17.266  0.00  0.00    +0.000 A 
ATOM     14  C   UNL     1      48.377   2.656  16.834  0.00  0.00    +0.000 A 
ATOM     15  N   UNL     1      49.628   3.158  16.915  0.00  0.00    +0.000 NA
ATOM     16  C   UNL     1      49.752   4.393  17.456  0.00  0.00    +0.000 A 
ENDBRANCH  10  11
ENDBRANCH   9  10
ENDBRANCH   8   9
ENDBRANCH   5   8
ENDBRANCH   1   2
BRANCH   1  19
ATOM     17  O   UNL     1      44.864   7.424  11.931  0.00  0.00    +0.000 OA
ATOM     18  C   UNL     1      45.565   6.431  11.722  0.00  0.00    +0.000 C 
ATOM     19  N   UNL     1      46.933   6.483  11.698  0.00  0.00    +0.000 N 
ATOM     20  H   UNL     1      47.458   5.714  11.297  0.00  0.00    +0.000 HD
BRANCH  18  21
ATOM     21  C   UNL     1      44.962   5.116  11.529  0.00  0.00    +0.000 A 
ATOM     22  C   UNL     1      44.256   4.481  12.545  0.00  0.00    +0.000 A 
ATOM     23  S   UNL     1      43.612   2.974  12.067  0.00  0.00    +0.000 S 
ATOM     24  C   UNL     1      44.235   3.144  10.489  0.00  0.00    +0.000 A 
ATOM     25  N   UNL     1      44.022   2.200   9.537  0.00  0.00    +0.000 NA
ATOM     26  C   UNL     1      44.536   2.480   8.383  0.00  0.00    +0.000 A 
ATOM     27  N   UNL     1      45.245   3.619   8.097  0.00  0.00    +0.000 N 
ATOM     28  C   UNL     1      45.542   4.564   9.040  0.00  0.00    +0.000 A 
ATOM     29  O   UNL     1      46.296   5.494   8.776  0.00  0.00    +0.000 OA
ATOM     30  C   UNL     1      44.951   4.317  10.342  0.00  0.00    +0.000 A 
ATOM     31  H   UNL     1      45.660   3.762   7.185  0.00  0.00    +0.000 HD
ENDBRANCH  18  21
ENDBRANCH   1  19
TORSDOF 7
ENDMDL
MODEL 7
REMARK VINA RESULT:    -6.793      2.567      4.357
REMARK INTER + INTRA:         -10.862
REMARK INTER:                  -9.783
REMARK INTRA:                  -1.079
REMARK UNBOUND:                -1.290
REMARK  Name = 
REMARK  7 active torsions:
REMARK  status: ('A' for Active; 'I' for Inactive)
REMARK    1  A    between atoms: C_2  and  C_20
REMARK    2  A    between atoms: N_3  and  C_4
REMARK    3  A    between atoms: C_4  and  C_5
REMARK    4  A    between atoms: C_8  and  C_9
REMARK    5  A    between atoms: C_9  and  O_10
REMARK    6  A    between atoms: O_10  and  C_11
REMARK    7  A    between atoms: C_11  and  C_12
REMARK                            x       y       z     vdW  Elec       q    Type
REMARK                         _______ _______ _______ _____ _____    ______ ____
ROOT
ATOM      1  C   UNL     1      47.635   5.622  14.457  0.00  0.00    +0.000 C 
ENDROOT
BRANCH   1   2
ATOM      2  C   UNL     1      46.665   5.098  13.430  0.00  0.00    +0.000 A 
ATOM      3  C   UNL     1      46.099   5.962  12.483  0.00  0.00    +0.000 A 
ATOM      4  C   UNL     1      45.234   5.475  11.495  0.00  0.00    +0.000 A 
ATOM      5  C   UNL     1      44.914   4.111  11.437  0.00  0.00    +0.000 A 
ATOM      6  C   UNL     1      45.473   3.251  12.391  0.00  0.00    +0.000 A 
ATOM      7  C   UNL     1      46.332   3.739  13.381  0.00  0.00    +0.000 A 
BRANCH   5   8
ATOM      8  C   UNL     1      43.964   3.572  10.394  0.00  0.00    +0.000 C 
BRANCH   8   9
ATOM      9  O   UNL     1      44.640   3.451   9.147  0.00  0.00    +0.000 OA
BRANCH   9  10
ATOM     10  C   UNL     1      45.331   2.207   9.021  0.00  0.00    +0.000 C 
BRANCH  10  11
ATOM     11  C   UNL     1      46.150   2.210   7.761  0.00  0.00    +0.000 A 
ATOM     12  C   UNL     1      46.126   3.272   6.851  0.00  0.00    +0.000 A 
ATOM     13  C   UNL     1      46.926   3.235   5.713  0.00  0.00    +0.000 A 
ATOM     14  C   UNL     1      47.742   2.134   5.524  0.00  0.00    +0.000 A 
ATOM     15  N   UNL     1      47.806   1.091   6.379  0.00  0.00    +0.000 NA
ATOM     16  C   UNL     1      47.012   1.155   7.474  0.00  0.00    +0.000 A 
ENDBRANCH  10  11
ENDBRANCH   9  10
ENDBRANCH   8   9
ENDBRANCH   5   8
ENDBRANCH   1   2
BRANCH   1  19
ATOM     17  O   UNL     1      50.037   6.951  14.923  0.00  0.00    +0.000 OA
ATOM     18  C   UNL     1      49.045   7.611  14.606  0.00  0.00    +0.000 C 
ATOM     19  N   UNL     1      47.817   7.044  14.388  0.00  0.00    +0.000 N 
ATOM     20  H   UNL     1      47.097   7.572  13.908  0.00  0.00    +0.000 HD
BRANCH  18  21
ATOM     21  C   UNL     1      49.119   9.063  14.486  0.00  0.00    +0.000 A 
ATOM     22  C   UNL     1      49.346   9.876  15.591  0.00  0.00    +0.000 A 
ATOM     23  S   UNL     1      49.431  11.534  15.193  0.00  0.00    +0.000 S 
ATOM     24  C   UNL     1      49.195  11.206  13.536  0.00  0.00    +0.000 A 
ATOM     25  N   UNL     1      49.184  12.200  12.612  0.00  0.00    +0.000 NA
ATOM     26  C   UNL     1      49.019  11.794  11.394  0.00  0.00    +0.000 A 
ATOM     27  N   UNL     1      48.861  10.484  11.020  0.00  0.00    +0.000 N 
ATOM     28  C   UNL     1      48.797   9.458  11.921  0.00  0.00    +0.000 A 
ATOM     29  O   UNL     1      48.514   8.323  11.555  0.00  0.00    +0.000 OA
ATOM     30  C   UNL     1      49.021   9.856  13.299  0.00  0.00    +0.000 A 
ATOM     31  H   UNL     1      48.693  10.233  10.054  0.00  0.00    +0.000 HD
ENDBRANCH  18  21
ENDBRANCH   1  19
TORSDOF 7
ENDMDL
MODEL 8
REMARK VINA RESULT:    -6.597      3.836      8.319
REMARK INTER + INTRA:         -10.586
REMARK INTER:                  -8.845
REMARK INTRA:                  -1.741
REMARK UNBOUND:                -1.290
REMARK  Name = 
REMARK  7 active torsions:
REMARK  status: ('A' for Active; 'I' for Inactive)
REMARK    1  A    between atoms: C_2  and  C_20
REMARK    2  A    between atoms: N_3  and  C_4
REMARK    3  A    between atoms: C_4  and  C_5
REMARK    4  A    between atoms: C_8  and  C_9
REMARK    5  A    between atoms: C_9  and  O_10
REMARK    6  A    between atoms: O_10  and  C_11
REMARK    7  A    between atoms: C_11  and  C_12
REMARK                            x       y       z     vdW  Elec       q    Type
REMARK                         _______ _______ _______ _____ _____    ______ ____
ROOT
ATOM      1  C   UNL     1      48.399   8.346  14.516  0.00  0.00    +0.000 C 
ENDROOT
BRANCH   1   2
ATOM      2  C   UNL     1      49.037   7.878  15.798  0.00  0.00    +0.000 A 
ATOM      3  C   UNL     1      50.179   7.068  15.767  0.00  0.00    +0.000 A 
ATOM      4  C   UNL     1      50.807   6.668  16.955  0.00  0.00    +0.000 A 
ATOM      5  C   UNL     1      50.300   7.070  18.199  0.00  0.00    +0.000 A 
ATOM      6  C   UNL     1      49.152   7.872  18.226  0.00  0.00    +0.000 A 
ATOM      7  C   UNL     1      48.522   8.265  17.041  0.00  0.00    +0.000 A 
BRANCH   5   8
ATOM      8  C   UNL     1      50.949   6.629  19.489  0.00  0.00    +0.000 C 
BRANCH   8   9
ATOM      9  O   UNL     1      50.954   5.207  19.561  0.00  0.00    +0.000 OA
BRANCH   9  10
ATOM     10  C   UNL     1      49.671   4.674  19.891  0.00  0.00    +0.000 C 
BRANCH  10  11
ATOM     11  C   UNL     1      49.025   4.111  18.656  0.00  0.00    +0.000 A 
ATOM     12  C   UNL     1      47.748   4.495  18.235  0.00  0.00    +0.000 A 
ATOM     13  C   UNL     1      47.208   3.962  17.068  0.00  0.00    +0.000 A 
ATOM     14  C   UNL     1      47.973   3.063  16.345  0.00  0.00    +0.000 A 
ATOM     15  N   UNL     1      49.213   2.671  16.708  0.00  0.00    +0.000 NA
ATOM     16  C   UNL     1      49.707   3.204  17.850  0.00  0.00    +0.000 A 
ENDBRANCH  10  11
ENDBRANCH   9  10
ENDBRANCH   8   9
ENDBRANCH   5   8
ENDBRANCH   1   2
BRANCH   1  19
ATOM     17  O   UNL     1      48.786   6.180  12.809  0.00  0.00    +0.000 OA
ATOM     18  C   UNL     1      47.650   6.409  13.230  0.00  0.00    +0.000 C 
ATOM     19  N   UNL     1      47.363   7.469  14.048  0.00  0.00    +0.000 N 
ATOM     20  H   UNL     1      46.485   7.490  14.555  0.00  0.00    +0.000 HD
BRANCH  18  21
ATOM     21  C   UNL     1      46.523   5.570  12.836  0.00  0.00    +0.000 A 
ATOM     22  C   UNL     1      46.515   4.200  13.073  0.00  0.00    +0.000 A 
ATOM     23  S   UNL     1      45.073   3.443  12.559  0.00  0.00    +0.000 S 
ATOM     24  C   UNL     1      44.414   4.927  12.036  0.00  0.00    +0.000 A 
ATOM     25  N   UNL     1      43.168   4.999  11.503  0.00  0.00    +0.000 NA
ATOM     26  C   UNL     1      42.797   6.195  11.175  0.00  0.00    +0.000 A 
ATOM     27  N   UNL     1      43.564   7.323  11.329  0.00  0.00    +0.000 N 
ATOM     28  C   UNL     1      44.848   7.288  11.796  0.00  0.00    +0.000 A 
ATOM     29  O   UNL     1      45.544   8.297  11.784  0.00  0.00    +0.000 OA
ATOM     30  C   UNL     1      45.296   5.974  12.219  0.00  0.00    +0.000 A 
ATOM     31  H   UNL     1      43.234   8.226  11.012  0.00  0.00    +0.000 HD
ENDBRANCH  18  21
ENDBRANCH   1  19
TORSDOF 7
ENDMDL
MODEL 9
REMARK VINA RESULT:    -6.575      4.303      9.363
REMARK INTER + INTRA:         -10.556
REMARK INTER:                  -9.430
REMARK INTRA:                  -1.126
REMARK UNBOUND:                -1.290
REMARK  Name = 
REMARK  7 active torsions:
REMARK  status: ('A' for Active; 'I' for Inactive)
REMARK    1  A    between atoms: C_2  and  C_20
REMARK    2  A    between atoms: N_3  and  C_4
REMARK    3  A    between atoms: C_4  and  C_5
REMARK    4  A    between atoms: C_8  and  C_9
REMARK    5  A    between atoms: C_9  and  O_10
REMARK    6  A    between atoms: O_10  and  C_11
REMARK    7  A    between atoms: C_11  and  C_12
REMARK                            x       y       z     vdW  Elec       q    Type
REMARK                         _______ _______ _______ _____ _____    ______ ____
ROOT
ATOM      1  C   UNL     1      47.320   3.408  16.785  0.00  0.00    +0.000 C 
ENDROOT
BRANCH   1   2
ATOM      2  C   UNL     1      48.721   3.585  17.307  0.00  0.00    +0.000 A 
ATOM      3  C   UNL     1      49.696   2.607  17.072  0.00  0.00    +0.000 A 
ATOM      4  C   UNL     1      51.014   2.786  17.512  0.00  0.00    +0.000 A 
ATOM      5  C   UNL     1      51.382   3.950  18.202  0.00  0.00    +0.000 A 
ATOM      6  C   UNL     1      50.404   4.923  18.444  0.00  0.00    +0.000 A 
ATOM      7  C   UNL     1      49.087   4.740  18.010  0.00  0.00    +0.000 A 
BRANCH   5   8
ATOM      8  C   UNL     1      52.792   4.149  18.705  0.00  0.00    +0.000 C 
BRANCH   8   9
ATOM      9  O   UNL     1      53.708   4.038  17.621  0.00  0.00    +0.000 OA
BRANCH   9  10
ATOM     10  C   UNL     1      54.937   3.422  18.007  0.00  0.00    +0.000 C 
BRANCH  10  11
ATOM     11  C   UNL     1      54.732   1.942  18.168  0.00  0.00    +0.000 A 
ATOM     12  C   UNL     1      54.385   1.112  17.098  0.00  0.00    +0.000 A 
ATOM     13  C   UNL     1      54.234  -0.258  17.298  0.00  0.00    +0.000 A 
ATOM     14  C   UNL     1      54.449  -0.761  18.569  0.00  0.00    +0.000 A 
ATOM     15  N   UNL     1      54.796   0.002  19.628  0.00  0.00    +0.000 NA
ATOM     16  C   UNL     1      54.930   1.330  19.402  0.00  0.00    +0.000 A 
ENDBRANCH  10  11
ENDBRANCH   9  10
ENDBRANCH   8   9
ENDBRANCH   5   8
ENDBRANCH   1   2
BRANCH   1  19
ATOM     17  O   UNL     1      47.339   3.194  14.008  0.00  0.00    +0.000 OA
ATOM     18  C   UNL     1      46.936   4.241  14.520  0.00  0.00    +0.000 C 
ATOM     19  N   UNL     1      46.921   4.444  15.875  0.00  0.00    +0.000 N 
ATOM     20  H   UNL     1      46.375   5.205  16.263  0.00  0.00    +0.000 HD
BRANCH  18  21
ATOM     21  C   UNL     1      46.487   5.355  13.692  0.00  0.00    +0.000 A 
ATOM     22  C   UNL     1      47.273   6.486  13.501  0.00  0.00    +0.000 A 
ATOM     23  S   UNL     1      46.552   7.631  12.462  0.00  0.00    +0.000 S 
ATOM     24  C   UNL     1      45.187   6.637  12.220  0.00  0.00    +0.000 A 
ATOM     25  N   UNL     1      44.173   7.014  11.401  0.00  0.00    +0.000 NA
ATOM     26  C   UNL     1      43.219   6.144  11.299  0.00  0.00    +0.000 A 
ATOM     27  N   UNL     1      43.189   4.935  11.946  0.00  0.00    +0.000 N 
ATOM     28  C   UNL     1      44.154   4.544  12.832  0.00  0.00    +0.000 A 
ATOM     29  O   UNL     1      44.018   3.521  13.493  0.00  0.00    +0.000 OA
ATOM     30  C   UNL     1      45.269   5.466  12.949  0.00  0.00    +0.000 A 
ATOM     31  H   UNL     1      42.394   4.315  11.860  0.00  0.00    +0.000 HD
ENDBRANCH  18  21
ENDBRANCH   1  19
TORSDOF 7
ENDMDL
