MODEL 1
REMARK VINA RESULT:    -8.854      0.000      0.000
REMARK INTER + INTRA:         -13.276
REMARK INTER:                 -11.959
REMARK INTRA:                  -1.317
REMARK UNBOUND:                -1.317
REMARK  Name = 
REMARK  7 active torsions:
REMARK  status: ('A' for Active; 'I' for Inactive)
REMARK    1  A    between atoms: C_1  and  C_2
REMARK    2  A    between atoms: C_2  and  C_3
REMARK    3  A    between atoms: C_2  and  C_15
REMARK    4  A    between atoms: C_3  and  O_4
REMARK    5  A    between atoms: O_4  and  C_5
REMARK    6  A    between atoms: C_8  and  C_9
REMARK    7  A    between atoms: C_19  and  C_20
REMARK                            x       y       z     vdW  Elec       q    Type
REMARK                         _______ _______ _______ _____ _____    ______ ____
ROOT
ATOM      1  C   UNL     1      43.615   3.248  12.599  0.00  0.00    +0.000 C 
ATOM      2  C   UNL     1      43.823   4.627  11.974  0.00  0.00    +0.000 C 
ENDROOT
BRANCH   2   3
ATOM      3  C   UNL     1      45.199   5.173  12.316  0.00  0.00    +0.000 A 
ATOM      4  C   UNL     1      45.843   6.126  11.521  0.00  0.00    +0.000 A 
ATOM      5  C   UNL     1      47.088   6.624  11.893  0.00  0.00    +0.000 A 
ATOM      6  C   UNL     1      47.695   6.188  13.074  0.00  0.00    +0.000 A 
ATOM      7  C   UNL     1      47.061   5.265  13.923  0.00  0.00    +0.000 A 
ATOM      8  C   UNL     1      45.822   4.751  13.501  0.00  0.00    +0.000 A 
BRANCH   7   9
ATOM      9  C   UNL     1      47.602   4.921  15.259  0.00  0.00    +0.000 A 
ATOM     10  C   UNL     1      47.323   3.674  15.850  0.00  0.00    +0.000 A 
ATOM     11  C   UNL     1      47.929   3.278  17.040  0.00  0.00    +0.000 A 
ATOM     12  C   UNL     1      48.839   4.119  17.675  0.00  0.00    +0.000 A 
ATOM     13  C   UNL     1      49.115   5.369  17.130  0.00  0.00    +0.000 A 
ATOM     14  C   UNL     1      48.491   5.770  15.944  0.00  0.00    +0.000 A 
ENDBRANCH   7   9
ENDBRANCH   2   3
BRANCH   2  15
ATOM     15  C   UNL     1      43.589   4.599  10.453  0.00  0.00    +0.000 C 
BRANCH  15  16
ATOM     16  O   UNL     1      43.750   3.255   9.983  0.00  0.00    +0.000 OA
BRANCH  16  17
ATOM     17  C   UNL     1      44.720   3.029   9.050  0.00  0.00    +0.000 A 
ATOM     18  C   UNL     1      45.311   3.998   8.238  0.00  0.00    +0.000 A 
ATOM     19  C   UNL     1      46.319   3.639   7.335  0.00  0.00    +0.000 A 
ATOM     20  C   UNL     1      46.747   2.307   7.232  0.00  0.00    +0.000 A 
ATOM     21  C   UNL     1      46.141   1.349   8.043  0.00  0.00    +0.000 A 
ATOM     22  F   UNL     1      46.507   0.058   7.986  0.00  0.00    +0.000 F 
ATOM     23  C   UNL     1      45.135   1.702   8.942  0.00  0.00    +0.000 A 
BRANCH  20  24
ATOM     24  C   UNL     1      47.833   1.988   6.272  0.00  0.00    +0.000 C 
ATOM     25  N   UNL     1      48.977   2.730   6.321  0.00  0.00    +0.000 N 
ATOM     26  O   UNL     1      47.713   1.085   5.452  0.00  0.00    +0.000 OA
ATOM     27  H   UNL     1      49.120   3.484   6.982  0.00  0.00    +0.000 HD
ATOM     28  H   UNL     1      49.715   2.512   5.665  0.00  0.00    +0.000 HD
ENDBRANCH  20  24
ENDBRANCH  16  17
ENDBRANCH  15  16
ENDBRANCH   2  15
TORSDOF 6
ENDMDL
MODEL 2
REMARK VINA RESULT:    -8.296      1.708      3.641
REMARK INTER + INTRA:         -12.523
REMARK INTER:                 -11.259
REMARK INTRA:                  -1.264
REMARK UNBOUND:                -1.317
REMARK  Name = 
REMARK  7 active torsions:
REMARK  status: ('A' for Active; 'I' for Inactive)
REMARK    1  A    between atoms: C_1  and  C_2
REMARK    2  A    between atoms: C_2  and  C_3
REMARK    3  A    between atoms: C_2  and  C_15
REMARK    4  A    between atoms: C_3  and  O_4
REMARK    5  A    between atoms: O_4  and  C_5
REMARK    6  A    between atoms: C_8  and  C_9
REMARK    7  A    between atoms: C_19  and  C_20
REMARK                            x       y       z     vdW  Elec       q    Type
REMARK                         _______ _______ _______ _____ _____    ______ ____
ROOT
ATOM      1  C   UNL     1      43.231   3.740  12.858  0.00  0.00    +0.000 C 
ATOM      2  C   UNL     1      43.699   5.043  12.212  0.00  0.00    +0.000 C 
ENDROOT
BRANCH   2   3
ATOM      3  C   UNL     1      45.093   5.414  12.694  0.00  0.00    +0.000 A 
ATOM      4  C   UNL     1      45.926   4.497  13.343  0.00  0.00    +0.000 A 
ATOM      5  C   UNL     1      47.208   4.871  13.735  0.00  0.00    +0.000 A 
ATOM      6  C   UNL     1      47.677   6.159  13.465  0.00  0.00    +0.000 A 
ATOM      7  C   UNL     1      46.888   7.095  12.776  0.00  0.00    +0.000 A 
ATOM      8  C   UNL     1      45.583   6.701  12.427  0.00  0.00    +0.000 A 
BRANCH   7   9
ATOM      9  C   UNL     1      47.424   8.402  12.326  0.00  0.00    +0.000 A 
ATOM     10  C   UNL     1      48.760   8.524  11.902  0.00  0.00    +0.000 A 
ATOM     11  C   UNL     1      49.246   9.708  11.350  0.00  0.00    +0.000 A 
ATOM     12  C   UNL     1      48.404  10.807  11.203  0.00  0.00    +0.000 A 
ATOM     13  C   UNL     1      47.085  10.725  11.637  0.00  0.00    +0.000 A 
ATOM     14  C   UNL     1      46.606   9.541  12.207  0.00  0.00    +0.000 A 
ENDBRANCH   7   9
ENDBRANCH   2   3
BRANCH   2  15
ATOM     15  C   UNL     1      43.634   4.968  10.676  0.00  0.00    +0.000 C 
BRANCH  15  16
ATOM     16  O   UNL     1      43.789   3.603  10.271  0.00  0.00    +0.000 OA
BRANCH  16  17
ATOM     17  C   UNL     1      44.671   3.346   9.261  0.00  0.00    +0.000 A 
ATOM     18  C   UNL     1      45.199   4.291   8.379  0.00  0.00    +0.000 A 
ATOM     19  C   UNL     1      46.119   3.901   7.399  0.00  0.00    +0.000 A 
ATOM     20  C   UNL     1      46.520   2.562   7.287  0.00  0.00    +0.000 A 
ATOM     21  C   UNL     1      45.978   1.628   8.168  0.00  0.00    +0.000 A 
ATOM     22  F   UNL     1      46.323   0.331   8.105  0.00  0.00    +0.000 F 
ATOM     23  C   UNL     1      45.059   2.012   9.144  0.00  0.00    +0.000 A 
BRANCH  20  24
ATOM     24  C   UNL     1      47.514   2.210   6.241  0.00  0.00    +0.000 C 
ATOM     25  N   UNL     1      48.836   2.409   6.513  0.00  0.00    +0.000 N 
ATOM     26  O   UNL     1      47.164   1.752   5.159  0.00  0.00    +0.000 OA
ATOM     27  H   UNL     1      49.170   2.783   7.393  0.00  0.00    +0.000 HD
ATOM     28  H   UNL     1      49.511   2.170   5.799  0.00  0.00    +0.000 HD
ENDBRANCH  20  24
ENDBRANCH  16  17
ENDBRANCH  15  16
ENDBRANCH   2  15
TORSDOF 6
ENDMDL
MODEL 3
REMARK VINA RESULT:    -7.965      2.684      4.751
REMARK INTER + INTRA:         -12.076
REMARK INTER:                 -10.966
REMARK INTRA:                  -1.110
REMARK UNBOUND:                -1.317
REMARK  Name = 
REMARK  7 active torsions:
REMARK  status: ('A' for Active; 'I' for Inactive)
REMARK    1  A    between atoms: C_1  and  C_2
REMARK    2  A    between atoms: C_2  and  C_3
REMARK    3  A    between atoms: C_2  and  C_15
REMARK    4  A    between atoms: C_3  and  O_4
REMARK    5  A    between atoms: O_4  and  C_5
REMARK    6  A    between atoms: C_8  and  C_9
REMARK    7  A    between atoms: C_19  and  C_20
REMARK                            x       y       z     vdW  Elec       q    Type
REMARK                         _______ _______ _______ _____ _____    ______ ____
ROOT
ATOM      1  C   UNL     1      45.332   3.552  12.643  0.00  0.00    +0.000 C 
ATOM      2  C   UNL     1      44.476   4.781  12.338  0.00  0.00    +0.000 C 
ENDROOT
BRANCH   2   3
ATOM      3  C   UNL     1      45.331   6.038  12.298  0.00  0.00    +0.000 A 
ATOM      4  C   UNL     1      46.718   6.002  12.477  0.00  0.00    +0.000 A 
ATOM      5  C   UNL     1      47.465   7.174  12.397  0.00  0.00    +0.000 A 
ATOM      6  C   UNL     1      46.835   8.390  12.121  0.00  0.00    +0.000 A 
ATOM      7  C   UNL     1      45.451   8.462  11.892  0.00  0.00    +0.000 A 
ATOM      8  C   UNL     1      44.718   7.268  12.017  0.00  0.00    +0.000 A 
BRANCH   7   9
ATOM      9  C   UNL     1      44.790   9.705  11.427  0.00  0.00    +0.000 A 
ATOM     10  C   UNL     1      43.519   9.662  10.825  0.00  0.00    +0.000 A 
ATOM     11  C   UNL     1      42.823  10.826  10.505  0.00  0.00    +0.000 A 
ATOM     12  C   UNL     1      43.380  12.072  10.783  0.00  0.00    +0.000 A 
ATOM     13  C   UNL     1      44.646  12.146  11.354  0.00  0.00    +0.000 A 
ATOM     14  C   UNL     1      45.349  10.976  11.656  0.00  0.00    +0.000 A 
ENDBRANCH   7   9
ENDBRANCH   2   3
BRANCH   2  15
ATOM     15  C   UNL     1      43.675   4.603  11.036  0.00  0.00    +0.000 C 
BRANCH  15  16
ATOM     16  O   UNL     1      43.912   3.288  10.521  0.00  0.00    +0.000 OA
BRANCH  16  17
ATOM     17  C   UNL     1      44.731   3.179   9.433  0.00  0.00    +0.000 A 
ATOM     18  C   UNL     1      45.173   4.236   8.637  0.00  0.00    +0.000 A 
ATOM     19  C   UNL     1      46.035   3.994   7.561  0.00  0.00    +0.000 A 
ATOM     20  C   UNL     1      46.464   2.691   7.267  0.00  0.00    +0.000 A 
ATOM     21  C   UNL     1      46.006   1.643   8.066  0.00  0.00    +0.000 A 
ATOM     22  F   UNL     1      46.381   0.375   7.829  0.00  0.00    +0.000 F 
ATOM     23  C   UNL     1      45.145   1.881   9.137  0.00  0.00    +0.000 A 
BRANCH  20  24
ATOM     24  C   UNL     1      47.393   2.496   6.126  0.00  0.00    +0.000 C 
ATOM     25  N   UNL     1      48.732   2.445   6.386  0.00  0.00    +0.000 N 
ATOM     26  O   UNL     1      46.978   2.383   4.979  0.00  0.00    +0.000 OA
ATOM     27  H   UNL     1      49.119   2.532   7.317  0.00  0.00    +0.000 HD
ATOM     28  H   UNL     1      49.364   2.314   5.607  0.00  0.00    +0.000 HD
ENDBRANCH  20  24
ENDBRANCH  16  17
ENDBRANCH  15  16
ENDBRANCH   2  15
TORSDOF 6
ENDMDL
MODEL 4
REMARK VINA RESULT:    -7.896      1.507      2.196
REMARK INTER + INTRA:         -11.983
REMARK INTER:                 -10.900
REMARK INTRA:                  -1.083
REMARK UNBOUND:                -1.317
REMARK  Name = 
REMARK  7 active torsions:
REMARK  status: ('A' for Active; 'I' for Inactive)
REMARK    1  A    between atoms: C_1  and  C_2
REMARK    2  A    between atoms: C_2  and  C_3
REMARK    3  A    between atoms: C_2  and  C_15
REMARK    4  A    between atoms: C_3  and  O_4
REMARK    5  A    between atoms: O_4  and  C_5
REMARK    6  A    between atoms: C_8  and  C_9
REMARK    7  A    between atoms: C_19  and  C_20
REMARK                            x       y       z     vdW  Elec       q    Type
REMARK                         _______ _______ _______ _____ _____    ______ ____
ROOT
ATOM      1  C   UNL     1      45.223   3.276  12.551  0.00  0.00    +0.000 C 
ATOM      2  C   UNL     1      44.301   4.474  12.328  0.00  0.00    +0.000 C 
ENDROOT
BRANCH   2   3
ATOM      3  C   UNL     1      45.100   5.766  12.269  0.00  0.00    +0.000 A 
ATOM      4  C   UNL     1      44.602   6.924  11.664  0.00  0.00    +0.000 A 
ATOM      5  C   UNL     1      45.354   8.095  11.665  0.00  0.00    +0.000 A 
ATOM      6  C   UNL     1      46.605   8.125  12.287  0.00  0.00    +0.000 A 
ATOM      7  C   UNL     1      47.122   6.995  12.944  0.00  0.00    +0.000 A 
ATOM      8  C   UNL     1      46.356   5.817  12.893  0.00  0.00    +0.000 A 
BRANCH   7   9
ATOM      9  C   UNL     1      48.360   7.051  13.756  0.00  0.00    +0.000 A 
ATOM     10  C   UNL     1      49.487   7.762  13.302  0.00  0.00    +0.000 A 
ATOM     11  C   UNL     1      50.611   7.941  14.106  0.00  0.00    +0.000 A 
ATOM     12  C   UNL     1      50.639   7.415  15.395  0.00  0.00    +0.000 A 
ATOM     13  C   UNL     1      49.550   6.686  15.863  0.00  0.00    +0.000 A 
ATOM     14  C   UNL     1      48.432   6.493  15.046  0.00  0.00    +0.000 A 
ENDBRANCH   7   9
ENDBRANCH   2   3
BRANCH   2  15
ATOM     15  C   UNL     1      43.430   4.291  11.072  0.00  0.00    +0.000 C 
BRANCH  15  16
ATOM     16  O   UNL     1      43.714   3.012  10.492  0.00  0.00    +0.000 OA
BRANCH  16  17
ATOM     17  C   UNL     1      44.556   2.986   9.417  0.00  0.00    +0.000 A 
ATOM     18  C   UNL     1      44.896   4.080   8.620  0.00  0.00    +0.000 A 
ATOM     19  C   UNL     1      45.795   3.924   7.558  0.00  0.00    +0.000 A 
ATOM     20  C   UNL     1      46.361   2.672   7.278  0.00  0.00    +0.000 A 
ATOM     21  C   UNL     1      46.004   1.586   8.076  0.00  0.00    +0.000 A 
ATOM     22  F   UNL     1      46.514   0.363   7.853  0.00  0.00    +0.000 F 
ATOM     23  C   UNL     1      45.108   1.737   9.134  0.00  0.00    +0.000 A 
BRANCH  20  24
ATOM     24  C   UNL     1      47.323   2.570   6.152  0.00  0.00    +0.000 C 
ATOM     25  N   UNL     1      48.644   2.392   6.444  0.00  0.00    +0.000 N 
ATOM     26  O   UNL     1      46.949   2.644   4.987  0.00  0.00    +0.000 OA
ATOM     27  H   UNL     1      48.997   2.324   7.391  0.00  0.00    +0.000 HD
ATOM     28  H   UNL     1      49.297   2.325   5.675  0.00  0.00    +0.000 HD
ENDBRANCH  20  24
ENDBRANCH  16  17
ENDBRANCH  15  16
ENDBRANCH   2  15
TORSDOF 6
ENDMDL
MODEL 5
REMARK VINA RESULT:    -7.327      3.713      7.710
REMARK INTER + INTRA:         -11.213
REMARK INTER:                 -10.273
REMARK INTRA:                  -0.940
REMARK UNBOUND:                -1.317
REMARK  Name = 
REMARK  7 active torsions:
REMARK  status: ('A' for Active; 'I' for Inactive)
REMARK    1  A    between atoms: C_1  and  C_2
REMARK    2  A    between atoms: C_2  and  C_3
REMARK    3  A    between atoms: C_2  and  C_15
REMARK    4  A    between atoms: C_3  and  O_4
REMARK    5  A    between atoms: O_4  and  C_5
REMARK    6  A    between atoms: C_8  and  C_9
REMARK    7  A    between atoms: C_19  and  C_20
REMARK                            x       y       z     vdW  Elec       q    Type
REMARK                         _______ _______ _______ _____ _____    ______ ____
ROOT
ATOM      1  C   UNL     1      45.724   9.020  11.770  0.00  0.00    +0.000 C 
ATOM      2  C   UNL     1      46.063   7.612  12.258  0.00  0.00    +0.000 C 
ENDROOT
BRANCH   2   3
ATOM      3  C   UNL     1      45.122   6.588  11.646  0.00  0.00    +0.000 A 
ATOM      4  C   UNL     1      43.742   6.612  11.874  0.00  0.00    +0.000 A 
ATOM      5  C   UNL     1      42.914   5.675  11.264  0.00  0.00    +0.000 A 
ATOM      6  C   UNL     1      43.454   4.715  10.405  0.00  0.00    +0.000 A 
ATOM      7  C   UNL     1      44.829   4.683  10.116  0.00  0.00    +0.000 A 
ATOM      8  C   UNL     1      45.645   5.618  10.777  0.00  0.00    +0.000 A 
BRANCH   7   9
ATOM      9  C   UNL     1      45.397   3.789   9.079  0.00  0.00    +0.000 A 
ATOM     10  C   UNL     1      46.087   4.318   7.972  0.00  0.00    +0.000 A 
ATOM     11  C   UNL     1      46.744   3.495   7.059  0.00  0.00    +0.000 A 
ATOM     12  C   UNL     1      46.732   2.113   7.231  0.00  0.00    +0.000 A 
ATOM     13  C   UNL     1      46.037   1.559   8.300  0.00  0.00    +0.000 A 
ATOM     14  C   UNL     1      45.364   2.388   9.203  0.00  0.00    +0.000 A 
ENDBRANCH   7   9
ENDBRANCH   2   3
BRANCH   2  15
ATOM     15  C   UNL     1      47.536   7.259  11.984  0.00  0.00    +0.000 C 
BRANCH  15  16
ATOM     16  O   UNL     1      48.297   7.483  13.177  0.00  0.00    +0.000 OA
BRANCH  16  17
ATOM     17  C   UNL     1      48.185   6.557  14.174  0.00  0.00    +0.000 A 
ATOM     18  C   UNL     1      48.597   6.728  15.496  0.00  0.00    +0.000 A 
ATOM     19  C   UNL     1      48.402   5.706  16.432  0.00  0.00    +0.000 A 
ATOM     20  C   UNL     1      47.794   4.499  16.057  0.00  0.00    +0.000 A 
ATOM     21  C   UNL     1      47.397   4.338  14.730  0.00  0.00    +0.000 A 
ATOM     22  F   UNL     1      46.813   3.202  14.313  0.00  0.00    +0.000 F 
ATOM     23  C   UNL     1      47.592   5.353  13.795  0.00  0.00    +0.000 A 
BRANCH  20  24
ATOM     24  C   UNL     1      47.595   3.458  17.096  0.00  0.00    +0.000 C 
ATOM     25  N   UNL     1      48.696   2.952  17.723  0.00  0.00    +0.000 N 
ATOM     26  O   UNL     1      46.475   3.056  17.388  0.00  0.00    +0.000 OA
ATOM     27  H   UNL     1      49.639   3.256  17.516  0.00  0.00    +0.000 HD
ATOM     28  H   UNL     1      48.558   2.242  18.430  0.00  0.00    +0.000 HD
ENDBRANCH  20  24
ENDBRANCH  16  17
ENDBRANCH  15  16
ENDBRANCH   2  15
TORSDOF 6
ENDMDL
MODEL 6
REMARK VINA RESULT:    -7.239      1.271      2.044
REMARK INTER + INTRA:         -11.096
REMARK INTER:                 -10.212
REMARK INTRA:                  -0.883
REMARK UNBOUND:                -1.317
REMARK  Name = 
REMARK  7 active torsions:
REMARK  status: ('A' for Active; 'I' for Inactive)
REMARK    1  A    between atoms: C_1  and  C_2
REMARK    2  A    between atoms: C_2  and  C_3
REMARK    3  A    between atoms: C_2  and  C_15
REMARK    4  A    between atoms: C_3  and  O_4
REMARK    5  A    between atoms: O_4  and  C_5
REMARK    6  A    between atoms: C_8  and  C_9
REMARK    7  A    between atoms: C_19  and  C_20
REMARK                            x       y       z     vdW  Elec       q    Type
REMARK                         _______ _______ _______ _____ _____    ______ ____
ROOT
ATOM      1  C   UNL     1      44.097   6.865  11.342  0.00  0.00    +0.000 C 
ATOM      2  C   UNL     1      45.257   5.878  11.213  0.00  0.00    +0.000 C 
ENDROOT
BRANCH   2   3
ATOM      3  C   UNL     1      46.424   6.298  12.092  0.00  0.00    +0.000 A 
ATOM      4  C   UNL     1      47.188   7.438  11.824  0.00  0.00    +0.000 A 
ATOM      5  C   UNL     1      48.225   7.804  12.678  0.00  0.00    +0.000 A 
ATOM      6  C   UNL     1      48.496   7.043  13.818  0.00  0.00    +0.000 A 
ATOM      7  C   UNL     1      47.724   5.916  14.146  0.00  0.00    +0.000 A 
ATOM      8  C   UNL     1      46.709   5.550  13.245  0.00  0.00    +0.000 A 
BRANCH   7   9
ATOM      9  C   UNL     1      47.880   5.200  15.434  0.00  0.00    +0.000 A 
ATOM     10  C   UNL     1      48.772   5.670  16.416  0.00  0.00    +0.000 A 
ATOM     11  C   UNL     1      48.836   5.092  17.683  0.00  0.00    +0.000 A 
ATOM     12  C   UNL     1      48.003   4.025  18.006  0.00  0.00    +0.000 A 
ATOM     13  C   UNL     1      47.129   3.520  17.048  0.00  0.00    +0.000 A 
ATOM     14  C   UNL     1      47.082   4.091  15.772  0.00  0.00    +0.000 A 
ENDBRANCH   7   9
ENDBRANCH   2   3
BRANCH   2  15
ATOM     15  C   UNL     1      44.810   4.437  11.518  0.00  0.00    +0.000 C 
BRANCH  15  16
ATOM     16  O   UNL     1      44.156   3.899  10.363  0.00  0.00    +0.000 OA
BRANCH  16  17
ATOM     17  C   UNL     1      44.943   3.317   9.411  0.00  0.00    +0.000 A 
ATOM     18  C   UNL     1      45.264   1.961   9.336  0.00  0.00    +0.000 A 
ATOM     19  C   UNL     1      46.064   1.485   8.291  0.00  0.00    +0.000 A 
ATOM     20  C   UNL     1      46.554   2.358   7.309  0.00  0.00    +0.000 A 
ATOM     21  C   UNL     1      46.233   3.712   7.403  0.00  0.00    +0.000 A 
ATOM     22  F   UNL     1      46.677   4.595   6.493  0.00  0.00    +0.000 F 
ATOM     23  C   UNL     1      45.439   4.191   8.444  0.00  0.00    +0.000 A 
BRANCH  20  24
ATOM     24  C   UNL     1      47.381   1.794   6.213  0.00  0.00    +0.000 C 
ATOM     25  N   UNL     1      48.686   2.182   6.124  0.00  0.00    +0.000 N 
ATOM     26  O   UNL     1      46.912   1.001   5.406  0.00  0.00    +0.000 OA
ATOM     27  H   UNL     1      49.115   2.833   6.769  0.00  0.00    +0.000 HD
ATOM     28  H   UNL     1      49.247   1.797   5.375  0.00  0.00    +0.000 HD
ENDBRANCH  20  24
ENDBRANCH  16  17
ENDBRANCH  15  16
ENDBRANCH   2  15
TORSDOF 6
ENDMDL
MODEL 7
REMARK VINA RESULT:    -7.226      4.611      8.831
REMARK INTER + INTRA:         -11.078
REMARK INTER:                 -10.159
REMARK INTRA:                  -0.919
REMARK UNBOUND:                -1.317
REMARK  Name = 
REMARK  7 active torsions:
REMARK  status: ('A' for Active; 'I' for Inactive)
REMARK    1  A    between atoms: C_1  and  C_2
REMARK    2  A    between atoms: C_2  and  C_3
REMARK    3  A    between atoms: C_2  and  C_15
REMARK    4  A    between atoms: C_3  and  O_4
REMARK    5  A    between atoms: O_4  and  C_5
REMARK    6  A    between atoms: C_8  and  C_9
REMARK    7  A    between atoms: C_19  and  C_20
REMARK                            x       y       z     vdW  Elec       q    Type
REMARK                         _______ _______ _______ _____ _____    ______ ____
ROOT
ATOM      1  C   UNL     1      46.723   7.253  12.903  0.00  0.00    +0.000 C 
ATOM      2  C   UNL     1      46.063   5.970  13.408  0.00  0.00    +0.000 C 
ENDROOT
BRANCH   2   3
ATOM      3  C   UNL     1      45.091   5.421  12.377  0.00  0.00    +0.000 A 
ATOM      4  C   UNL     1      43.725   5.719  12.406  0.00  0.00    +0.000 A 
ATOM      5  C   UNL     1      42.878   5.223  11.420  0.00  0.00    +0.000 A 
ATOM      6  C   UNL     1      43.391   4.437  10.384  0.00  0.00    +0.000 A 
ATOM      7  C   UNL     1      44.764   4.151  10.295  0.00  0.00    +0.000 A 
ATOM      8  C   UNL     1      45.588   4.634  11.326  0.00  0.00    +0.000 A 
BRANCH   7   9
ATOM      9  C   UNL     1      45.353   3.470   9.118  0.00  0.00    +0.000 A 
ATOM     10  C   UNL     1      45.884   4.214   8.047  0.00  0.00    +0.000 A 
ATOM     11  C   UNL     1      46.562   3.599   6.996  0.00  0.00    +0.000 A 
ATOM     12  C   UNL     1      46.734   2.218   6.988  0.00  0.00    +0.000 A 
ATOM     13  C   UNL     1      46.198   1.453   8.019  0.00  0.00    +0.000 A 
ATOM     14  C   UNL     1      45.502   2.072   9.062  0.00  0.00    +0.000 A 
ENDBRANCH   7   9
ENDBRANCH   2   3
BRANCH   2  15
ATOM     15  C   UNL     1      47.111   4.918  13.813  0.00  0.00    +0.000 C 
BRANCH  15  16
ATOM     16  O   UNL     1      46.610   4.167  14.926  0.00  0.00    +0.000 OA
BRANCH  16  17
ATOM     17  C   UNL     1      47.338   4.198  16.080  0.00  0.00    +0.000 A 
ATOM     18  C   UNL     1      47.368   3.197  17.052  0.00  0.00    +0.000 A 
ATOM     19  C   UNL     1      48.181   3.338  18.183  0.00  0.00    +0.000 A 
ATOM     20  C   UNL     1      48.971   4.484  18.357  0.00  0.00    +0.000 A 
ATOM     21  C   UNL     1      48.923   5.480  17.383  0.00  0.00    +0.000 A 
ATOM     22  F   UNL     1      49.656   6.600  17.499  0.00  0.00    +0.000 F 
ATOM     23  C   UNL     1      48.113   5.343  16.256  0.00  0.00    +0.000 A 
BRANCH  20  24
ATOM     24  C   UNL     1      49.827   4.571  19.566  0.00  0.00    +0.000 C 
ATOM     25  N   UNL     1      49.251   4.349  20.783  0.00  0.00    +0.000 N 
ATOM     26  O   UNL     1      51.021   4.836  19.483  0.00  0.00    +0.000 OA
ATOM     27  H   UNL     1      48.271   4.126  20.899  0.00  0.00    +0.000 HD
ATOM     28  H   UNL     1      49.837   4.410  21.606  0.00  0.00    +0.000 HD
ENDBRANCH  20  24
ENDBRANCH  16  17
ENDBRANCH  15  16
ENDBRANCH   2  15
TORSDOF 6
ENDMDL
MODEL 8
REMARK VINA RESULT:    -6.979      2.572      3.453
REMARK INTER + INTRA:         -10.743
REMARK INTER:                  -9.915
REMARK INTRA:                  -0.828
REMARK UNBOUND:                -1.317
REMARK  Name = 
REMARK  7 active torsions:
REMARK  status: ('A' for Active; 'I' for Inactive)
REMARK    1  A    between atoms: C_1  and  C_2
REMARK    2  A    between atoms: C_2  and  C_3
REMARK    3  A    between atoms: C_2  and  C_15
REMARK    4  A    between atoms: C_3  and  O_4
REMARK    5  A    between atoms: O_4  and  C_5
REMARK    6  A    between atoms: C_8  and  C_9
REMARK    7  A    between atoms: C_19  and  C_20
REMARK                            x       y       z     vdW  Elec       q    Type
REMARK                         _______ _______ _______ _____ _____    ______ ____
ROOT
ATOM      1  C   UNL     1      45.724   3.287  12.862  0.00  0.00    +0.000 C 
ATOM      2  C   UNL     1      44.389   4.011  12.693  0.00  0.00    +0.000 C 
ENDROOT
BRANCH   2   3
ATOM      3  C   UNL     1      44.607   5.452  12.259  0.00  0.00    +0.000 A 
ATOM      4  C   UNL     1      43.552   6.278  11.858  0.00  0.00    +0.000 A 
ATOM      5  C   UNL     1      43.795   7.602  11.503  0.00  0.00    +0.000 A 
ATOM      6  C   UNL     1      45.092   8.118  11.563  0.00  0.00    +0.000 A 
ATOM      7  C   UNL     1      46.171   7.334  12.003  0.00  0.00    +0.000 A 
ATOM      8  C   UNL     1      45.902   5.990  12.318  0.00  0.00    +0.000 A 
BRANCH   7   9
ATOM      9  C   UNL     1      47.518   7.906  12.241  0.00  0.00    +0.000 A 
ATOM     10  C   UNL     1      47.769   8.713  13.366  0.00  0.00    +0.000 A 
ATOM     11  C   UNL     1      49.055   9.148  13.681  0.00  0.00    +0.000 A 
ATOM     12  C   UNL     1      50.132   8.784  12.876  0.00  0.00    +0.000 A 
ATOM     13  C   UNL     1      49.911   8.009  11.742  0.00  0.00    +0.000 A 
ATOM     14  C   UNL     1      48.617   7.590  11.420  0.00  0.00    +0.000 A 
ENDBRANCH   7   9
ENDBRANCH   2   3
BRANCH   2  15
ATOM     15  C   UNL     1      43.459   3.264  11.720  0.00  0.00    +0.000 C 
BRANCH  15  16
ATOM     16  O   UNL     1      43.566   3.862  10.423  0.00  0.00    +0.000 OA
BRANCH  16  17
ATOM     17  C   UNL     1      44.500   3.347   9.571  0.00  0.00    +0.000 A 
ATOM     18  C   UNL     1      44.723   1.991   9.328  0.00  0.00    +0.000 A 
ATOM     19  C   UNL     1      45.698   1.593   8.407  0.00  0.00    +0.000 A 
ATOM     20  C   UNL     1      46.463   2.545   7.719  0.00  0.00    +0.000 A 
ATOM     21  C   UNL     1      46.237   3.896   7.978  0.00  0.00    +0.000 A 
ATOM     22  F   UNL     1      46.942   4.852   7.351  0.00  0.00    +0.000 F 
ATOM     23  C   UNL     1      45.268   4.297   8.897  0.00  0.00    +0.000 A 
BRANCH  20  24
ATOM     24  C   UNL     1      47.470   2.065   6.738  0.00  0.00    +0.000 C 
ATOM     25  N   UNL     1      47.586   2.731   5.553  0.00  0.00    +0.000 N 
ATOM     26  O   UNL     1      48.181   1.096   6.979  0.00  0.00    +0.000 OA
ATOM     27  H   UNL     1      47.022   3.536   5.314  0.00  0.00    +0.000 HD
ATOM     28  H   UNL     1      48.272   2.401   4.887  0.00  0.00    +0.000 HD
ENDBRANCH  20  24
ENDBRANCH  16  17
ENDBRANCH  15  16
ENDBRANCH   2  15
TORSDOF 6
ENDMDL
MODEL 9
REMARK VINA RESULT:    -6.745      4.285      7.930
REMARK INTER + INTRA:         -10.427
REMARK INTER:                  -9.275
REMARK INTRA:                  -1.153
REMARK UNBOUND:                -1.317
REMARK  Name = 
REMARK  7 active torsions:
REMARK  status: ('A' for Active; 'I' for Inactive)
REMARK    1  A    between atoms: C_1  and  C_2
REMARK    2  A    between atoms: C_2  and  C_3
REMARK    3  A    between atoms: C_2  and  C_15
REMARK    4  A    between atoms: C_3  and  O_4
REMARK    5  A    between atoms: O_4  and  C_5
REMARK    6  A    between atoms: C_8  and  C_9
REMARK    7  A    between atoms: C_19  and  C_20
REMARK                            x       y       z     vdW  Elec       q    Type
REMARK                         _______ _______ _______ _____ _____    ______ ____
ROOT
ATOM      1  C   UNL     1      49.532   7.829  11.725  0.00  0.00    +0.000 C 
ATOM      2  C   UNL     1      48.526   8.728  12.443  0.00  0.00    +0.000 C 
ENDROOT
BRANCH   2   3
ATOM      3  C   UNL     1      47.101   8.328  12.097  0.00  0.00    +0.000 A 
ATOM      4  C   UNL     1      46.040   9.238  12.137  0.00  0.00    +0.000 A 
ATOM      5  C   UNL     1      44.757   8.835  11.777  0.00  0.00    +0.000 A 
ATOM      6  C   UNL     1      44.525   7.523  11.356  0.00  0.00    +0.000 A 
ATOM      7  C   UNL     1      45.572   6.591  11.260  0.00  0.00    +0.000 A 
ATOM      8  C   UNL     1      46.849   7.016  11.666  0.00  0.00    +0.000 A 
BRANCH   7   9
ATOM      9  C   UNL     1      45.383   5.252  10.653  0.00  0.00    +0.000 A 
ATOM     10  C   UNL     1      44.986   4.154  11.440  0.00  0.00    +0.000 A 
ATOM     11  C   UNL     1      44.673   2.922  10.870  0.00  0.00    +0.000 A 
ATOM     12  C   UNL     1      44.745   2.752   9.490  0.00  0.00    +0.000 A 
ATOM     13  C   UNL     1      45.159   3.811   8.688  0.00  0.00    +0.000 A 
ATOM     14  C   UNL     1      45.491   5.040   9.266  0.00  0.00    +0.000 A 
ENDBRANCH   7   9
ENDBRANCH   2   3
BRANCH   2  15
ATOM     15  C   UNL     1      48.757   8.732  13.965  0.00  0.00    +0.000 C 
BRANCH  15  16
ATOM     16  O   UNL     1      49.667   7.678  14.299  0.00  0.00    +0.000 OA
BRANCH  16  17
ATOM     17  C   UNL     1      49.223   6.718  15.162  0.00  0.00    +0.000 A 
ATOM     18  C   UNL     1      49.767   6.433  16.415  0.00  0.00    +0.000 A 
ATOM     19  C   UNL     1      49.199   5.437  17.219  0.00  0.00    +0.000 A 
ATOM     20  C   UNL     1      48.083   4.712  16.777  0.00  0.00    +0.000 A 
ATOM     21  C   UNL     1      47.556   5.001  15.519  0.00  0.00    +0.000 A 
ATOM     22  F   UNL     1      46.490   4.336  15.043  0.00  0.00    +0.000 F 
ATOM     23  C   UNL     1      48.120   5.991  14.716  0.00  0.00    +0.000 A 
BRANCH  20  24
ATOM     24  C   UNL     1      47.511   3.680  17.679  0.00  0.00    +0.000 C 
ATOM     25  N   UNL     1      48.123   3.462  18.880  0.00  0.00    +0.000 N 
ATOM     26  O   UNL     1      46.518   3.037  17.362  0.00  0.00    +0.000 OA
ATOM     27  H   UNL     1      48.943   3.972  19.184  0.00  0.00    +0.000 HD
ATOM     28  H   UNL     1      47.732   2.758  19.492  0.00  0.00    +0.000 HD
ENDBRANCH  20  24
ENDBRANCH  16  17
ENDBRANCH  15  16
ENDBRANCH   2  15
TORSDOF 6
ENDMDL
