MODEL 1
REMARK VINA RESULT:    -8.380      0.000      0.000
REMARK INTER + INTRA:         -12.907
REMARK INTER:                 -11.810
REMARK INTRA:                  -1.098
REMARK UNBOUND:                -1.098
REMARK  Name = 
REMARK  8 active torsions:
REMARK  status: ('A' for Active; 'I' for Inactive)
REMARK    1  A    between atoms: C_1  and  C_2
REMARK    2  A    between atoms: C_2  and  C_3
REMARK    3  A    between atoms: C_2  and  C_14
REMARK    4  A    between atoms: C_3  and  O_4
REMARK    5  A    between atoms: O_4  and  C_5
REMARK    6  A    between atoms: C_8  and  C_9
REMARK    7  A    between atoms: C_18  and  O_19
REMARK    8  A    between atoms: O_19  and  C_20
REMARK                            x       y       z     vdW  Elec       q    Type
REMARK                         _______ _______ _______ _____ _____    ______ ____
ROOT
ATOM      1  C   UNL     1      42.745   5.221  12.602  0.00  0.00    +0.000 C 
ATOM      2  C   UNL     1      44.004   4.413  12.572  0.00  0.00    +0.000 C 
ENDROOT
BRANCH   2   3
ATOM      3  C   UNL     1      45.310   5.062  12.804  0.00  0.00    +0.000 A 
ATOM      4  C   UNL     1      45.838   5.988  11.898  0.00  0.00    +0.000 A 
ATOM      5  C   UNL     1      47.112   6.531  12.092  0.00  0.00    +0.000 A 
ATOM      6  C   UNL     1      47.876   6.162  13.200  0.00  0.00    +0.000 A 
ATOM      7  C   UNL     1      47.356   5.257  14.119  0.00  0.00    +0.000 A 
ATOM      8  C   UNL     1      46.078   4.725  13.927  0.00  0.00    +0.000 A 
BRANCH   7   9
ATOM      9  O   UNL     1      47.997   4.848  15.261  0.00  0.00    +0.000 OA
BRANCH   9  10
ATOM     10  C   UNL     1      47.241   4.152  16.278  0.00  0.00    +0.000 C 
ATOM     11  C   UNL     1      47.180   4.771  17.689  0.00  0.00    +0.000 C 
ATOM     12  N   UNL     1      47.631   3.502  18.283  0.00  0.00    +0.000 NA
ATOM     13  C   UNL     1      47.998   2.991  16.955  0.00  0.00    +0.000 C 
ATOM     14  H   UNL     1      46.894   2.970  18.743  0.00  0.00    +0.000 HD
ENDBRANCH   9  10
ENDBRANCH   7   9
ENDBRANCH   2   3
BRANCH   2  15
ATOM     15  C   UNL     1      44.000   3.135  11.776  0.00  0.00    +0.000 C 
BRANCH  15  16
ATOM     16  O   UNL     1      43.564   3.377  10.436  0.00  0.00    +0.000 OA
BRANCH  16  17
ATOM     17  C   UNL     1      44.523   3.224   9.466  0.00  0.00    +0.000 A 
ATOM     18  C   UNL     1      45.020   4.242   8.647  0.00  0.00    +0.000 A 
ATOM     19  C   UNL     1      46.003   3.968   7.694  0.00  0.00    +0.000 A 
ATOM     20  C   UNL     1      46.510   2.673   7.549  0.00  0.00    +0.000 A 
ATOM     21  C   UNL     1      46.009   1.646   8.357  0.00  0.00    +0.000 A 
ATOM     22  C   UNL     1      45.020   1.926   9.310  0.00  0.00    +0.000 A 
BRANCH  20  23
ATOM     23  C   UNL     1      47.554   2.449   6.515  0.00  0.00    +0.000 C 
ATOM     24  N   UNL     1      47.457   3.162   5.354  0.00  0.00    +0.000 N 
ATOM     25  O   UNL     1      48.447   1.624   6.671  0.00  0.00    +0.000 OA
ATOM     26  H   UNL     1      46.619   3.654   5.087  0.00  0.00    +0.000 HD
ATOM     27  H   UNL     1      48.105   2.904   4.621  0.00  0.00    +0.000 HD
ENDBRANCH  20  23
ENDBRANCH  16  17
ENDBRANCH  15  16
ENDBRANCH   2  15
TORSDOF 7
ENDMDL
MODEL 2
REMARK VINA RESULT:    -7.680      1.516      1.951
REMARK INTER + INTRA:         -11.921
REMARK INTER:                 -11.038
REMARK INTRA:                  -0.883
REMARK UNBOUND:                -1.098
REMARK  Name = 
REMARK  8 active torsions:
REMARK  status: ('A' for Active; 'I' for Inactive)
REMARK    1  A    between atoms: C_1  and  C_2
REMARK    2  A    between atoms: C_2  and  C_3
REMARK    3  A    between atoms: C_2  and  C_14
REMARK    4  A    between atoms: C_3  and  O_4
REMARK    5  A    between atoms: O_4  and  C_5
REMARK    6  A    between atoms: C_8  and  C_9
REMARK    7  A    between atoms: C_18  and  O_19
REMARK    8  A    between atoms: O_19  and  C_20
REMARK                            x       y       z     vdW  Elec       q    Type
REMARK                         _______ _______ _______ _____ _____    ______ ____
ROOT
ATOM      1  C   UNL     1      43.277   4.681  13.092  0.00  0.00    +0.000 C 
ATOM      2  C   UNL     1      44.284   4.856  11.998  0.00  0.00    +0.000 C 
ENDROOT
BRANCH   2   3
ATOM      3  C   UNL     1      45.570   5.528  12.272  0.00  0.00    +0.000 A 
ATOM      4  C   UNL     1      46.130   6.433  11.363  0.00  0.00    +0.000 A 
ATOM      5  C   UNL     1      47.387   6.997  11.600  0.00  0.00    +0.000 A 
ATOM      6  C   UNL     1      48.102   6.673  12.754  0.00  0.00    +0.000 A 
ATOM      7  C   UNL     1      47.549   5.790  13.675  0.00  0.00    +0.000 A 
ATOM      8  C   UNL     1      46.287   5.236  13.440  0.00  0.00    +0.000 A 
BRANCH   7   9
ATOM      9  O   UNL     1      48.139   5.425  14.859  0.00  0.00    +0.000 OA
BRANCH   9  10
ATOM     10  C   UNL     1      48.621   6.458  15.749  0.00  0.00    +0.000 C 
ATOM     11  C   UNL     1      50.093   6.898  15.622  0.00  0.00    +0.000 C 
ATOM     12  N   UNL     1      50.303   6.670  17.060  0.00  0.00    +0.000 NA
ATOM     13  C   UNL     1      49.022   5.956  17.152  0.00  0.00    +0.000 C 
ATOM     14  H   UNL     1      50.345   7.522  17.617  0.00  0.00    +0.000 HD
ENDBRANCH   9  10
ENDBRANCH   7   9
ENDBRANCH   2   3
BRANCH   2  15
ATOM     15  C   UNL     1      43.783   4.875  10.578  0.00  0.00    +0.000 C 
BRANCH  15  16
ATOM     16  O   UNL     1      43.616   3.543  10.085  0.00  0.00    +0.000 OA
BRANCH  16  17
ATOM     17  C   UNL     1      44.611   3.092   9.254  0.00  0.00    +0.000 A 
ATOM     18  C   UNL     1      45.002   1.758   9.105  0.00  0.00    +0.000 A 
ATOM     19  C   UNL     1      46.029   1.416   8.222  0.00  0.00    +0.000 A 
ATOM     20  C   UNL     1      46.677   2.401   7.470  0.00  0.00    +0.000 A 
ATOM     21  C   UNL     1      46.298   3.740   7.622  0.00  0.00    +0.000 A 
ATOM     22  C   UNL     1      45.269   4.078   8.512  0.00  0.00    +0.000 A 
BRANCH  20  23
ATOM     23  C   UNL     1      47.761   1.970   6.550  0.00  0.00    +0.000 C 
ATOM     24  N   UNL     1      48.763   2.862   6.291  0.00  0.00    +0.000 N 
ATOM     25  O   UNL     1      47.744   0.872   6.005  0.00  0.00    +0.000 OA
ATOM     26  H   UNL     1      48.688   3.842   6.514  0.00  0.00    +0.000 HD
ATOM     27  H   UNL     1      49.420   2.592   5.570  0.00  0.00    +0.000 HD
ENDBRANCH  20  23
ENDBRANCH  16  17
ENDBRANCH  15  16
ENDBRANCH   2  15
TORSDOF 7
ENDMDL
MODEL 3
REMARK VINA RESULT:    -7.436      2.545      3.761
REMARK INTER + INTRA:         -11.577
REMARK INTER:                 -10.698
REMARK INTRA:                  -0.878
REMARK UNBOUND:                -1.098
REMARK  Name = 
REMARK  8 active torsions:
REMARK  status: ('A' for Active; 'I' for Inactive)
REMARK    1  A    between atoms: C_1  and  C_2
REMARK    2  A    between atoms: C_2  and  C_3
REMARK    3  A    between atoms: C_2  and  C_14
REMARK    4  A    between atoms: C_3  and  O_4
REMARK    5  A    between atoms: O_4  and  C_5
REMARK    6  A    between atoms: C_8  and  C_9
REMARK    7  A    between atoms: C_18  and  O_19
REMARK    8  A    between atoms: O_19  and  C_20
REMARK                            x       y       z     vdW  Elec       q    Type
REMARK                         _______ _______ _______ _____ _____    ______ ____
ROOT
ATOM      1  C   UNL     1      42.620   5.399  12.298  0.00  0.00    +0.000 C 
ATOM      2  C   UNL     1      43.764   4.437  12.396  0.00  0.00    +0.000 C 
ENDROOT
BRANCH   2   3
ATOM      3  C   UNL     1      45.122   4.926  12.707  0.00  0.00    +0.000 A 
ATOM      4  C   UNL     1      45.984   4.206  13.543  0.00  0.00    +0.000 A 
ATOM      5  C   UNL     1      47.235   4.723  13.893  0.00  0.00    +0.000 A 
ATOM      6  C   UNL     1      47.649   5.964  13.406  0.00  0.00    +0.000 A 
ATOM      7  C   UNL     1      46.810   6.681  12.560  0.00  0.00    +0.000 A 
ATOM      8  C   UNL     1      45.564   6.156  12.203  0.00  0.00    +0.000 A 
BRANCH   7   9
ATOM      9  O   UNL     1      47.122   7.890  11.992  0.00  0.00    +0.000 OA
BRANCH   9  10
ATOM     10  C   UNL     1      46.642   9.103  12.617  0.00  0.00    +0.000 C 
ATOM     11  C   UNL     1      45.159   9.478  12.430  0.00  0.00    +0.000 C 
ATOM     12  N   UNL     1      45.540  10.819  11.958  0.00  0.00    +0.000 NA
ATOM     13  C   UNL     1      46.940  10.392  11.824  0.00  0.00    +0.000 C 
ATOM     14  H   UNL     1      45.396  11.560  12.642  0.00  0.00    +0.000 HD
ENDBRANCH   9  10
ENDBRANCH   7   9
ENDBRANCH   2   3
BRANCH   2  15
ATOM     15  C   UNL     1      43.653   3.136  11.647  0.00  0.00    +0.000 C 
BRANCH  15  16
ATOM     16  O   UNL     1      43.367   3.371  10.266  0.00  0.00    +0.000 OA
BRANCH  16  17
ATOM     17  C   UNL     1      44.391   3.094   9.395  0.00  0.00    +0.000 A 
ATOM     18  C   UNL     1      44.968   1.836   9.195  0.00  0.00    +0.000 A 
ATOM     19  C   UNL     1      46.007   1.673   8.275  0.00  0.00    +0.000 A 
ATOM     20  C   UNL     1      46.481   2.762   7.538  0.00  0.00    +0.000 A 
ATOM     21  C   UNL     1      45.916   4.026   7.742  0.00  0.00    +0.000 A 
ATOM     22  C   UNL     1      44.876   4.186   8.667  0.00  0.00    +0.000 A 
BRANCH  20  23
ATOM     23  C   UNL     1      47.589   2.519   6.577  0.00  0.00    +0.000 C 
ATOM     24  N   UNL     1      47.540   3.171   5.378  0.00  0.00    +0.000 N 
ATOM     25  O   UNL     1      48.494   1.731   6.826  0.00  0.00    +0.000 OA
ATOM     26  H   UNL     1      46.706   3.624   5.039  0.00  0.00    +0.000 HD
ATOM     27  H   UNL     1      48.236   2.897   4.697  0.00  0.00    +0.000 HD
ENDBRANCH  20  23
ENDBRANCH  16  17
ENDBRANCH  15  16
ENDBRANCH   2  15
TORSDOF 7
ENDMDL
MODEL 4
REMARK VINA RESULT:    -7.429      3.522      5.085
REMARK INTER + INTRA:         -11.566
REMARK INTER:                 -10.644
REMARK INTRA:                  -0.922
REMARK UNBOUND:                -1.098
REMARK  Name = 
REMARK  8 active torsions:
REMARK  status: ('A' for Active; 'I' for Inactive)
REMARK    1  A    between atoms: C_1  and  C_2
REMARK    2  A    between atoms: C_2  and  C_3
REMARK    3  A    between atoms: C_2  and  C_14
REMARK    4  A    between atoms: C_3  and  O_4
REMARK    5  A    between atoms: O_4  and  C_5
REMARK    6  A    between atoms: C_8  and  C_9
REMARK    7  A    between atoms: C_18  and  O_19
REMARK    8  A    between atoms: O_19  and  C_20
REMARK                            x       y       z     vdW  Elec       q    Type
REMARK                         _______ _______ _______ _____ _____    ______ ____
ROOT
ATOM      1  C   UNL     1      45.042   4.024  12.643  0.00  0.00    +0.000 C 
ATOM      2  C   UNL     1      44.880   5.031  11.547  0.00  0.00    +0.000 C 
ENDROOT
BRANCH   2   3
ATOM      3  C   UNL     1      45.451   6.385  11.691  0.00  0.00    +0.000 A 
ATOM      4  C   UNL     1      46.789   6.581  12.051  0.00  0.00    +0.000 A 
ATOM      5  C   UNL     1      47.291   7.868  12.262  0.00  0.00    +0.000 A 
ATOM      6  C   UNL     1      46.465   8.983  12.109  0.00  0.00    +0.000 A 
ATOM      7  C   UNL     1      45.138   8.804  11.733  0.00  0.00    +0.000 A 
ATOM      8  C   UNL     1      44.643   7.516  11.512  0.00  0.00    +0.000 A 
BRANCH   7   9
ATOM      9  O   UNL     1      44.244   9.822  11.518  0.00  0.00    +0.000 OA
BRANCH   9  10
ATOM     10  C   UNL     1      43.222   9.655  10.509  0.00  0.00    +0.000 C 
ATOM     11  C   UNL     1      43.154  10.687   9.365  0.00  0.00    +0.000 C 
ATOM     12  N   UNL     1      41.727  10.919   9.636  0.00  0.00    +0.000 NA
ATOM     13  C   UNL     1      41.833  10.194  10.910  0.00  0.00    +0.000 C 
ATOM     14  H   UNL     1      41.097  10.486   8.963  0.00  0.00    +0.000 HD
ENDBRANCH   9  10
ENDBRANCH   7   9
ENDBRANCH   2   3
BRANCH   2  15
ATOM     15  C   UNL     1      43.711   4.869  10.612  0.00  0.00    +0.000 C 
BRANCH  15  16
ATOM     16  O   UNL     1      43.659   3.537  10.095  0.00  0.00    +0.000 OA
BRANCH  16  17
ATOM     17  C   UNL     1      44.617   3.228   9.162  0.00  0.00    +0.000 A 
ATOM     18  C   UNL     1      45.149   4.114   8.221  0.00  0.00    +0.000 A 
ATOM     19  C   UNL     1      46.127   3.686   7.319  0.00  0.00    +0.000 A 
ATOM     20  C   UNL     1      46.593   2.368   7.350  0.00  0.00    +0.000 A 
ATOM     21  C   UNL     1      46.056   1.473   8.282  0.00  0.00    +0.000 A 
ATOM     22  C   UNL     1      45.074   1.906   9.182  0.00  0.00    +0.000 A 
BRANCH  20  23
ATOM     23  C   UNL     1      47.633   1.977   6.363  0.00  0.00    +0.000 C 
ATOM     24  N   UNL     1      48.811   2.669   6.378  0.00  0.00    +0.000 N 
ATOM     25  O   UNL     1      47.434   1.098   5.532  0.00  0.00    +0.000 OA
ATOM     26  H   UNL     1      48.920   3.545   6.866  0.00  0.00    +0.000 HD
ATOM     27  H   UNL     1      49.452   2.469   5.621  0.00  0.00    +0.000 HD
ENDBRANCH  20  23
ENDBRANCH  16  17
ENDBRANCH  15  16
ENDBRANCH   2  15
TORSDOF 7
ENDMDL
MODEL 5
REMARK VINA RESULT:    -7.371      3.049      4.167
REMARK INTER + INTRA:         -11.486
REMARK INTER:                 -10.657
REMARK INTRA:                  -0.829
REMARK UNBOUND:                -1.098
REMARK  Name = 
REMARK  8 active torsions:
REMARK  status: ('A' for Active; 'I' for Inactive)
REMARK    1  A    between atoms: C_1  and  C_2
REMARK    2  A    between atoms: C_2  and  C_3
REMARK    3  A    between atoms: C_2  and  C_14
REMARK    4  A    between atoms: C_3  and  O_4
REMARK    5  A    between atoms: O_4  and  C_5
REMARK    6  A    between atoms: C_8  and  C_9
REMARK    7  A    between atoms: C_18  and  O_19
REMARK    8  A    between atoms: O_19  and  C_20
REMARK                            x       y       z     vdW  Elec       q    Type
REMARK                         _______ _______ _______ _____ _____    ______ ____
ROOT
ATOM      1  C   UNL     1      42.474   5.324  11.985  0.00  0.00    +0.000 C 
ATOM      2  C   UNL     1      43.816   4.689  12.172  0.00  0.00    +0.000 C 
ENDROOT
BRANCH   2   3
ATOM      3  C   UNL     1      44.992   5.520  12.502  0.00  0.00    +0.000 A 
ATOM      4  C   UNL     1      46.233   4.945  12.798  0.00  0.00    +0.000 A 
ATOM      5  C   UNL     1      47.314   5.741  13.188  0.00  0.00    +0.000 A 
ATOM      6  C   UNL     1      47.174   7.127  13.281  0.00  0.00    +0.000 A 
ATOM      7  C   UNL     1      45.952   7.713  12.970  0.00  0.00    +0.000 A 
ATOM      8  C   UNL     1      44.877   6.914  12.570  0.00  0.00    +0.000 A 
BRANCH   7   9
ATOM      9  O   UNL     1      45.706   9.063  12.989  0.00  0.00    +0.000 OA
BRANCH   9  10
ATOM     10  C   UNL     1      45.657   9.783  11.737  0.00  0.00    +0.000 C 
ATOM     11  C   UNL     1      46.023  11.281  11.745  0.00  0.00    +0.000 C 
ATOM     12  N   UNL     1      44.758  11.612  11.070  0.00  0.00    +0.000 NA
ATOM     13  C   UNL     1      44.247  10.258  11.327  0.00  0.00    +0.000 C 
ATOM     14  H   UNL     1      44.857  11.837  10.082  0.00  0.00    +0.000 HD
ENDBRANCH   9  10
ENDBRANCH   7   9
ENDBRANCH   2   3
BRANCH   2  15
ATOM     15  C   UNL     1      44.071   3.371  11.491  0.00  0.00    +0.000 C 
BRANCH  15  16
ATOM     16  O   UNL     1      43.653   3.420  10.125  0.00  0.00    +0.000 OA
BRANCH  16  17
ATOM     17  C   UNL     1      44.625   3.133   9.199  0.00  0.00    +0.000 A 
ATOM     18  C   UNL     1      45.227   4.059   8.341  0.00  0.00    +0.000 A 
ATOM     19  C   UNL     1      46.213   3.651   7.439  0.00  0.00    +0.000 A 
ATOM     20  C   UNL     1      46.617   2.313   7.386  0.00  0.00    +0.000 A 
ATOM     21  C   UNL     1      46.011   1.380   8.235  0.00  0.00    +0.000 A 
ATOM     22  C   UNL     1      45.021   1.793   9.135  0.00  0.00    +0.000 A 
BRANCH  20  23
ATOM     23  C   UNL     1      47.670   1.946   6.404  0.00  0.00    +0.000 C 
ATOM     24  N   UNL     1      48.751   2.774   6.296  0.00  0.00    +0.000 N 
ATOM     25  O   UNL     1      47.560   0.962   5.681  0.00  0.00    +0.000 OA
ATOM     26  H   UNL     1      48.762   3.706   6.682  0.00  0.00    +0.000 HD
ATOM     27  H   UNL     1      49.390   2.571   5.539  0.00  0.00    +0.000 HD
ENDBRANCH  20  23
ENDBRANCH  16  17
ENDBRANCH  15  16
ENDBRANCH   2  15
TORSDOF 7
ENDMDL
MODEL 6
REMARK VINA RESULT:    -7.300      2.447      3.016
REMARK INTER + INTRA:         -11.385
REMARK INTER:                 -10.477
REMARK INTRA:                  -0.908
REMARK UNBOUND:                -1.098
REMARK  Name = 
REMARK  8 active torsions:
REMARK  status: ('A' for Active; 'I' for Inactive)
REMARK    1  A    between atoms: C_1  and  C_2
REMARK    2  A    between atoms: C_2  and  C_3
REMARK    3  A    between atoms: C_2  and  C_14
REMARK    4  A    between atoms: C_3  and  O_4
REMARK    5  A    between atoms: O_4  and  C_5
REMARK    6  A    between atoms: C_8  and  C_9
REMARK    7  A    between atoms: C_18  and  O_19
REMARK    8  A    between atoms: O_19  and  C_20
REMARK                            x       y       z     vdW  Elec       q    Type
REMARK                         _______ _______ _______ _____ _____    ______ ____
ROOT
ATOM      1  C   UNL     1      45.861   3.442  12.646  0.00  0.00    +0.000 C 
ATOM      2  C   UNL     1      45.053   4.452  11.895  0.00  0.00    +0.000 C 
ENDROOT
BRANCH   2   3
ATOM      3  C   UNL     1      45.269   5.895  12.120  0.00  0.00    +0.000 A 
ATOM      4  C   UNL     1      44.500   6.862  11.461  0.00  0.00    +0.000 A 
ATOM      5  C   UNL     1      44.773   8.224  11.623  0.00  0.00    +0.000 A 
ATOM      6  C   UNL     1      45.813   8.642  12.455  0.00  0.00    +0.000 A 
ATOM      7  C   UNL     1      46.573   7.693  13.131  0.00  0.00    +0.000 A 
ATOM      8  C   UNL     1      46.290   6.333  12.974  0.00  0.00    +0.000 A 
BRANCH   7   9
ATOM      9  O   UNL     1      47.593   7.985  14.000  0.00  0.00    +0.000 OA
BRANCH   9  10
ATOM     10  C   UNL     1      48.817   7.218  13.926  0.00  0.00    +0.000 C 
ATOM     11  C   UNL     1      49.878   7.436  15.023  0.00  0.00    +0.000 C 
ATOM     12  N   UNL     1      50.908   7.682  14.001  0.00  0.00    +0.000 NA
ATOM     13  C   UNL     1      49.875   7.792  12.962  0.00  0.00    +0.000 C 
ATOM     14  H   UNL     1      51.554   6.906  13.863  0.00  0.00    +0.000 HD
ENDBRANCH   9  10
ENDBRANCH   7   9
ENDBRANCH   2   3
BRANCH   2  15
ATOM     15  C   UNL     1      43.703   4.028  11.379  0.00  0.00    +0.000 C 
BRANCH  15  16
ATOM     16  O   UNL     1      43.619   4.226   9.965  0.00  0.00    +0.000 OA
BRANCH  16  17
ATOM     17  C   UNL     1      44.583   3.591   9.222  0.00  0.00    +0.000 A 
ATOM     18  C   UNL     1      44.818   2.213   9.204  0.00  0.00    +0.000 A 
ATOM     19  C   UNL     1      45.830   1.678   8.403  0.00  0.00    +0.000 A 
ATOM     20  C   UNL     1      46.617   2.512   7.602  0.00  0.00    +0.000 A 
ATOM     21  C   UNL     1      46.394   3.893   7.624  0.00  0.00    +0.000 A 
ATOM     22  C   UNL     1      45.381   4.425   8.432  0.00  0.00    +0.000 A 
BRANCH  20  23
ATOM     23  C   UNL     1      47.676   1.879   6.774  0.00  0.00    +0.000 C 
ATOM     24  N   UNL     1      48.649   2.690   6.263  0.00  0.00    +0.000 N 
ATOM     25  O   UNL     1      47.661   0.680   6.517  0.00  0.00    +0.000 OA
ATOM     26  H   UNL     1      48.564   3.694   6.241  0.00  0.00    +0.000 HD
ATOM     27  H   UNL     1      49.286   2.258   5.606  0.00  0.00    +0.000 HD
ENDBRANCH  20  23
ENDBRANCH  16  17
ENDBRANCH  15  16
ENDBRANCH   2  15
TORSDOF 7
ENDMDL
MODEL 7
REMARK VINA RESULT:    -6.626      3.274      3.900
REMARK INTER + INTRA:         -10.435
REMARK INTER:                  -9.509
REMARK INTRA:                  -0.927
REMARK UNBOUND:                -1.098
REMARK  Name = 
REMARK  8 active torsions:
REMARK  status: ('A' for Active; 'I' for Inactive)
REMARK    1  A    between atoms: C_1  and  C_2
REMARK    2  A    between atoms: C_2  and  C_3
REMARK    3  A    between atoms: C_2  and  C_14
REMARK    4  A    between atoms: C_3  and  O_4
REMARK    5  A    between atoms: O_4  and  C_5
REMARK    6  A    between atoms: C_8  and  C_9
REMARK    7  A    between atoms: C_18  and  O_19
REMARK    8  A    between atoms: O_19  and  C_20
REMARK                            x       y       z     vdW  Elec       q    Type
REMARK                         _______ _______ _______ _____ _____    ______ ____
ROOT
ATOM      1  C   UNL     1      43.256   6.730  11.020  0.00  0.00    +0.000 C 
ATOM      2  C   UNL     1      44.537   6.264  11.636  0.00  0.00    +0.000 C 
ENDROOT
BRANCH   2   3
ATOM      3  C   UNL     1      45.637   7.219  11.879  0.00  0.00    +0.000 A 
ATOM      4  C   UNL     1      45.386   8.567  12.160  0.00  0.00    +0.000 A 
ATOM      5  C   UNL     1      46.440   9.475  12.305  0.00  0.00    +0.000 A 
ATOM      6  C   UNL     1      47.763   9.047  12.180  0.00  0.00    +0.000 A 
ATOM      7  C   UNL     1      48.027   7.707  11.921  0.00  0.00    +0.000 A 
ATOM      8  C   UNL     1      46.971   6.801  11.786  0.00  0.00    +0.000 A 
BRANCH   7   9
ATOM      9  O   UNL     1      49.283   7.165  11.814  0.00  0.00    +0.000 OA
BRANCH   9  10
ATOM     10  C   UNL     1      50.376   8.010  11.387  0.00  0.00    +0.000 C 
ATOM     11  C   UNL     1      51.546   7.355  10.625  0.00  0.00    +0.000 C 
ATOM     12  N   UNL     1      52.511   7.940  11.569  0.00  0.00    +0.000 NA
ATOM     13  C   UNL     1      51.420   8.307  12.484  0.00  0.00    +0.000 C 
ATOM     14  H   UNL     1      53.028   8.736  11.200  0.00  0.00    +0.000 HD
ENDBRANCH   9  10
ENDBRANCH   7   9
ENDBRANCH   2   3
BRANCH   2  15
ATOM     15  C   UNL     1      44.906   4.812  11.479  0.00  0.00    +0.000 C 
BRANCH  15  16
ATOM     16  O   UNL     1      44.228   4.239  10.358  0.00  0.00    +0.000 OA
BRANCH  16  17
ATOM     17  C   UNL     1      45.039   3.712   9.383  0.00  0.00    +0.000 A 
ATOM     18  C   UNL     1      45.747   4.450   8.430  0.00  0.00    +0.000 A 
ATOM     19  C   UNL     1      46.547   3.803   7.486  0.00  0.00    +0.000 A 
ATOM     20  C   UNL     1      46.658   2.409   7.484  0.00  0.00    +0.000 A 
ATOM     21  C   UNL     1      45.943   1.664   8.429  0.00  0.00    +0.000 A 
ATOM     22  C   UNL     1      45.138   2.317   9.372  0.00  0.00    +0.000 A 
BRANCH  20  23
ATOM     23  C   UNL     1      47.525   1.783   6.452  0.00  0.00    +0.000 C 
ATOM     24  N   UNL     1      48.539   2.539   5.937  0.00  0.00    +0.000 N 
ATOM     25  O   UNL     1      47.319   0.647   6.041  0.00  0.00    +0.000 OA
ATOM     26  H   UNL     1      48.590   3.538   6.060  0.00  0.00    +0.000 HD
ATOM     27  H   UNL     1      49.036   2.136   5.153  0.00  0.00    +0.000 HD
ENDBRANCH  20  23
ENDBRANCH  16  17
ENDBRANCH  15  16
ENDBRANCH   2  15
TORSDOF 7
ENDMDL
MODEL 8
REMARK VINA RESULT:    -6.462      2.916      4.615
REMARK INTER + INTRA:         -10.204
REMARK INTER:                  -8.972
REMARK INTRA:                  -1.232
REMARK UNBOUND:                -1.098
REMARK  Name = 
REMARK  8 active torsions:
REMARK  status: ('A' for Active; 'I' for Inactive)
REMARK    1  A    between atoms: C_1  and  C_2
REMARK    2  A    between atoms: C_2  and  C_3
REMARK    3  A    between atoms: C_2  and  C_14
REMARK    4  A    between atoms: C_3  and  O_4
REMARK    5  A    between atoms: O_4  and  C_5
REMARK    6  A    between atoms: C_8  and  C_9
REMARK    7  A    between atoms: C_18  and  O_19
REMARK    8  A    between atoms: O_19  and  C_20
REMARK                            x       y       z     vdW  Elec       q    Type
REMARK                         _______ _______ _______ _____ _____    ______ ____
ROOT
ATOM      1  C   UNL     1      49.348   7.524  11.817  0.00  0.00    +0.000 C 
ATOM      2  C   UNL     1      48.363   8.133  12.765  0.00  0.00    +0.000 C 
ENDROOT
BRANCH   2   3
ATOM      3  C   UNL     1      48.491   7.904  14.219  0.00  0.00    +0.000 A 
ATOM      4  C   UNL     1      48.473   8.966  15.130  0.00  0.00    +0.000 A 
ATOM      5  C   UNL     1      48.678   8.740  16.495  0.00  0.00    +0.000 A 
ATOM      6  C   UNL     1      48.896   7.446  16.971  0.00  0.00    +0.000 A 
ATOM      7  C   UNL     1      48.897   6.379  16.079  0.00  0.00    +0.000 A 
ATOM      8  C   UNL     1      48.681   6.609  14.717  0.00  0.00    +0.000 A 
BRANCH   7   9
ATOM      9  O   UNL     1      49.063   5.064  16.434  0.00  0.00    +0.000 OA
BRANCH   9  10
ATOM     10  C   UNL     1      47.928   4.171  16.367  0.00  0.00    +0.000 C 
ATOM     11  C   UNL     1      46.847   4.287  17.461  0.00  0.00    +0.000 C 
ATOM     12  N   UNL     1      46.953   2.848  17.743  0.00  0.00    +0.000 NA
ATOM     13  C   UNL     1      48.186   2.765  16.946  0.00  0.00    +0.000 C 
ATOM     14  H   UNL     1      46.183   2.291  17.375  0.00  0.00    +0.000 HD
ENDBRANCH   9  10
ENDBRANCH   7   9
ENDBRANCH   2   3
BRANCH   2  15
ATOM     15  C   UNL     1      46.994   8.468  12.237  0.00  0.00    +0.000 C 
BRANCH  15  16
ATOM     16  O   UNL     1      45.982   7.821  13.013  0.00  0.00    +0.000 OA
BRANCH  16  17
ATOM     17  C   UNL     1      45.482   6.658  12.481  0.00  0.00    +0.000 A 
ATOM     18  C   UNL     1      44.962   6.514  11.192  0.00  0.00    +0.000 A 
ATOM     19  C   UNL     1      44.484   5.275  10.757  0.00  0.00    +0.000 A 
ATOM     20  C   UNL     1      44.525   4.161  11.602  0.00  0.00    +0.000 A 
ATOM     21  C   UNL     1      45.035   4.302  12.897  0.00  0.00    +0.000 A 
ATOM     22  C   UNL     1      45.510   5.547  13.330  0.00  0.00    +0.000 A 
BRANCH  20  23
ATOM     23  C   UNL     1      44.000   2.874  11.077  0.00  0.00    +0.000 C 
ATOM     24  N   UNL     1      44.672   2.293  10.039  0.00  0.00    +0.000 N 
ATOM     25  O   UNL     1      42.977   2.367  11.523  0.00  0.00    +0.000 OA
ATOM     26  H   UNL     1      45.355   2.789   9.489  0.00  0.00    +0.000 HD
ATOM     27  H   UNL     1      44.227   1.486   9.621  0.00  0.00    +0.000 HD
ENDBRANCH  20  23
ENDBRANCH  16  17
ENDBRANCH  15  16
ENDBRANCH   2  15
TORSDOF 7
ENDMDL
MODEL 9
REMARK VINA RESULT:    -6.101      3.418      7.576
REMARK INTER + INTRA:          -9.696
REMARK INTER:                  -8.545
REMARK INTRA:                  -1.150
REMARK UNBOUND:                -1.098
REMARK  Name = 
REMARK  8 active torsions:
REMARK  status: ('A' for Active; 'I' for Inactive)
REMARK    1  A    between atoms: C_1  and  C_2
REMARK    2  A    between atoms: C_2  and  C_3
REMARK    3  A    between atoms: C_2  and  C_14
REMARK    4  A    between atoms: C_3  and  O_4
REMARK    5  A    between atoms: O_4  and  C_5
REMARK    6  A    between atoms: C_8  and  C_9
REMARK    7  A    between atoms: C_18  and  O_19
REMARK    8  A    between atoms: O_19  and  C_20
REMARK                            x       y       z     vdW  Elec       q    Type
REMARK                         _______ _______ _______ _____ _____    ______ ____
ROOT
ATOM      1  C   UNL     1      49.635   9.576  11.696  0.00  0.00    +0.000 C 
ATOM      2  C   UNL     1      48.974   8.293  12.092  0.00  0.00    +0.000 C 
ENDROOT
BRANCH   2   3
ATOM      3  C   UNL     1      47.520   8.117  11.906  0.00  0.00    +0.000 A 
ATOM      4  C   UNL     1      46.630   9.188  12.046  0.00  0.00    +0.000 A 
ATOM      5  C   UNL     1      45.249   8.988  11.948  0.00  0.00    +0.000 A 
ATOM      6  C   UNL     1      44.737   7.713  11.699  0.00  0.00    +0.000 A 
ATOM      7  C   UNL     1      45.610   6.644  11.538  0.00  0.00    +0.000 A 
ATOM      8  C   UNL     1      46.990   6.850  11.626  0.00  0.00    +0.000 A 
BRANCH   7   9
ATOM      9  O   UNL     1      45.226   5.357  11.255  0.00  0.00    +0.000 OA
BRANCH   9  10
ATOM     10  C   UNL     1      44.823   4.491  12.340  0.00  0.00    +0.000 C 
ATOM     11  C   UNL     1      45.226   3.005  12.272  0.00  0.00    +0.000 C 
ATOM     12  N   UNL     1      43.828   2.598  12.484  0.00  0.00    +0.000 NA
ATOM     13  C   UNL     1      43.373   3.975  12.241  0.00  0.00    +0.000 C 
ATOM     14  H   UNL     1      43.629   2.256  13.423  0.00  0.00    +0.000 HD
ENDBRANCH   9  10
ENDBRANCH   7   9
ENDBRANCH   2   3
BRANCH   2  15
ATOM     15  C   UNL     1      49.641   7.457  13.152  0.00  0.00    +0.000 C 
BRANCH  15  16
ATOM     16  O   UNL     1      49.133   7.787  14.447  0.00  0.00    +0.000 OA
BRANCH  16  17
ATOM     17  C   UNL     1      48.720   6.721  15.208  0.00  0.00    +0.000 A 
ATOM     18  C   UNL     1      47.797   5.750  14.810  0.00  0.00    +0.000 A 
ATOM     19  C   UNL     1      47.454   4.704  15.671  0.00  0.00    +0.000 A 
ATOM     20  C   UNL     1      48.034   4.611  16.940  0.00  0.00    +0.000 A 
ATOM     21  C   UNL     1      48.950   5.587  17.349  0.00  0.00    +0.000 A 
ATOM     22  C   UNL     1      49.288   6.635  16.483  0.00  0.00    +0.000 A 
BRANCH  20  23
ATOM     23  C   UNL     1      47.625   3.475  17.807  0.00  0.00    +0.000 C 
ATOM     24  N   UNL     1      48.351   3.252  18.942  0.00  0.00    +0.000 N 
ATOM     25  O   UNL     1      46.699   2.733  17.500  0.00  0.00    +0.000 OA
ATOM     26  H   UNL     1      49.253   3.673  19.101  0.00  0.00    +0.000 HD
ATOM     27  H   UNL     1      48.131   2.404  19.448  0.00  0.00    +0.000 HD
ENDBRANCH  20  23
ENDBRANCH  16  17
ENDBRANCH  15  16
ENDBRANCH   2  15
TORSDOF 7
ENDMDL
