MODEL 1
REMARK VINA RESULT:    -7.581      0.000      0.000
REMARK INTER + INTRA:         -10.586
REMARK INTER:                 -10.018
REMARK INTRA:                  -0.568
REMARK UNBOUND:                -0.568
REMARK  Name = 
REMARK  6 active torsions:
REMARK  status: ('A' for Active; 'I' for Inactive)
REMARK    1  A    between atoms: N_1  and  C_2
REMARK    2  A    between atoms: C_2  and  C_3
REMARK    3  A    between atoms: C_7  and  C_8
REMARK    4  A    between atoms: C_8  and  C_9
REMARK    5  A    between atoms: C_9  and  N_10
REMARK    6  A    between atoms: C_14  and  C_15
REMARK                            x       y       z     vdW  Elec       q    Type
REMARK                         _______ _______ _______ _____ _____    ______ ____
ROOT
ATOM      1  N   UNL     1      43.883   3.534  10.331  0.00  0.00    +0.000 N 
ATOM      2  C   UNL     1      44.767   3.246   9.270  0.00  0.00    +0.000 A 
ATOM      3  C   UNL     1      45.238   1.947   9.104  0.00  0.00    +0.000 A 
ATOM      4  C   UNL     1      46.131   1.666   8.062  0.00  0.00    +0.000 A 
ATOM      5  C   UNL     1      46.537   2.687   7.203  0.00  0.00    +0.000 A 
ATOM      6  C   UNL     1      46.025   3.946   7.444  0.00  0.00    +0.000 A 
ATOM      7  N   UNL     1      45.167   4.239   8.449  0.00  0.00    +0.000 NA
ATOM      8  H   UNL     1      43.083   2.910  10.257  0.00  0.00    +0.000 HD
ENDROOT
BRANCH   5   9
ATOM      9  C   UNL     1      47.479   2.394   6.096  0.00  0.00    +0.000 C 
ATOM     10  N   UNL     1      48.826   2.478   6.326  0.00  0.00    +0.000 N 
ATOM     11  O   UNL     1      47.066   2.083   4.984  0.00  0.00    +0.000 OA
ATOM     12  H   UNL     1      49.273   2.716   7.196  0.00  0.00    +0.000 HD
ATOM     13  H   UNL     1      49.430   2.266   5.539  0.00  0.00    +0.000 HD
ENDBRANCH   5   9
BRANCH   1  14
ATOM     14  C   UNL     1      43.492   4.950  10.357  0.00  0.00    +0.000 C 
BRANCH  14  15
ATOM     15  C   UNL     1      43.504   5.520  11.780  0.00  0.00    +0.000 C 
BRANCH  15  20
ATOM     16  C   UNL     1      46.776   5.262  13.757  0.00  0.00    +0.000 A 
ATOM     17  C   UNL     1      47.603   6.110  13.005  0.00  0.00    +0.000 A 
ATOM     18  C   UNL     1      47.100   6.794  11.900  0.00  0.00    +0.000 A 
ATOM     19  C   UNL     1      45.768   6.627  11.519  0.00  0.00    +0.000 A 
ATOM     20  C   UNL     1      44.924   5.774  12.243  0.00  0.00    +0.000 A 
ATOM     21  C   UNL     1      45.437   5.101  13.365  0.00  0.00    +0.000 A 
BRANCH  16  22
ATOM     22  C   UNL     1      47.336   4.511  14.939  0.00  0.00    +0.000 C 
BRANCH  22  23
ATOM     23  N   UNL     1      47.479   3.086  14.657  0.00  0.00    +0.000 NA
ATOM     24  H   UNL     1      46.618   2.607  14.912  0.00  0.00    +0.000 HD
ATOM     25  H   UNL     1      48.211   2.708  15.258  0.00  0.00    +0.000 HD
ENDBRANCH  22  23
ENDBRANCH  16  22
ENDBRANCH  15  20
ENDBRANCH  14  15
ENDBRANCH   1  14
TORSDOF 6
ENDMDL
MODEL 2
REMARK VINA RESULT:    -7.526      1.840      2.455
REMARK INTER + INTRA:         -10.513
REMARK INTER:                  -9.938
REMARK INTRA:                  -0.576
REMARK UNBOUND:                -0.568
REMARK  Name = 
REMARK  6 active torsions:
REMARK  status: ('A' for Active; 'I' for Inactive)
REMARK    1  A    between atoms: N_1  and  C_2
REMARK    2  A    between atoms: C_2  and  C_3
REMARK    3  A    between atoms: C_7  and  C_8
REMARK    4  A    between atoms: C_8  and  C_9
REMARK    5  A    between atoms: C_9  and  N_10
REMARK    6  A    between atoms: C_14  and  C_15
REMARK                            x       y       z     vdW  Elec       q    Type
REMARK                         _______ _______ _______ _____ _____    ______ ____
ROOT
ATOM      1  N   UNL     1      43.893   5.074   9.901  0.00  0.00    +0.000 N 
ATOM      2  C   UNL     1      44.669   4.066   9.291  0.00  0.00    +0.000 A 
ATOM      3  C   UNL     1      45.491   4.392   8.215  0.00  0.00    +0.000 A 
ATOM      4  C   UNL     1      46.246   3.388   7.597  0.00  0.00    +0.000 A 
ATOM      5  C   UNL     1      46.169   2.076   8.064  0.00  0.00    +0.000 A 
ATOM      6  C   UNL     1      45.325   1.841   9.130  0.00  0.00    +0.000 A 
ATOM      7  N   UNL     1      44.582   2.797   9.737  0.00  0.00    +0.000 NA
ATOM      8  H   UNL     1      44.516   5.824  10.191  0.00  0.00    +0.000 HD
ENDROOT
BRANCH   5   9
ATOM      9  C   UNL     1      46.970   1.009   7.415  0.00  0.00    +0.000 C 
ATOM     10  N   UNL     1      47.906   1.355   6.477  0.00  0.00    +0.000 N 
ATOM     11  O   UNL     1      46.801  -0.170   7.706  0.00  0.00    +0.000 OA
ATOM     12  H   UNL     1      48.132   2.286   6.170  0.00  0.00    +0.000 HD
ATOM     13  H   UNL     1      48.430   0.592   6.065  0.00  0.00    +0.000 HD
ENDBRANCH   5   9
BRANCH   1  14
ATOM     14  C   UNL     1      43.086   4.553  11.013  0.00  0.00    +0.000 C 
BRANCH  14  15
ATOM     15  C   UNL     1      43.198   5.434  12.262  0.00  0.00    +0.000 C 
BRANCH  15  20
ATOM     16  C   UNL     1      46.561   7.016  13.195  0.00  0.00    +0.000 A 
ATOM     17  C   UNL     1      47.269   5.887  13.630  0.00  0.00    +0.000 A 
ATOM     18  C   UNL     1      46.686   4.621  13.581  0.00  0.00    +0.000 A 
ATOM     19  C   UNL     1      45.380   4.469  13.113  0.00  0.00    +0.000 A 
ATOM     20  C   UNL     1      44.645   5.583  12.685  0.00  0.00    +0.000 A 
ATOM     21  C   UNL     1      45.247   6.852  12.725  0.00  0.00    +0.000 A 
BRANCH  16  22
ATOM     22  C   UNL     1      47.194   8.383  13.271  0.00  0.00    +0.000 C 
BRANCH  22  23
ATOM     23  N   UNL     1      47.208   8.898  14.637  0.00  0.00    +0.000 NA
ATOM     24  H   UNL     1      47.970   8.461  15.150  0.00  0.00    +0.000 HD
ATOM     25  H   UNL     1      46.345   8.615  15.100  0.00  0.00    +0.000 HD
ENDBRANCH  22  23
ENDBRANCH  16  22
ENDBRANCH  15  20
ENDBRANCH  14  15
ENDBRANCH   1  14
TORSDOF 6
ENDMDL
MODEL 3
REMARK VINA RESULT:    -7.357      2.981      6.583
REMARK INTER + INTRA:         -10.291
REMARK INTER:                  -9.743
REMARK INTRA:                  -0.548
REMARK UNBOUND:                -0.568
REMARK  Name = 
REMARK  6 active torsions:
REMARK  status: ('A' for Active; 'I' for Inactive)
REMARK    1  A    between atoms: N_1  and  C_2
REMARK    2  A    between atoms: C_2  and  C_3
REMARK    3  A    between atoms: C_7  and  C_8
REMARK    4  A    between atoms: C_8  and  C_9
REMARK    5  A    between atoms: C_9  and  N_10
REMARK    6  A    between atoms: C_14  and  C_15
REMARK                            x       y       z     vdW  Elec       q    Type
REMARK                         _______ _______ _______ _____ _____    ______ ____
ROOT
ATOM      1  N   UNL     1      44.996   2.949  12.312  0.00  0.00    +0.000 N 
ATOM      2  C   UNL     1      45.672   4.138  12.658  0.00  0.00    +0.000 A 
ATOM      3  C   UNL     1      46.675   4.100  13.623  0.00  0.00    +0.000 A 
ATOM      4  C   UNL     1      47.332   5.284  13.980  0.00  0.00    +0.000 A 
ATOM      5  C   UNL     1      46.978   6.485  13.366  0.00  0.00    +0.000 A 
ATOM      6  C   UNL     1      45.970   6.432  12.425  0.00  0.00    +0.000 A 
ATOM      7  N   UNL     1      45.318   5.299  12.071  0.00  0.00    +0.000 NA
ATOM      8  H   UNL     1      45.688   2.260  12.027  0.00  0.00    +0.000 HD
ENDROOT
BRANCH   5   9
ATOM      9  C   UNL     1      47.675   7.741  13.737  0.00  0.00    +0.000 C 
ATOM     10  N   UNL     1      46.949   8.773  14.270  0.00  0.00    +0.000 N 
ATOM     11  O   UNL     1      48.883   7.864  13.569  0.00  0.00    +0.000 OA
ATOM     12  H   UNL     1      45.961   8.778  14.457  0.00  0.00    +0.000 HD
ATOM     13  H   UNL     1      47.470   9.609  14.510  0.00  0.00    +0.000 HD
ENDBRANCH   5   9
BRANCH   1  14
ATOM     14  C   UNL     1      43.971   3.175  11.284  0.00  0.00    +0.000 C 
BRANCH  14  15
ATOM     15  C   UNL     1      44.082   2.167  10.135  0.00  0.00    +0.000 C 
BRANCH  15  20
ATOM     16  C   UNL     1      46.758   2.100   7.392  0.00  0.00    +0.000 A 
ATOM     17  C   UNL     1      46.871   3.468   7.104  0.00  0.00    +0.000 A 
ATOM     18  C   UNL     1      46.127   4.407   7.816  0.00  0.00    +0.000 A 
ATOM     19  C   UNL     1      45.246   3.991   8.816  0.00  0.00    +0.000 A 
ATOM     20  C   UNL     1      45.103   2.629   9.114  0.00  0.00    +0.000 A 
ATOM     21  C   UNL     1      45.869   1.692   8.400  0.00  0.00    +0.000 A 
BRANCH  16  22
ATOM     22  C   UNL     1      47.553   1.091   6.602  0.00  0.00    +0.000 C 
BRANCH  22  23
ATOM     23  N   UNL     1      48.496   1.736   5.694  0.00  0.00    +0.000 NA
ATOM     24  H   UNL     1      49.239   2.169   6.236  0.00  0.00    +0.000 HD
ATOM     25  H   UNL     1      48.013   2.490   5.206  0.00  0.00    +0.000 HD
ENDBRANCH  22  23
ENDBRANCH  16  22
ENDBRANCH  15  20
ENDBRANCH  14  15
ENDBRANCH   1  14
TORSDOF 6
ENDMDL
MODEL 4
REMARK VINA RESULT:    -6.785      2.916      7.190
REMARK INTER + INTRA:          -9.535
REMARK INTER:                  -9.155
REMARK INTRA:                  -0.380
REMARK UNBOUND:                -0.568
REMARK  Name = 
REMARK  6 active torsions:
REMARK  status: ('A' for Active; 'I' for Inactive)
REMARK    1  A    between atoms: N_1  and  C_2
REMARK    2  A    between atoms: C_2  and  C_3
REMARK    3  A    between atoms: C_7  and  C_8
REMARK    4  A    between atoms: C_8  and  C_9
REMARK    5  A    between atoms: C_9  and  N_10
REMARK    6  A    between atoms: C_14  and  C_15
REMARK                            x       y       z     vdW  Elec       q    Type
REMARK                         _______ _______ _______ _____ _____    ______ ____
ROOT
ATOM      1  N   UNL     1      45.082   5.514  10.564  0.00  0.00    +0.000 N 
ATOM      2  C   UNL     1      45.679   5.258  11.816  0.00  0.00    +0.000 A 
ATOM      3  C   UNL     1      46.360   6.280  12.472  0.00  0.00    +0.000 A 
ATOM      4  C   UNL     1      46.970   6.020  13.706  0.00  0.00    +0.000 A 
ATOM      5  C   UNL     1      46.888   4.744  14.264  0.00  0.00    +0.000 A 
ATOM      6  C   UNL     1      46.199   3.790  13.543  0.00  0.00    +0.000 A 
ATOM      7  N   UNL     1      45.609   4.020  12.347  0.00  0.00    +0.000 NA
ATOM      8  H   UNL     1      44.449   6.304  10.668  0.00  0.00    +0.000 HD
ENDROOT
BRANCH   5   9
ATOM      9  C   UNL     1      47.528   4.465  15.572  0.00  0.00    +0.000 C 
ATOM     10  N   UNL     1      46.918   3.600  16.442  0.00  0.00    +0.000 N 
ATOM     11  O   UNL     1      48.587   5.000  15.882  0.00  0.00    +0.000 OA
ATOM     12  H   UNL     1      46.057   3.103  16.289  0.00  0.00    +0.000 HD
ATOM     13  H   UNL     1      47.395   3.439  17.322  0.00  0.00    +0.000 HD
ENDBRANCH   5   9
BRANCH   1  14
ATOM     14  C   UNL     1      44.412   4.326  10.017  0.00  0.00    +0.000 C 
BRANCH  14  15
ATOM     15  C   UNL     1      44.459   4.296   8.486  0.00  0.00    +0.000 C 
BRANCH  15  20
ATOM     16  C   UNL     1      46.943   2.237   6.419  0.00  0.00    +0.000 A 
ATOM     17  C   UNL     1      47.011   1.064   7.185  0.00  0.00    +0.000 A 
ATOM     18  C   UNL     1      46.231   0.919   8.330  0.00  0.00    +0.000 A 
ATOM     19  C   UNL     1      45.384   1.951   8.737  0.00  0.00    +0.000 A 
ATOM     20  C   UNL     1      45.308   3.139   7.998  0.00  0.00    +0.000 A 
ATOM     21  C   UNL     1      46.088   3.270   6.837  0.00  0.00    +0.000 A 
BRANCH  16  22
ATOM     22  C   UNL     1      47.807   2.392   5.192  0.00  0.00    +0.000 C 
BRANCH  22  23
ATOM     23  N   UNL     1      47.753   1.208   4.339  0.00  0.00    +0.000 NA
ATOM     24  H   UNL     1      48.466   1.284   3.617  0.00  0.00    +0.000 HD
ATOM     25  H   UNL     1      46.853   1.194   3.859  0.00  0.00    +0.000 HD
ENDBRANCH  22  23
ENDBRANCH  16  22
ENDBRANCH  15  20
ENDBRANCH  14  15
ENDBRANCH   1  14
TORSDOF 6
ENDMDL
MODEL 5
REMARK VINA RESULT:    -6.342      3.534      6.113
REMARK INTER + INTRA:          -8.949
REMARK INTER:                  -8.634
REMARK INTRA:                  -0.314
REMARK UNBOUND:                -0.568
REMARK  Name = 
REMARK  6 active torsions:
REMARK  status: ('A' for Active; 'I' for Inactive)
REMARK    1  A    between atoms: N_1  and  C_2
REMARK    2  A    between atoms: C_2  and  C_3
REMARK    3  A    between atoms: C_7  and  C_8
REMARK    4  A    between atoms: C_8  and  C_9
REMARK    5  A    between atoms: C_9  and  N_10
REMARK    6  A    between atoms: C_14  and  C_15
REMARK                            x       y       z     vdW  Elec       q    Type
REMARK                         _______ _______ _______ _____ _____    ______ ____
ROOT
ATOM      1  N   UNL     1      47.075   5.195  14.844  0.00  0.00    +0.000 N 
ATOM      2  C   UNL     1      46.384   4.836  13.667  0.00  0.00    +0.000 A 
ATOM      3  C   UNL     1      46.104   5.810  12.713  0.00  0.00    +0.000 A 
ATOM      4  C   UNL     1      45.401   5.457  11.554  0.00  0.00    +0.000 A 
ATOM      5  C   UNL     1      44.991   4.138  11.367  0.00  0.00    +0.000 A 
ATOM      6  C   UNL     1      45.306   3.239  12.367  0.00  0.00    +0.000 A 
ATOM      7  N   UNL     1      45.978   3.562  13.496  0.00  0.00    +0.000 NA
ATOM      8  H   UNL     1      47.949   5.642  14.577  0.00  0.00    +0.000 HD
ENDROOT
BRANCH   5   9
ATOM      9  C   UNL     1      44.251   3.758  10.140  0.00  0.00    +0.000 C 
ATOM     10  N   UNL     1      43.772   4.743   9.318  0.00  0.00    +0.000 N 
ATOM     11  O   UNL     1      44.062   2.580   9.858  0.00  0.00    +0.000 OA
ATOM     12  H   UNL     1      43.875   5.736   9.448  0.00  0.00    +0.000 HD
ATOM     13  H   UNL     1      43.275   4.434   8.490  0.00  0.00    +0.000 HD
ENDBRANCH   5   9
BRANCH   1  14
ATOM     14  C   UNL     1      47.280   4.047  15.737  0.00  0.00    +0.000 C 
BRANCH  14  15
ATOM     15  C   UNL     1      47.550   4.486  17.180  0.00  0.00    +0.000 C 
BRANCH  15  20
ATOM     16  C   UNL     1      50.884   2.624  17.509  0.00  0.00    +0.000 A 
ATOM     17  C   UNL     1      51.653   3.583  18.184  0.00  0.00    +0.000 A 
ATOM     18  C   UNL     1      51.091   4.799  18.571  0.00  0.00    +0.000 A 
ATOM     19  C   UNL     1      49.758   5.081  18.272  0.00  0.00    +0.000 A 
ATOM     20  C   UNL     1      48.970   4.147  17.586  0.00  0.00    +0.000 A 
ATOM     21  C   UNL     1      49.542   2.919  17.213  0.00  0.00    +0.000 A 
BRANCH  16  22
ATOM     22  C   UNL     1      51.507   1.321  17.077  0.00  0.00    +0.000 C 
BRANCH  22  23
ATOM     23  N   UNL     1      51.523   0.343  18.161  0.00  0.00    +0.000 NA
ATOM     24  H   UNL     1      50.637  -0.155  18.175  0.00  0.00    +0.000 HD
ATOM     25  H   UNL     1      51.592   0.843  19.047  0.00  0.00    +0.000 HD
ENDBRANCH  22  23
ENDBRANCH  16  22
ENDBRANCH  15  20
ENDBRANCH  14  15
ENDBRANCH   1  14
TORSDOF 6
ENDMDL
MODEL 6
REMARK VINA RESULT:    -6.315      1.828      2.332
REMARK INTER + INTRA:          -8.914
REMARK INTER:                  -8.423
REMARK INTRA:                  -0.491
REMARK UNBOUND:                -0.568
REMARK  Name = 
REMARK  6 active torsions:
REMARK  status: ('A' for Active; 'I' for Inactive)
REMARK    1  A    between atoms: N_1  and  C_2
REMARK    2  A    between atoms: C_2  and  C_3
REMARK    3  A    between atoms: C_7  and  C_8
REMARK    4  A    between atoms: C_8  and  C_9
REMARK    5  A    between atoms: C_9  and  N_10
REMARK    6  A    between atoms: C_14  and  C_15
REMARK                            x       y       z     vdW  Elec       q    Type
REMARK                         _______ _______ _______ _____ _____    ______ ____
ROOT
ATOM      1  N   UNL     1      43.785   4.317  10.898  0.00  0.00    +0.000 N 
ATOM      2  C   UNL     1      44.643   3.909   9.854  0.00  0.00    +0.000 A 
ATOM      3  C   UNL     1      44.705   2.562   9.506  0.00  0.00    +0.000 A 
ATOM      4  C   UNL     1      45.571   2.154   8.484  0.00  0.00    +0.000 A 
ATOM      5  C   UNL     1      46.358   3.098   7.825  0.00  0.00    +0.000 A 
ATOM      6  C   UNL     1      46.237   4.410   8.238  0.00  0.00    +0.000 A 
ATOM      7  N   UNL     1      45.412   4.823   9.228  0.00  0.00    +0.000 NA
ATOM      8  H   UNL     1      42.844   4.000  10.680  0.00  0.00    +0.000 HD
ENDROOT
BRANCH   5   9
ATOM      9  C   UNL     1      47.273   2.673   6.738  0.00  0.00    +0.000 C 
ATOM     10  N   UNL     1      47.121   3.213   5.489  0.00  0.00    +0.000 N 
ATOM     11  O   UNL     1      48.154   1.845   6.944  0.00  0.00    +0.000 OA
ATOM     12  H   UNL     1      46.441   3.901   5.211  0.00  0.00    +0.000 HD
ATOM     13  H   UNL     1      47.772   2.893   4.780  0.00  0.00    +0.000 HD
ENDBRANCH   5   9
BRANCH   1  14
ATOM     14  C   UNL     1      43.850   5.767  11.131  0.00  0.00    +0.000 C 
BRANCH  14  15
ATOM     15  C   UNL     1      44.420   6.098  12.515  0.00  0.00    +0.000 C 
BRANCH  15  20
ATOM     16  C   UNL     1      47.705   8.029  12.115  0.00  0.00    +0.000 A 
ATOM     17  C   UNL     1      47.231   9.348  12.090  0.00  0.00    +0.000 A 
ATOM     18  C   UNL     1      45.872   9.617  12.246  0.00  0.00    +0.000 A 
ATOM     19  C   UNL     1      44.965   8.570  12.412  0.00  0.00    +0.000 A 
ATOM     20  C   UNL     1      45.410   7.241  12.426  0.00  0.00    +0.000 A 
ATOM     21  C   UNL     1      46.784   6.982  12.283  0.00  0.00    +0.000 A 
BRANCH  16  22
ATOM     22  C   UNL     1      49.175   7.748  11.925  0.00  0.00    +0.000 C 
BRANCH  22  23
ATOM     23  N   UNL     1      49.614   6.602  12.715  0.00  0.00    +0.000 NA
ATOM     24  H   UNL     1      50.628   6.618  12.791  0.00  0.00    +0.000 HD
ATOM     25  H   UNL     1      49.373   5.749  12.212  0.00  0.00    +0.000 HD
ENDBRANCH  22  23
ENDBRANCH  16  22
ENDBRANCH  15  20
ENDBRANCH  14  15
ENDBRANCH   1  14
TORSDOF 6
ENDMDL
MODEL 7
REMARK VINA RESULT:    -6.263      3.203      7.037
REMARK INTER + INTRA:          -8.845
REMARK INTER:                  -9.008
REMARK INTRA:                   0.163
REMARK UNBOUND:                -0.568
REMARK  Name = 
REMARK  6 active torsions:
REMARK  status: ('A' for Active; 'I' for Inactive)
REMARK    1  A    between atoms: N_1  and  C_2
REMARK    2  A    between atoms: C_2  and  C_3
REMARK    3  A    between atoms: C_7  and  C_8
REMARK    4  A    between atoms: C_8  and  C_9
REMARK    5  A    between atoms: C_9  and  N_10
REMARK    6  A    between atoms: C_14  and  C_15
REMARK                            x       y       z     vdW  Elec       q    Type
REMARK                         _______ _______ _______ _____ _____    ______ ____
ROOT
ATOM      1  N   UNL     1      45.224   3.643  11.406  0.00  0.00    +0.000 N 
ATOM      2  C   UNL     1      45.333   5.019  11.699  0.00  0.00    +0.000 A 
ATOM      3  C   UNL     1      46.356   5.464  12.531  0.00  0.00    +0.000 A 
ATOM      4  C   UNL     1      46.452   6.827  12.837  0.00  0.00    +0.000 A 
ATOM      5  C   UNL     1      45.525   7.723  12.306  0.00  0.00    +0.000 A 
ATOM      6  C   UNL     1      44.539   7.195  11.495  0.00  0.00    +0.000 A 
ATOM      7  N   UNL     1      44.426   5.881  11.194  0.00  0.00    +0.000 NA
ATOM      8  H   UNL     1      46.110   3.329  11.018  0.00  0.00    +0.000 HD
ENDROOT
BRANCH   5   9
ATOM      9  C   UNL     1      45.624   9.168  12.623  0.00  0.00    +0.000 C 
ATOM     10  N   UNL     1      44.491   9.937  12.597  0.00  0.00    +0.000 N 
ATOM     11  O   UNL     1      46.704   9.679  12.901  0.00  0.00    +0.000 OA
ATOM     12  H   UNL     1      43.557   9.622  12.390  0.00  0.00    +0.000 HD
ATOM     13  H   UNL     1      44.609  10.918  12.824  0.00  0.00    +0.000 HD
ENDBRANCH   5   9
BRANCH   1  14
ATOM     14  C   UNL     1      44.088   3.354  10.520  0.00  0.00    +0.000 C 
BRANCH  14  15
ATOM     15  C   UNL     1      44.329   3.868   9.096  0.00  0.00    +0.000 C 
BRANCH  15  20
ATOM     16  C   UNL     1      46.785   2.484   6.499  0.00  0.00    +0.000 A 
ATOM     17  C   UNL     1      46.968   1.181   6.982  0.00  0.00    +0.000 A 
ATOM     18  C   UNL     1      46.274   0.736   8.106  0.00  0.00    +0.000 A 
ATOM     19  C   UNL     1      45.399   1.594   8.774  0.00  0.00    +0.000 A 
ATOM     20  C   UNL     1      45.207   2.906   8.322  0.00  0.00    +0.000 A 
ATOM     21  C   UNL     1      45.901   3.340   7.179  0.00  0.00    +0.000 A 
BRANCH  16  22
ATOM     22  C   UNL     1      47.556   2.962   5.295  0.00  0.00    +0.000 C 
BRANCH  22  23
ATOM     23  N   UNL     1      48.128   1.850   4.542  0.00  0.00    +0.000 NA
ATOM     24  H   UNL     1      47.388   1.381   4.025  0.00  0.00    +0.000 HD
ATOM     25  H   UNL     1      48.500   1.168   5.203  0.00  0.00    +0.000 HD
ENDBRANCH  22  23
ENDBRANCH  16  22
ENDBRANCH  15  20
ENDBRANCH  14  15
ENDBRANCH   1  14
TORSDOF 6
ENDMDL
MODEL 8
REMARK VINA RESULT:    -6.170      3.583      7.514
REMARK INTER + INTRA:          -8.722
REMARK INTER:                  -8.285
REMARK INTRA:                  -0.438
REMARK UNBOUND:                -0.568
REMARK  Name = 
REMARK  6 active torsions:
REMARK  status: ('A' for Active; 'I' for Inactive)
REMARK    1  A    between atoms: N_1  and  C_2
REMARK    2  A    between atoms: C_2  and  C_3
REMARK    3  A    between atoms: C_7  and  C_8
REMARK    4  A    between atoms: C_8  and  C_9
REMARK    5  A    between atoms: C_9  and  N_10
REMARK    6  A    between atoms: C_14  and  C_15
REMARK                            x       y       z     vdW  Elec       q    Type
REMARK                         _______ _______ _______ _____ _____    ______ ____
ROOT
ATOM      1  N   UNL     1      48.514   7.132  13.688  0.00  0.00    +0.000 N 
ATOM      2  C   UNL     1      48.264   6.180  14.699  0.00  0.00    +0.000 A 
ATOM      3  C   UNL     1      48.790   6.380  15.973  0.00  0.00    +0.000 A 
ATOM      4  C   UNL     1      48.558   5.425  16.971  0.00  0.00    +0.000 A 
ATOM      5  C   UNL     1      47.805   4.287  16.680  0.00  0.00    +0.000 A 
ATOM      6  C   UNL     1      47.328   4.167  15.390  0.00  0.00    +0.000 A 
ATOM      7  N   UNL     1      47.546   5.075  14.411  0.00  0.00    +0.000 NA
ATOM      8  H   UNL     1      48.203   8.041  14.022  0.00  0.00    +0.000 HD
ENDROOT
BRANCH   5   9
ATOM      9  C   UNL     1      47.554   3.275  17.735  0.00  0.00    +0.000 C 
ATOM     10  N   UNL     1      48.418   3.186  18.793  0.00  0.00    +0.000 N 
ATOM     11  O   UNL     1      46.589   2.521  17.667  0.00  0.00    +0.000 OA
ATOM     12  H   UNL     1      49.232   3.755  18.953  0.00  0.00    +0.000 HD
ATOM     13  H   UNL     1      48.203   2.481  19.490  0.00  0.00    +0.000 HD
ENDBRANCH   5   9
BRANCH   1  14
ATOM     14  C   UNL     1      47.889   6.759  12.411  0.00  0.00    +0.000 C 
BRANCH  14  15
ATOM     15  C   UNL     1      46.540   7.458  12.210  0.00  0.00    +0.000 C 
BRANCH  15  20
ATOM     16  C   UNL     1      44.444   4.837  10.359  0.00  0.00    +0.000 A 
ATOM     17  C   UNL     1      43.554   4.452  11.372  0.00  0.00    +0.000 A 
ATOM     18  C   UNL     1      43.597   5.063  12.625  0.00  0.00    +0.000 A 
ATOM     19  C   UNL     1      44.543   6.054  12.888  0.00  0.00    +0.000 A 
ATOM     20  C   UNL     1      45.454   6.448  11.899  0.00  0.00    +0.000 A 
ATOM     21  C   UNL     1      45.392   5.836  10.636  0.00  0.00    +0.000 A 
BRANCH  16  22
ATOM     22  C   UNL     1      44.402   4.156   9.015  0.00  0.00    +0.000 C 
BRANCH  22  23
ATOM     23  N   UNL     1      45.480   4.612   8.143  0.00  0.00    +0.000 NA
ATOM     24  H   UNL     1      45.080   4.992   7.288  0.00  0.00    +0.000 HD
ATOM     25  H   UNL     1      46.040   3.805   7.868  0.00  0.00    +0.000 HD
ENDBRANCH  22  23
ENDBRANCH  16  22
ENDBRANCH  15  20
ENDBRANCH  14  15
ENDBRANCH   1  14
TORSDOF 6
ENDMDL
MODEL 9
REMARK VINA RESULT:    -6.021      3.957      7.337
REMARK INTER + INTRA:          -8.526
REMARK INTER:                  -8.189
REMARK INTRA:                  -0.336
REMARK UNBOUND:                -0.568
REMARK  Name = 
REMARK  6 active torsions:
REMARK  status: ('A' for Active; 'I' for Inactive)
REMARK    1  A    between atoms: N_1  and  C_2
REMARK    2  A    between atoms: C_2  and  C_3
REMARK    3  A    between atoms: C_7  and  C_8
REMARK    4  A    between atoms: C_8  and  C_9
REMARK    5  A    between atoms: C_9  and  N_10
REMARK    6  A    between atoms: C_14  and  C_15
REMARK                            x       y       z     vdW  Elec       q    Type
REMARK                         _______ _______ _______ _____ _____    ______ ____
ROOT
ATOM      1  N   UNL     1      48.594   7.187  13.547  0.00  0.00    +0.000 N 
ATOM      2  C   UNL     1      48.290   6.272  14.577  0.00  0.00    +0.000 A 
ATOM      3  C   UNL     1      48.659   6.568  15.887  0.00  0.00    +0.000 A 
ATOM      4  C   UNL     1      48.375   5.651  16.906  0.00  0.00    +0.000 A 
ATOM      5  C   UNL     1      47.726   4.454  16.601  0.00  0.00    +0.000 A 
ATOM      6  C   UNL     1      47.402   4.240  15.276  0.00  0.00    +0.000 A 
ATOM      7  N   UNL     1      47.674   5.111  14.276  0.00  0.00    +0.000 NA
ATOM      8  H   UNL     1      48.196   8.090  13.795  0.00  0.00    +0.000 HD
ENDROOT
BRANCH   5   9
ATOM      9  C   UNL     1      47.419   3.482  17.677  0.00  0.00    +0.000 C 
ATOM     10  N   UNL     1      48.173   3.491  18.820  0.00  0.00    +0.000 N 
ATOM     11  O   UNL     1      46.506   2.673  17.553  0.00  0.00    +0.000 OA
ATOM     12  H   UNL     1      48.937   4.112  19.030  0.00  0.00    +0.000 HD
ATOM     13  H   UNL     1      47.923   2.810  19.528  0.00  0.00    +0.000 HD
ENDBRANCH   5   9
BRANCH   1  14
ATOM     14  C   UNL     1      48.136   6.713  12.234  0.00  0.00    +0.000 C 
BRANCH  14  15
ATOM     15  C   UNL     1      46.694   7.140  11.942  0.00  0.00    +0.000 C 
BRANCH  15  20
ATOM     16  C   UNL     1      44.239   4.263  11.323  0.00  0.00    +0.000 A 
ATOM     17  C   UNL     1      44.400   4.076   9.943  0.00  0.00    +0.000 A 
ATOM     18  C   UNL     1      45.321   4.837   9.225  0.00  0.00    +0.000 A 
ATOM     19  C   UNL     1      46.084   5.808   9.875  0.00  0.00    +0.000 A 
ATOM     20  C   UNL     1      45.934   6.026  11.251  0.00  0.00    +0.000 A 
ATOM     21  C   UNL     1      45.012   5.243  11.967  0.00  0.00    +0.000 A 
BRANCH  16  22
ATOM     22  C   UNL     1      43.225   3.448  12.085  0.00  0.00    +0.000 C 
BRANCH  22  23
ATOM     23  N   UNL     1      43.231   2.049  11.670  0.00  0.00    +0.000 NA
ATOM     24  H   UNL     1      42.634   1.940  10.854  0.00  0.00    +0.000 HD
ATOM     25  H   UNL     1      42.815   1.488  12.413  0.00  0.00    +0.000 HD
ENDBRANCH  22  23
ENDBRANCH  16  22
ENDBRANCH  15  20
ENDBRANCH  14  15
ENDBRANCH   1  14
TORSDOF 6
ENDMDL
