MODEL 1
REMARK VINA RESULT:    -7.691      0.000      0.000
REMARK INTER + INTRA:         -10.237
REMARK INTER:                  -9.714
REMARK INTRA:                  -0.523
REMARK UNBOUND:                -0.523
REMARK  Name = 
REMARK  7 active torsions:
REMARK  status: ('A' for Active; 'I' for Inactive)
REMARK    1  A    between atoms: C_1  and  C_2
REMARK    2  A    between atoms: C_6  and  C_7
REMARK    3  A    between atoms: C_7  and  C_8
REMARK    4  A    between atoms: C_11  and  C_12
REMARK    5  A    between atoms: C_12  and  N_13
REMARK    6  A    between atoms: C_12  and  C_14
REMARK    7  A    between atoms: C_24  and  C_25
REMARK                            x       y       z     vdW  Elec       q    Type
REMARK                         _______ _______ _______ _____ _____    ______ ____
ROOT
ATOM      1  C   UNL     1      46.882   1.956   7.272  0.00  0.00    +0.000 A 
ATOM      2  C   UNL     1      46.131   1.048   8.017  0.00  0.00    +0.000 A 
ATOM      3  C   UNL     1      45.260   1.497   9.014  0.00  0.00    +0.000 A 
ATOM      4  C   UNL     1      45.093   2.870   9.304  0.00  0.00    +0.000 A 
ATOM      5  C   UNL     1      45.860   3.790   8.546  0.00  0.00    +0.000 A 
ATOM      6  C   UNL     1      45.776   5.287   8.692  0.00  0.00    +0.000 C 
ATOM      7  C   UNL     1      46.736   3.320   7.542  0.00  0.00    +0.000 A 
ENDROOT
BRANCH   1   8
ATOM      8  C   UNL     1      47.872   1.481   6.229  0.00  0.00    +0.000 C 
BRANCH   8  14
ATOM      9  C   UNL     1      46.849  -2.427   3.490  0.00  0.00    +0.000 C 
ATOM     10  C   UNL     1      46.702  -0.950   3.695  0.00  0.00    +0.000 A 
ATOM     11  C   UNL     1      45.973  -0.177   2.797  0.00  0.00    +0.000 A 
ATOM     12  C   UNL     1      45.895   1.194   3.005  0.00  0.00    +0.000 A 
ATOM     13  C   UNL     1      46.533   1.752   4.106  0.00  0.00    +0.000 A 
ATOM     14  C   UNL     1      47.218   0.916   4.986  0.00  0.00    +0.000 A 
ATOM     15  N   UNL     1      47.321  -0.422   4.780  0.00  0.00    +0.000 NA
ENDBRANCH   8  14
ENDBRANCH   1   8
BRANCH   4  16
ATOM     16  C   UNL     1      44.128   3.328  10.403  0.00  0.00    +0.000 C 
BRANCH  16  17
ATOM     17  C   UNL     1      44.958   3.979  11.489  0.00  0.00    +0.000 A 
ATOM     18  C   UNL     1      45.886   3.332  12.296  0.00  0.00    +0.000 A 
ATOM     19  S   UNL     1      46.677   4.363  13.402  0.00  0.00    +0.000 S 
ATOM     20  C   UNL     1      45.801   5.715  12.858  0.00  0.00    +0.000 A 
ATOM     21  N   UNL     1      46.024   6.951  13.380  0.00  0.00    +0.000 NA
ATOM     22  C   UNL     1      45.291   7.883  12.868  0.00  0.00    +0.000 A 
ATOM     23  N   UNL     1      44.341   7.689  11.900  0.00  0.00    +0.000 N 
ATOM     24  C   UNL     1      44.043   6.449  11.378  0.00  0.00    +0.000 A 
ATOM     25  O   UNL     1      43.132   6.312  10.568  0.00  0.00    +0.000 OA
ATOM     26  C   UNL     1      44.889   5.376  11.874  0.00  0.00    +0.000 A 
ATOM     27  H   UNL     1      43.783   8.456  11.559  0.00  0.00    +0.000 HD
ENDBRANCH  16  17
BRANCH  16  28
ATOM     28  N   UNL     1      43.328   2.259  11.005  0.00  0.00    +0.000 NA
ATOM     29  H   UNL     1      43.770   1.360  10.849  0.00  0.00    +0.000 HD
ATOM     30  H   UNL     1      42.427   2.236  10.532  0.00  0.00    +0.000 HD
ENDBRANCH  16  28
ENDBRANCH   4  16
TORSDOF 5
ENDMDL
MODEL 2
REMARK VINA RESULT:    -7.509      2.874      4.790
REMARK INTER + INTRA:         -10.007
REMARK INTER:                  -9.883
REMARK INTRA:                  -0.124
REMARK UNBOUND:                -0.523
REMARK  Name = 
REMARK  7 active torsions:
REMARK  status: ('A' for Active; 'I' for Inactive)
REMARK    1  A    between atoms: C_1  and  C_2
REMARK    2  A    between atoms: C_6  and  C_7
REMARK    3  A    between atoms: C_7  and  C_8
REMARK    4  A    between atoms: C_11  and  C_12
REMARK    5  A    between atoms: C_12  and  N_13
REMARK    6  A    between atoms: C_12  and  C_14
REMARK    7  A    between atoms: C_24  and  C_25
REMARK                            x       y       z     vdW  Elec       q    Type
REMARK                         _______ _______ _______ _____ _____    ______ ____
ROOT
ATOM      1  C   UNL     1      44.754   4.533   9.404  0.00  0.00    +0.000 A 
ATOM      2  C   UNL     1      45.845   5.396   9.493  0.00  0.00    +0.000 A 
ATOM      3  C   UNL     1      46.126   6.064  10.688  0.00  0.00    +0.000 A 
ATOM      4  C   UNL     1      45.338   5.893  11.848  0.00  0.00    +0.000 A 
ATOM      5  C   UNL     1      44.228   5.016  11.754  0.00  0.00    +0.000 A 
ATOM      6  C   UNL     1      43.310   4.685  12.901  0.00  0.00    +0.000 C 
ATOM      7  C   UNL     1      43.957   4.349  10.538  0.00  0.00    +0.000 A 
ENDROOT
BRANCH   1   8
ATOM      8  C   UNL     1      44.404   3.848   8.100  0.00  0.00    +0.000 C 
BRANCH   8  14
ATOM      9  C   UNL     1      47.761   2.429   4.853  0.00  0.00    +0.000 C 
ATOM     10  C   UNL     1      47.043   2.149   6.138  0.00  0.00    +0.000 A 
ATOM     11  C   UNL     1      47.340   1.013   6.884  0.00  0.00    +0.000 A 
ATOM     12  C   UNL     1      46.625   0.773   8.050  0.00  0.00    +0.000 A 
ATOM     13  C   UNL     1      45.644   1.675   8.443  0.00  0.00    +0.000 A 
ATOM     14  C   UNL     1      45.420   2.812   7.668  0.00  0.00    +0.000 A 
ATOM     15  N   UNL     1      46.098   3.044   6.515  0.00  0.00    +0.000 NA
ENDBRANCH   8  14
ENDBRANCH   1   8
BRANCH   4  16
ATOM     16  C   UNL     1      45.676   6.640  13.143  0.00  0.00    +0.000 C 
BRANCH  16  17
ATOM     17  C   UNL     1      46.444   7.887  12.756  0.00  0.00    +0.000 A 
ATOM     18  C   UNL     1      45.882   9.119  12.441  0.00  0.00    +0.000 A 
ATOM     19  S   UNL     1      47.029  10.328  12.079  0.00  0.00    +0.000 S 
ATOM     20  C   UNL     1      48.325   9.252  12.313  0.00  0.00    +0.000 A 
ATOM     21  N   UNL     1      49.614   9.669  12.188  0.00  0.00    +0.000 NA
ATOM     22  C   UNL     1      50.492   8.746  12.399  0.00  0.00    +0.000 A 
ATOM     23  N   UNL     1      50.201   7.442  12.700  0.00  0.00    +0.000 N 
ATOM     24  C   UNL     1      48.912   6.961  12.786  0.00  0.00    +0.000 A 
ATOM     25  O   UNL     1      48.699   5.769  12.983  0.00  0.00    +0.000 OA
ATOM     26  C   UNL     1      47.886   7.978  12.624  0.00  0.00    +0.000 A 
ATOM     27  H   UNL     1      50.933   6.762  12.829  0.00  0.00    +0.000 HD
ENDBRANCH  16  17
BRANCH  16  28
ATOM     28  N   UNL     1      46.476   5.879  14.104  0.00  0.00    +0.000 NA
ATOM     29  H   UNL     1      47.106   6.497  14.603  0.00  0.00    +0.000 HD
ATOM     30  H   UNL     1      47.052   5.221  13.581  0.00  0.00    +0.000 HD
ENDBRANCH  16  28
ENDBRANCH   4  16
TORSDOF 5
ENDMDL
MODEL 3
REMARK VINA RESULT:    -7.330      2.642      4.451
REMARK INTER + INTRA:          -9.782
REMARK INTER:                  -9.383
REMARK INTRA:                  -0.399
REMARK UNBOUND:                -0.523
REMARK  Name = 
REMARK  7 active torsions:
REMARK  status: ('A' for Active; 'I' for Inactive)
REMARK    1  A    between atoms: C_1  and  C_2
REMARK    2  A    between atoms: C_6  and  C_7
REMARK    3  A    between atoms: C_7  and  C_8
REMARK    4  A    between atoms: C_11  and  C_12
REMARK    5  A    between atoms: C_12  and  N_13
REMARK    6  A    between atoms: C_12  and  C_14
REMARK    7  A    between atoms: C_24  and  C_25
REMARK                            x       y       z     vdW  Elec       q    Type
REMARK                         _______ _______ _______ _____ _____    ______ ____
ROOT
ATOM      1  C   UNL     1      44.982   4.469   9.519  0.00  0.00    +0.000 A 
ATOM      2  C   UNL     1      45.934   5.487   9.506  0.00  0.00    +0.000 A 
ATOM      3  C   UNL     1      46.316   6.118  10.694  0.00  0.00    +0.000 A 
ATOM      4  C   UNL     1      45.772   5.754  11.946  0.00  0.00    +0.000 A 
ATOM      5  C   UNL     1      44.803   4.719  11.956  0.00  0.00    +0.000 A 
ATOM      6  C   UNL     1      44.153   4.178  13.202  0.00  0.00    +0.000 C 
ATOM      7  C   UNL     1      44.427   4.093  10.746  0.00  0.00    +0.000 A 
ENDROOT
BRANCH   1   8
ATOM      8  C   UNL     1      44.517   3.818   8.234  0.00  0.00    +0.000 C 
BRANCH   8  14
ATOM      9  C   UNL     1      47.670   2.430   4.776  0.00  0.00    +0.000 C 
ATOM     10  C   UNL     1      46.997   2.116   6.077  0.00  0.00    +0.000 A 
ATOM     11  C   UNL     1      47.280   0.934   6.756  0.00  0.00    +0.000 A 
ATOM     12  C   UNL     1      46.606   0.666   7.940  0.00  0.00    +0.000 A 
ATOM     13  C   UNL     1      45.681   1.585   8.419  0.00  0.00    +0.000 A 
ATOM     14  C   UNL     1      45.470   2.766   7.709  0.00  0.00    +0.000 A 
ATOM     15  N   UNL     1      46.106   3.028   6.538  0.00  0.00    +0.000 NA
ENDBRANCH   8  14
ENDBRANCH   1   8
BRANCH   4  16
ATOM     16  C   UNL     1      46.215   6.465  13.230  0.00  0.00    +0.000 C 
BRANCH  16  17
ATOM     17  C   UNL     1      47.407   7.329  12.877  0.00  0.00    +0.000 A 
ATOM     18  C   UNL     1      48.740   6.944  12.964  0.00  0.00    +0.000 A 
ATOM     19  S   UNL     1      49.840   8.146  12.459  0.00  0.00    +0.000 S 
ATOM     20  C   UNL     1      48.581   9.238  12.118  0.00  0.00    +0.000 A 
ATOM     21  N   UNL     1      48.842  10.472  11.610  0.00  0.00    +0.000 NA
ATOM     22  C   UNL     1      47.791  11.191  11.395  0.00  0.00    +0.000 A 
ATOM     23  N   UNL     1      46.506  10.798  11.663  0.00  0.00    +0.000 N 
ATOM     24  C   UNL     1      46.195   9.578  12.225  0.00  0.00    +0.000 A 
ATOM     25  O   UNL     1      45.037   9.299  12.518  0.00  0.00    +0.000 OA
ATOM     26  C   UNL     1      47.341   8.706  12.423  0.00  0.00    +0.000 A 
ATOM     27  H   UNL     1      45.728  11.416  11.496  0.00  0.00    +0.000 HD
ENDBRANCH  16  17
BRANCH  16  28
ATOM     28  N   UNL     1      46.592   5.575  14.329  0.00  0.00    +0.000 NA
ATOM     29  H   UNL     1      46.816   4.653  13.973  0.00  0.00    +0.000 HD
ATOM     30  H   UNL     1      45.785   5.473  14.942  0.00  0.00    +0.000 HD
ENDBRANCH  16  28
ENDBRANCH   4  16
TORSDOF 5
ENDMDL
MODEL 4
REMARK VINA RESULT:    -7.274      4.364      7.171
REMARK INTER + INTRA:          -9.710
REMARK INTER:                  -8.760
REMARK INTRA:                  -0.950
REMARK UNBOUND:                -0.523
REMARK  Name = 
REMARK  7 active torsions:
REMARK  status: ('A' for Active; 'I' for Inactive)
REMARK    1  A    between atoms: C_1  and  C_2
REMARK    2  A    between atoms: C_6  and  C_7
REMARK    3  A    between atoms: C_7  and  C_8
REMARK    4  A    between atoms: C_11  and  C_12
REMARK    5  A    between atoms: C_12  and  N_13
REMARK    6  A    between atoms: C_12  and  C_14
REMARK    7  A    between atoms: C_24  and  C_25
REMARK                            x       y       z     vdW  Elec       q    Type
REMARK                         _______ _______ _______ _____ _____    ______ ____
ROOT
ATOM      1  C   UNL     1      45.984   6.127  11.869  0.00  0.00    +0.000 A 
ATOM      2  C   UNL     1      46.928   7.101  11.549  0.00  0.00    +0.000 A 
ATOM      3  C   UNL     1      48.029   7.323  12.381  0.00  0.00    +0.000 A 
ATOM      4  C   UNL     1      48.240   6.578  13.563  0.00  0.00    +0.000 A 
ATOM      5  C   UNL     1      47.277   5.591  13.887  0.00  0.00    +0.000 A 
ATOM      6  C   UNL     1      47.367   4.679  15.082  0.00  0.00    +0.000 C 
ATOM      7  C   UNL     1      46.169   5.379  13.036  0.00  0.00    +0.000 A 
ENDROOT
BRANCH   1   8
ATOM      8  C   UNL     1      44.757   5.916  11.008  0.00  0.00    +0.000 C 
BRANCH   8  14
ATOM      9  C   UNL     1      46.498   3.844   6.945  0.00  0.00    +0.000 C 
ATOM     10  C   UNL     1      45.697   3.691   8.203  0.00  0.00    +0.000 A 
ATOM     11  C   UNL     1      45.109   2.473   8.526  0.00  0.00    +0.000 A 
ATOM     12  C   UNL     1      44.344   2.386   9.682  0.00  0.00    +0.000 A 
ATOM     13  C   UNL     1      44.198   3.509  10.486  0.00  0.00    +0.000 A 
ATOM     14  C   UNL     1      44.842   4.690  10.123  0.00  0.00    +0.000 A 
ATOM     15  N   UNL     1      45.573   4.793   8.983  0.00  0.00    +0.000 NA
ENDBRANCH   8  14
ENDBRANCH   1   8
BRANCH   4  16
ATOM     16  C   UNL     1      49.459   6.848  14.453  0.00  0.00    +0.000 C 
BRANCH  16  17
ATOM     17  C   UNL     1      48.978   7.644  15.648  0.00  0.00    +0.000 A 
ATOM     18  C   UNL     1      48.403   8.908  15.600  0.00  0.00    +0.000 A 
ATOM     19  S   UNL     1      47.940   9.514  17.126  0.00  0.00    +0.000 S 
ATOM     20  C   UNL     1      48.502   8.118  17.916  0.00  0.00    +0.000 A 
ATOM     21  N   UNL     1      48.374   7.975  19.263  0.00  0.00    +0.000 NA
ATOM     22  C   UNL     1      48.839   6.862  19.725  0.00  0.00    +0.000 A 
ATOM     23  N   UNL     1      49.440   5.891  18.969  0.00  0.00    +0.000 N 
ATOM     24  C   UNL     1      49.639   6.012  17.611  0.00  0.00    +0.000 A 
ATOM     25  O   UNL     1      50.251   5.151  16.987  0.00  0.00    +0.000 OA
ATOM     26  C   UNL     1      49.071   7.219  17.032  0.00  0.00    +0.000 A 
ATOM     27  H   UNL     1      49.807   5.054  19.394  0.00  0.00    +0.000 HD
ENDBRANCH  16  17
BRANCH  16  28
ATOM     28  N   UNL     1      50.543   7.589  13.805  0.00  0.00    +0.000 NA
ATOM     29  H   UNL     1      50.183   8.127  13.025  0.00  0.00    +0.000 HD
ATOM     30  H   UNL     1      51.202   6.912  13.424  0.00  0.00    +0.000 HD
ENDBRANCH  16  28
ENDBRANCH   4  16
TORSDOF 5
ENDMDL
MODEL 5
REMARK VINA RESULT:    -7.205      3.324      5.551
REMARK INTER + INTRA:          -9.623
REMARK INTER:                  -8.843
REMARK INTRA:                  -0.780
REMARK UNBOUND:                -0.523
REMARK  Name = 
REMARK  7 active torsions:
REMARK  status: ('A' for Active; 'I' for Inactive)
REMARK    1  A    between atoms: C_1  and  C_2
REMARK    2  A    between atoms: C_6  and  C_7
REMARK    3  A    between atoms: C_7  and  C_8
REMARK    4  A    between atoms: C_11  and  C_12
REMARK    5  A    between atoms: C_12  and  N_13
REMARK    6  A    between atoms: C_12  and  C_14
REMARK    7  A    between atoms: C_24  and  C_25
REMARK                            x       y       z     vdW  Elec       q    Type
REMARK                         _______ _______ _______ _____ _____    ______ ____
ROOT
ATOM      1  C   UNL     1      45.093   4.044  11.583  0.00  0.00    +0.000 A 
ATOM      2  C   UNL     1      45.938   3.414  12.494  0.00  0.00    +0.000 A 
ATOM      3  C   UNL     1      46.651   4.162  13.436  0.00  0.00    +0.000 A 
ATOM      4  C   UNL     1      46.544   5.569  13.516  0.00  0.00    +0.000 A 
ATOM      5  C   UNL     1      45.685   6.206  12.586  0.00  0.00    +0.000 A 
ATOM      6  C   UNL     1      45.420   7.689  12.555  0.00  0.00    +0.000 C 
ATOM      7  C   UNL     1      44.973   5.436  11.640  0.00  0.00    +0.000 A 
ENDROOT
BRANCH   1   8
ATOM      8  C   UNL     1      44.360   3.253  10.521  0.00  0.00    +0.000 C 
BRANCH   8  14
ATOM      9  C   UNL     1      46.784   0.101   7.688  0.00  0.00    +0.000 C 
ATOM     10  C   UNL     1      46.309   1.506   7.903  0.00  0.00    +0.000 A 
ATOM     11  C   UNL     1      46.593   2.501   6.973  0.00  0.00    +0.000 A 
ATOM     12  C   UNL     1      46.166   3.798   7.230  0.00  0.00    +0.000 A 
ATOM     13  C   UNL     1      45.461   4.062   8.397  0.00  0.00    +0.000 A 
ATOM     14  C   UNL     1      45.180   3.013   9.271  0.00  0.00    +0.000 A 
ATOM     15  N   UNL     1      45.612   1.747   9.041  0.00  0.00    +0.000 NA
ENDBRANCH   8  14
ENDBRANCH   1   8
BRANCH   4  16
ATOM     16  C   UNL     1      47.339   6.358  14.562  0.00  0.00    +0.000 C 
BRANCH  16  17
ATOM     17  C   UNL     1      48.402   7.142  13.822  0.00  0.00    +0.000 A 
ATOM     18  C   UNL     1      48.993   6.770  12.620  0.00  0.00    +0.000 A 
ATOM     19  S   UNL     1      50.135   7.895  12.035  0.00  0.00    +0.000 S 
ATOM     20  C   UNL     1      49.898   8.919  13.372  0.00  0.00    +0.000 A 
ATOM     21  N   UNL     1      50.562  10.102  13.475  0.00  0.00    +0.000 NA
ATOM     22  C   UNL     1      50.279  10.778  14.538  0.00  0.00    +0.000 A 
ATOM     23  N   UNL     1      49.412  10.370  15.518  0.00  0.00    +0.000 N 
ATOM     24  C   UNL     1      48.756   9.159  15.483  0.00  0.00    +0.000 A 
ATOM     25  O   UNL     1      48.048   8.802  16.419  0.00  0.00    +0.000 OA
ATOM     26  C   UNL     1      48.990   8.391  14.271  0.00  0.00    +0.000 A 
ATOM     27  H   UNL     1      49.253  10.934  16.338  0.00  0.00    +0.000 HD
ENDBRANCH  16  17
BRANCH  16  28
ATOM     28  N   UNL     1      47.991   5.540  15.586  0.00  0.00    +0.000 NA
ATOM     29  H   UNL     1      47.366   5.400  16.373  0.00  0.00    +0.000 HD
ATOM     30  H   UNL     1      48.799   6.054  15.932  0.00  0.00    +0.000 HD
ENDBRANCH  16  28
ENDBRANCH   4  16
TORSDOF 5
ENDMDL
MODEL 6
REMARK VINA RESULT:    -6.810      5.591      8.577
REMARK INTER + INTRA:          -9.125
REMARK INTER:                  -8.200
REMARK INTRA:                  -0.925
REMARK UNBOUND:                -0.523
REMARK  Name = 
REMARK  7 active torsions:
REMARK  status: ('A' for Active; 'I' for Inactive)
REMARK    1  A    between atoms: C_1  and  C_2
REMARK    2  A    between atoms: C_6  and  C_7
REMARK    3  A    between atoms: C_7  and  C_8
REMARK    4  A    between atoms: C_11  and  C_12
REMARK    5  A    between atoms: C_12  and  N_13
REMARK    6  A    between atoms: C_12  and  C_14
REMARK    7  A    between atoms: C_24  and  C_25
REMARK                            x       y       z     vdW  Elec       q    Type
REMARK                         _______ _______ _______ _____ _____    ______ ____
ROOT
ATOM      1  C   UNL     1      47.274   5.825  13.443  0.00  0.00    +0.000 A 
ATOM      2  C   UNL     1      46.719   4.664  13.977  0.00  0.00    +0.000 A 
ATOM      3  C   UNL     1      46.998   4.284  15.294  0.00  0.00    +0.000 A 
ATOM      4  C   UNL     1      47.834   5.050  16.136  0.00  0.00    +0.000 A 
ATOM      5  C   UNL     1      48.399   6.229  15.589  0.00  0.00    +0.000 A 
ATOM      6  C   UNL     1      49.275   7.184  16.356  0.00  0.00    +0.000 C 
ATOM      7  C   UNL     1      48.108   6.599  14.257  0.00  0.00    +0.000 A 
ENDROOT
BRANCH   1   8
ATOM      8  C   UNL     1      47.028   6.218  12.002  0.00  0.00    +0.000 C 
BRANCH   8  14
ATOM      9  C   UNL     1      44.444   3.108   9.266  0.00  0.00    +0.000 C 
ATOM     10  C   UNL     1      44.439   4.280  10.200  0.00  0.00    +0.000 A 
ATOM     11  C   UNL     1      43.244   4.887  10.571  0.00  0.00    +0.000 A 
ATOM     12  C   UNL     1      43.288   5.993  11.409  0.00  0.00    +0.000 A 
ATOM     13  C   UNL     1      44.518   6.456  11.860  0.00  0.00    +0.000 A 
ATOM     14  C   UNL     1      45.676   5.781  11.478  0.00  0.00    +0.000 A 
ATOM     15  N   UNL     1      45.646   4.712  10.642  0.00  0.00    +0.000 NA
ENDBRANCH   8  14
ENDBRANCH   1   8
BRANCH   4  16
ATOM     16  C   UNL     1      48.118   4.605  17.575  0.00  0.00    +0.000 C 
BRANCH  16  17
ATOM     17  C   UNL     1      49.321   3.687  17.533  0.00  0.00    +0.000 A 
ATOM     18  C   UNL     1      49.361   2.431  16.938  0.00  0.00    +0.000 A 
ATOM     19  S   UNL     1      50.884   1.668  17.039  0.00  0.00    +0.000 S 
ATOM     20  C   UNL     1      51.549   2.977  17.897  0.00  0.00    +0.000 A 
ATOM     21  N   UNL     1      52.857   2.978  18.271  0.00  0.00    +0.000 NA
ATOM     22  C   UNL     1      53.225   4.038  18.909  0.00  0.00    +0.000 A 
ATOM     23  N   UNL     1      52.401   5.086  19.228  0.00  0.00    +0.000 N 
ATOM     24  C   UNL     1      51.059   5.107  18.916  0.00  0.00    +0.000 A 
ATOM     25  O   UNL     1      50.343   6.032  19.289  0.00  0.00    +0.000 OA
ATOM     26  C   UNL     1      50.611   3.965  18.137  0.00  0.00    +0.000 A 
ATOM     27  H   UNL     1      52.744   5.876  19.752  0.00  0.00    +0.000 HD
ENDBRANCH  16  17
BRANCH  16  28
ATOM     28  N   UNL     1      47.015   3.899  18.230  0.00  0.00    +0.000 NA
ATOM     29  H   UNL     1      47.238   2.915  18.329  0.00  0.00    +0.000 HD
ATOM     30  H   UNL     1      46.198   3.963  17.626  0.00  0.00    +0.000 HD
ENDBRANCH  16  28
ENDBRANCH   4  16
TORSDOF 5
ENDMDL
MODEL 7
REMARK VINA RESULT:    -6.648      4.802      8.075
REMARK INTER + INTRA:          -8.920
REMARK INTER:                  -7.893
REMARK INTRA:                  -1.027
REMARK UNBOUND:                -0.523
REMARK  Name = 
REMARK  7 active torsions:
REMARK  status: ('A' for Active; 'I' for Inactive)
REMARK    1  A    between atoms: C_1  and  C_2
REMARK    2  A    between atoms: C_6  and  C_7
REMARK    3  A    between atoms: C_7  and  C_8
REMARK    4  A    between atoms: C_11  and  C_12
REMARK    5  A    between atoms: C_12  and  N_13
REMARK    6  A    between atoms: C_12  and  C_14
REMARK    7  A    between atoms: C_24  and  C_25
REMARK                            x       y       z     vdW  Elec       q    Type
REMARK                         _______ _______ _______ _____ _____    ______ ____
ROOT
ATOM      1  C   UNL     1      49.686   8.160  12.430  0.00  0.00    +0.000 A 
ATOM      2  C   UNL     1      48.818   8.994  11.727  0.00  0.00    +0.000 A 
ATOM      3  C   UNL     1      47.453   8.698  11.656  0.00  0.00    +0.000 A 
ATOM      4  C   UNL     1      46.895   7.565  12.289  0.00  0.00    +0.000 A 
ATOM      5  C   UNL     1      47.781   6.719  13.001  0.00  0.00    +0.000 A 
ATOM      6  C   UNL     1      47.353   5.496  13.768  0.00  0.00    +0.000 C 
ATOM      7  C   UNL     1      49.158   7.031  13.063  0.00  0.00    +0.000 A 
ENDROOT
BRANCH   1   8
ATOM      8  C   UNL     1      51.174   8.436  12.467  0.00  0.00    +0.000 C 
BRANCH   8  14
ATOM      9  C   UNL     1      53.583  10.872   8.990  0.00  0.00    +0.000 C 
ATOM     10  C   UNL     1      53.003   9.571   9.456  0.00  0.00    +0.000 A 
ATOM     11  C   UNL     1      53.106   8.427   8.672  0.00  0.00    +0.000 A 
ATOM     12  C   UNL     1      52.522   7.251   9.126  0.00  0.00    +0.000 A 
ATOM     13  C   UNL     1      51.864   7.247  10.349  0.00  0.00    +0.000 A 
ATOM     14  C   UNL     1      51.827   8.420  11.102  0.00  0.00    +0.000 A 
ATOM     15  N   UNL     1      52.375   9.580  10.657  0.00  0.00    +0.000 NA
ENDBRANCH   8  14
ENDBRANCH   1   8
BRANCH   4  16
ATOM     16  C   UNL     1      45.393   7.272  12.191  0.00  0.00    +0.000 C 
BRANCH  16  17
ATOM     17  C   UNL     1      45.223   6.112  11.233  0.00  0.00    +0.000 A 
ATOM     18  C   UNL     1      45.783   6.021   9.964  0.00  0.00    +0.000 A 
ATOM     19  S   UNL     1      45.422   4.565   9.153  0.00  0.00    +0.000 S 
ATOM     20  C   UNL     1      44.489   4.001  10.458  0.00  0.00    +0.000 A 
ATOM     21  N   UNL     1      43.905   2.772  10.424  0.00  0.00    +0.000 NA
ATOM     22  C   UNL     1      43.233   2.475  11.485  0.00  0.00    +0.000 A 
ATOM     23  N   UNL     1      43.070   3.300  12.566  0.00  0.00    +0.000 N 
ATOM     24  C   UNL     1      43.597   4.572  12.625  0.00  0.00    +0.000 A 
ATOM     25  O   UNL     1      43.363   5.305  13.581  0.00  0.00    +0.000 OA
ATOM     26  C   UNL     1      44.421   4.928  11.481  0.00  0.00    +0.000 A 
ATOM     27  H   UNL     1      42.510   3.019  13.355  0.00  0.00    +0.000 HD
ENDBRANCH  16  17
BRANCH  16  28
ATOM     28  N   UNL     1      44.577   8.391  11.719  0.00  0.00    +0.000 NA
ATOM     29  H   UNL     1      45.168   9.119  11.333  0.00  0.00    +0.000 HD
ATOM     30  H   UNL     1      44.096   8.791  12.523  0.00  0.00    +0.000 HD
ENDBRANCH  16  28
ENDBRANCH   4  16
TORSDOF 5
ENDMDL
MODEL 8
REMARK VINA RESULT:    -6.530      3.791      9.601
REMARK INTER + INTRA:          -8.770
REMARK INTER:                  -8.248
REMARK INTRA:                  -0.522
REMARK UNBOUND:                -0.523
REMARK  Name = 
REMARK  7 active torsions:
REMARK  status: ('A' for Active; 'I' for Inactive)
REMARK    1  A    between atoms: C_1  and  C_2
REMARK    2  A    between atoms: C_6  and  C_7
REMARK    3  A    between atoms: C_7  and  C_8
REMARK    4  A    between atoms: C_11  and  C_12
REMARK    5  A    between atoms: C_12  and  N_13
REMARK    6  A    between atoms: C_12  and  C_14
REMARK    7  A    between atoms: C_24  and  C_25
REMARK                            x       y       z     vdW  Elec       q    Type
REMARK                         _______ _______ _______ _____ _____    ______ ____
ROOT
ATOM      1  C   UNL     1      43.525  10.005  10.981  0.00  0.00    +0.000 A 
ATOM      2  C   UNL     1      43.071   8.687  10.954  0.00  0.00    +0.000 A 
ATOM      3  C   UNL     1      43.914   7.639  11.334  0.00  0.00    +0.000 A 
ATOM      4  C   UNL     1      45.241   7.861  11.766  0.00  0.00    +0.000 A 
ATOM      5  C   UNL     1      45.699   9.201  11.790  0.00  0.00    +0.000 A 
ATOM      6  C   UNL     1      47.066   9.622  12.262  0.00  0.00    +0.000 C 
ATOM      7  C   UNL     1      44.835  10.249  11.402  0.00  0.00    +0.000 A 
ENDROOT
BRANCH   1   8
ATOM      8  C   UNL     1      42.642  11.145  10.517  0.00  0.00    +0.000 C 
BRANCH   8  14
ATOM      9  C   UNL     1      40.119  12.425  14.494  0.00  0.00    +0.000 C 
ATOM     10  C   UNL     1      40.098  11.845  13.113  0.00  0.00    +0.000 A 
ATOM     11  C   UNL     1      38.903  11.429  12.535  0.00  0.00    +0.000 A 
ATOM     12  C   UNL     1      38.935  10.863  11.267  0.00  0.00    +0.000 A 
ATOM     13  C   UNL     1      40.151  10.739  10.609  0.00  0.00    +0.000 A 
ATOM     14  C   UNL     1      41.308  11.206  11.230  0.00  0.00    +0.000 A 
ATOM     15  N   UNL     1      41.292  11.741  12.478  0.00  0.00    +0.000 NA
ENDBRANCH   8  14
ENDBRANCH   1   8
BRANCH   4  16
ATOM     16  C   UNL     1      46.138   6.687  12.177  0.00  0.00    +0.000 C 
BRANCH  16  17
ATOM     17  C   UNL     1      45.334   5.418  11.988  0.00  0.00    +0.000 A 
ATOM     18  C   UNL     1      44.664   4.727  12.990  0.00  0.00    +0.000 A 
ATOM     19  S   UNL     1      43.824   3.350  12.436  0.00  0.00    +0.000 S 
ATOM     20  C   UNL     1      44.333   3.611  10.835  0.00  0.00    +0.000 A 
ATOM     21  N   UNL     1      43.930   2.789   9.828  0.00  0.00    +0.000 NA
ATOM     22  C   UNL     1      44.389   3.111   8.665  0.00  0.00    +0.000 A 
ATOM     23  N   UNL     1      45.231   4.164   8.419  0.00  0.00    +0.000 N 
ATOM     24  C   UNL     1      45.708   4.991   9.413  0.00  0.00    +0.000 A 
ATOM     25  O   UNL     1      46.520   5.874   9.158  0.00  0.00    +0.000 OA
ATOM     26  C   UNL     1      45.165   4.711  10.732  0.00  0.00    +0.000 A 
ATOM     27  H   UNL     1      45.576   4.348   7.490  0.00  0.00    +0.000 HD
ENDBRANCH  16  17
BRANCH  16  28
ATOM     28  N   UNL     1      46.618   6.733  13.559  0.00  0.00    +0.000 NA
ATOM     29  H   UNL     1      45.964   7.245  14.141  0.00  0.00    +0.000 HD
ATOM     30  H   UNL     1      47.497   7.249  13.570  0.00  0.00    +0.000 HD
ENDBRANCH  16  28
ENDBRANCH   4  16
TORSDOF 5
ENDMDL
MODEL 9
REMARK VINA RESULT:    -6.528      5.254      8.601
REMARK INTER + INTRA:          -8.769
REMARK INTER:                  -8.018
REMARK INTRA:                  -0.750
REMARK UNBOUND:                -0.523
REMARK  Name = 
REMARK  7 active torsions:
REMARK  status: ('A' for Active; 'I' for Inactive)
REMARK    1  A    between atoms: C_1  and  C_2
REMARK    2  A    between atoms: C_6  and  C_7
REMARK    3  A    between atoms: C_7  and  C_8
REMARK    4  A    between atoms: C_11  and  C_12
REMARK    5  A    between atoms: C_12  and  N_13
REMARK    6  A    between atoms: C_12  and  C_14
REMARK    7  A    between atoms: C_24  and  C_25
REMARK                            x       y       z     vdW  Elec       q    Type
REMARK                         _______ _______ _______ _____ _____    ______ ____
ROOT
ATOM      1  C   UNL     1      47.157   6.476  13.019  0.00  0.00    +0.000 A 
ATOM      2  C   UNL     1      48.192   7.369  13.292  0.00  0.00    +0.000 A 
ATOM      3  C   UNL     1      48.957   7.234  14.455  0.00  0.00    +0.000 A 
ATOM      4  C   UNL     1      48.729   6.199  15.389  0.00  0.00    +0.000 A 
ATOM      5  C   UNL     1      47.674   5.295  15.109  0.00  0.00    +0.000 A 
ATOM      6  C   UNL     1      47.321   4.112  15.971  0.00  0.00    +0.000 C 
ATOM      7  C   UNL     1      46.910   5.446  13.930  0.00  0.00    +0.000 A 
ENDROOT
BRANCH   1   8
ATOM      8  C   UNL     1      46.283   6.645  11.794  0.00  0.00    +0.000 C 
BRANCH   8  14
ATOM      9  C   UNL     1      44.447   2.614   9.742  0.00  0.00    +0.000 C 
ATOM     10  C   UNL     1      44.289   3.703  10.760  0.00  0.00    +0.000 A 
ATOM     11  C   UNL     1      43.174   3.742  11.591  0.00  0.00    +0.000 A 
ATOM     12  C   UNL     1      43.050   4.790  12.494  0.00  0.00    +0.000 A 
ATOM     13  C   UNL     1      44.043   5.759  12.551  0.00  0.00    +0.000 A 
ATOM     14  C   UNL     1      45.152   5.642  11.715  0.00  0.00    +0.000 A 
ATOM     15  N   UNL     1      45.272   4.635  10.812  0.00  0.00    +0.000 NA
ENDBRANCH   8  14
ENDBRANCH   1   8
BRANCH   4  16
ATOM     16  C   UNL     1      49.589   6.080  16.653  0.00  0.00    +0.000 C 
BRANCH  16  17
ATOM     17  C   UNL     1      48.885   6.852  17.749  0.00  0.00    +0.000 A 
ATOM     18  C   UNL     1      48.532   8.195  17.695  0.00  0.00    +0.000 A 
ATOM     19  S   UNL     1      47.720   8.752  19.088  0.00  0.00    +0.000 S 
ATOM     20  C   UNL     1      47.821   7.226  19.829  0.00  0.00    +0.000 A 
ATOM     21  N   UNL     1      47.277   7.004  21.056  0.00  0.00    +0.000 NA
ATOM     22  C   UNL     1      47.424   5.798  21.492  0.00  0.00    +0.000 A 
ATOM     23  N   UNL     1      48.084   4.800  20.825  0.00  0.00    +0.000 N 
ATOM     24  C   UNL     1      48.696   4.989  19.605  0.00  0.00    +0.000 A 
ATOM     25  O   UNL     1      49.342   4.087  19.080  0.00  0.00    +0.000 OA
ATOM     26  C   UNL     1      48.500   6.314  19.040  0.00  0.00    +0.000 A 
ATOM     27  H   UNL     1      48.187   3.883  21.231  0.00  0.00    +0.000 HD
ENDBRANCH  16  17
BRANCH  16  28
ATOM     28  N   UNL     1      50.953   6.594  16.521  0.00  0.00    +0.000 NA
ATOM     29  H   UNL     1      51.110   6.936  15.579  0.00  0.00    +0.000 HD
ATOM     30  H   UNL     1      51.597   5.819  16.671  0.00  0.00    +0.000 HD
ENDBRANCH  16  28
ENDBRANCH   4  16
TORSDOF 5
ENDMDL
