MODEL 1
REMARK VINA RESULT:    -8.268      0.000      0.000
REMARK INTER + INTRA:         -12.286
REMARK INTER:                 -11.168
REMARK INTRA:                  -1.117
REMARK UNBOUND:                -1.117
REMARK  Name = 
REMARK  6 active torsions:
REMARK  status: ('A' for Active; 'I' for Inactive)
REMARK    1  A    between atoms: C_2  and  C_4
REMARK    2  A    between atoms: C_7  and  C_8
REMARK    3  A    between atoms: C_8  and  C_9
REMARK    4  A    between atoms: C_9  and  N_10
REMARK    5  A    between atoms: N_10  and  C_11
REMARK    6  A    between atoms: C_15  and  C_16
REMARK                            x       y       z     vdW  Elec       q    Type
REMARK                         _______ _______ _______ _____ _____    ______ ____
ROOT
ATOM      1  N   UNL     1      43.678   5.592  12.279  0.00  0.00    +0.000 N 
ATOM      2  H   UNL     1      43.074   5.490  13.089  0.00  0.00    +0.000 HD
ENDROOT
BRANCH   1   3
ATOM      3  C   UNL     1      45.044   5.626  12.554  0.00  0.00    +0.000 A 
ATOM      4  C   UNL     1      45.940   6.453  11.869  0.00  0.00    +0.000 A 
ATOM      5  C   UNL     1      47.278   6.543  12.247  0.00  0.00    +0.000 A 
ATOM      6  C   UNL     1      47.737   5.828  13.349  0.00  0.00    +0.000 A 
ATOM      7  C   UNL     1      46.875   5.006  14.092  0.00  0.00    +0.000 A 
ATOM      8  C   UNL     1      45.531   4.919  13.666  0.00  0.00    +0.000 A 
BRANCH   7   9
ATOM      9  C   UNL     1      47.360   4.321  15.306  0.00  0.00    +0.000 A 
ATOM     10  C   UNL     1      47.450   4.944  16.551  0.00  0.00    +0.000 A 
ATOM     11  C   UNL     1      47.973   4.236  17.632  0.00  0.00    +0.000 A 
ATOM     12  C   UNL     1      48.391   2.924  17.451  0.00  0.00    +0.000 A 
ATOM     13  C   UNL     1      48.255   2.368  16.194  0.00  0.00    +0.000 A 
ATOM     14  N   UNL     1      47.745   3.028  15.132  0.00  0.00    +0.000 NA
ENDBRANCH   7   9
ENDBRANCH   1   3
BRANCH   1  15
ATOM     15  C   UNL     1      43.183   5.054  11.019  0.00  0.00    +0.000 C 
BRANCH  15  16
ATOM     16  C   UNL     1      43.576   3.586  10.819  0.00  0.00    +0.000 C 
BRANCH  16  20
ATOM     17  C   UNL     1      46.411   2.797   7.654  0.00  0.00    +0.000 A 
ATOM     18  C   UNL     1      46.020   4.114   7.924  0.00  0.00    +0.000 A 
ATOM     19  C   UNL     1      45.093   4.371   8.940  0.00  0.00    +0.000 A 
ATOM     20  C   UNL     1      44.540   3.320   9.686  0.00  0.00    +0.000 A 
ATOM     21  C   UNL     1      44.922   2.005   9.392  0.00  0.00    +0.000 A 
ATOM     22  C   UNL     1      45.845   1.744   8.377  0.00  0.00    +0.000 A 
BRANCH  17  24
ATOM     23  N   UNL     1      47.339   3.170   5.437  0.00  0.00    +0.000 N 
ATOM     24  C   UNL     1      47.422   2.480   6.614  0.00  0.00    +0.000 C 
ATOM     25  O   UNL     1      48.328   1.683   6.816  0.00  0.00    +0.000 OA
ATOM     26  H   UNL     1      48.108   3.043   4.792  0.00  0.00    +0.000 HD
ATOM     27  H   UNL     1      46.783   4.008   5.346  0.00  0.00    +0.000 HD
ENDBRANCH  17  24
ENDBRANCH  16  20
ENDBRANCH  15  16
ENDBRANCH   1  15
TORSDOF 6
ENDMDL
MODEL 2
REMARK VINA RESULT:    -7.946      2.167      4.409
REMARK INTER + INTRA:         -11.850
REMARK INTER:                 -10.953
REMARK INTRA:                  -0.897
REMARK UNBOUND:                -1.117
REMARK  Name = 
REMARK  6 active torsions:
REMARK  status: ('A' for Active; 'I' for Inactive)
REMARK    1  A    between atoms: C_2  and  C_4
REMARK    2  A    between atoms: C_7  and  C_8
REMARK    3  A    between atoms: C_8  and  C_9
REMARK    4  A    between atoms: C_9  and  N_10
REMARK    5  A    between atoms: N_10  and  C_11
REMARK    6  A    between atoms: C_15  and  C_16
REMARK                            x       y       z     vdW  Elec       q    Type
REMARK                         _______ _______ _______ _____ _____    ______ ____
ROOT
ATOM      1  N   UNL     1      43.861   4.073  12.949  0.00  0.00    +0.000 N 
ATOM      2  H   UNL     1      43.485   3.751  13.836  0.00  0.00    +0.000 HD
ENDROOT
BRANCH   1   3
ATOM      3  C   UNL     1      44.940   4.950  13.043  0.00  0.00    +0.000 A 
ATOM      4  C   UNL     1      46.235   4.535  13.370  0.00  0.00    +0.000 A 
ATOM      5  C   UNL     1      47.309   5.421  13.344  0.00  0.00    +0.000 A 
ATOM      6  C   UNL     1      47.110   6.741  12.951  0.00  0.00    +0.000 A 
ATOM      7  C   UNL     1      45.836   7.205  12.584  0.00  0.00    +0.000 A 
ATOM      8  C   UNL     1      44.766   6.286  12.645  0.00  0.00    +0.000 A 
BRANCH   7   9
ATOM      9  C   UNL     1      45.659   8.586  12.091  0.00  0.00    +0.000 A 
ATOM     10  C   UNL     1      46.645   9.567  12.196  0.00  0.00    +0.000 A 
ATOM     11  C   UNL     1      46.370  10.860  11.754  0.00  0.00    +0.000 A 
ATOM     12  C   UNL     1      45.124  11.146  11.213  0.00  0.00    +0.000 A 
ATOM     13  C   UNL     1      44.205  10.118  11.124  0.00  0.00    +0.000 A 
ATOM     14  N   UNL     1      44.447   8.856  11.539  0.00  0.00    +0.000 NA
ENDBRANCH   7   9
ENDBRANCH   1   3
BRANCH   1  15
ATOM     15  C   UNL     1      43.726   3.171  11.814  0.00  0.00    +0.000 C 
BRANCH  15  16
ATOM     16  C   UNL     1      43.701   3.919  10.476  0.00  0.00    +0.000 C 
BRANCH  16  20
ATOM     17  C   UNL     1      46.509   2.428   7.550  0.00  0.00    +0.000 A 
ATOM     18  C   UNL     1      46.223   3.797   7.603  0.00  0.00    +0.000 A 
ATOM     19  C   UNL     1      45.305   4.281   8.541  0.00  0.00    +0.000 A 
ATOM     20  C   UNL     1      44.657   3.405   9.425  0.00  0.00    +0.000 A 
ATOM     21  C   UNL     1      44.935   2.034   9.347  0.00  0.00    +0.000 A 
ATOM     22  C   UNL     1      45.848   1.547   8.410  0.00  0.00    +0.000 A 
BRANCH  17  24
ATOM     23  N   UNL     1      48.632   2.618   6.377  0.00  0.00    +0.000 N 
ATOM     24  C   UNL     1      47.506   1.874   6.599  0.00  0.00    +0.000 C 
ATOM     25  O   UNL     1      47.363   0.775   6.080  0.00  0.00    +0.000 OA
ATOM     26  H   UNL     1      49.360   2.171   5.835  0.00  0.00    +0.000 HD
ATOM     27  H   UNL     1      48.898   3.380   6.984  0.00  0.00    +0.000 HD
ENDBRANCH  17  24
ENDBRANCH  16  20
ENDBRANCH  15  16
ENDBRANCH   1  15
TORSDOF 6
ENDMDL
MODEL 3
REMARK VINA RESULT:    -7.680      2.531      7.490
REMARK INTER + INTRA:         -11.490
REMARK INTER:                 -10.424
REMARK INTRA:                  -1.067
REMARK UNBOUND:                -1.117
REMARK  Name = 
REMARK  6 active torsions:
REMARK  status: ('A' for Active; 'I' for Inactive)
REMARK    1  A    between atoms: C_2  and  C_4
REMARK    2  A    between atoms: C_7  and  C_8
REMARK    3  A    between atoms: C_8  and  C_9
REMARK    4  A    between atoms: C_9  and  N_10
REMARK    5  A    between atoms: N_10  and  C_11
REMARK    6  A    between atoms: C_15  and  C_16
REMARK                            x       y       z     vdW  Elec       q    Type
REMARK                         _______ _______ _______ _____ _____    ______ ____
ROOT
ATOM      1  N   UNL     1      44.410   6.541  10.652  0.00  0.00    +0.000 N 
ATOM      2  H   UNL     1      44.464   7.072   9.789  0.00  0.00    +0.000 HD
ENDROOT
BRANCH   1   3
ATOM      3  C   UNL     1      44.447   5.156  10.504  0.00  0.00    +0.000 A 
ATOM      4  C   UNL     1      43.623   4.288  11.228  0.00  0.00    +0.000 A 
ATOM      5  C   UNL     1      43.609   2.918  10.973  0.00  0.00    +0.000 A 
ATOM      6  C   UNL     1      44.399   2.395   9.954  0.00  0.00    +0.000 A 
ATOM      7  C   UNL     1      45.223   3.223   9.176  0.00  0.00    +0.000 A 
ATOM      8  C   UNL     1      45.231   4.603   9.478  0.00  0.00    +0.000 A 
BRANCH   7   9
ATOM      9  C   UNL     1      45.991   2.662   8.046  0.00  0.00    +0.000 A 
ATOM     10  C   UNL     1      46.274   3.378   6.884  0.00  0.00    +0.000 A 
ATOM     11  C   UNL     1      46.957   2.749   5.844  0.00  0.00    +0.000 A 
ATOM     12  C   UNL     1      47.346   1.423   5.987  0.00  0.00    +0.000 A 
ATOM     13  C   UNL     1      47.047   0.784   7.175  0.00  0.00    +0.000 A 
ATOM     14  N   UNL     1      46.393   1.372   8.199  0.00  0.00    +0.000 NA
ENDBRANCH   7   9
ENDBRANCH   1   3
BRANCH   1  15
ATOM     15  C   UNL     1      44.942   7.179  11.849  0.00  0.00    +0.000 C 
BRANCH  15  16
ATOM     16  C   UNL     1      46.461   7.010  11.972  0.00  0.00    +0.000 C 
BRANCH  16  20
ATOM     17  C   UNL     1      47.712   4.741  15.430  0.00  0.00    +0.000 A 
ATOM     18  C   UNL     1      48.323   5.969  15.147  0.00  0.00    +0.000 A 
ATOM     19  C   UNL     1      47.928   6.700  14.021  0.00  0.00    +0.000 A 
ATOM     20  C   UNL     1      46.932   6.209  13.164  0.00  0.00    +0.000 A 
ATOM     21  C   UNL     1      46.345   4.969  13.445  0.00  0.00    +0.000 A 
ATOM     22  C   UNL     1      46.737   4.236  14.566  0.00  0.00    +0.000 A 
BRANCH  17  24
ATOM     23  N   UNL     1      47.067   3.231  17.225  0.00  0.00    +0.000 N 
ATOM     24  C   UNL     1      48.069   3.951  16.635  0.00  0.00    +0.000 C 
ATOM     25  O   UNL     1      49.218   3.892  17.053  0.00  0.00    +0.000 OA
ATOM     26  H   UNL     1      47.349   2.595  17.959  0.00  0.00    +0.000 HD
ATOM     27  H   UNL     1      46.192   3.048  16.754  0.00  0.00    +0.000 HD
ENDBRANCH  17  24
ENDBRANCH  16  20
ENDBRANCH  15  16
ENDBRANCH   1  15
TORSDOF 6
ENDMDL
MODEL 4
REMARK VINA RESULT:    -7.241      2.520      7.312
REMARK INTER + INTRA:         -10.898
REMARK INTER:                  -9.774
REMARK INTRA:                  -1.124
REMARK UNBOUND:                -1.117
REMARK  Name = 
REMARK  6 active torsions:
REMARK  status: ('A' for Active; 'I' for Inactive)
REMARK    1  A    between atoms: C_2  and  C_4
REMARK    2  A    between atoms: C_7  and  C_8
REMARK    3  A    between atoms: C_8  and  C_9
REMARK    4  A    between atoms: C_9  and  N_10
REMARK    5  A    between atoms: N_10  and  C_11
REMARK    6  A    between atoms: C_15  and  C_16
REMARK                            x       y       z     vdW  Elec       q    Type
REMARK                         _______ _______ _______ _____ _____    ______ ____
ROOT
ATOM      1  N   UNL     1      45.303   7.911  11.540  0.00  0.00    +0.000 N 
ATOM      2  H   UNL     1      45.674   8.376  10.717  0.00  0.00    +0.000 HD
ENDROOT
BRANCH   1   3
ATOM      3  C   UNL     1      44.742   6.656  11.313  0.00  0.00    +0.000 A 
ATOM      4  C   UNL     1      43.497   6.272  11.823  0.00  0.00    +0.000 A 
ATOM      5  C   UNL     1      42.919   5.051  11.482  0.00  0.00    +0.000 A 
ATOM      6  C   UNL     1      43.566   4.202  10.589  0.00  0.00    +0.000 A 
ATOM      7  C   UNL     1      44.803   4.550  10.024  0.00  0.00    +0.000 A 
ATOM      8  C   UNL     1      45.372   5.784  10.410  0.00  0.00    +0.000 A 
BRANCH   7   9
ATOM      9  C   UNL     1      45.434   3.674   9.016  0.00  0.00    +0.000 A 
ATOM     10  C   UNL     1      45.457   2.284   9.119  0.00  0.00    +0.000 A 
ATOM     11  C   UNL     1      46.125   1.539   8.148  0.00  0.00    +0.000 A 
ATOM     12  C   UNL     1      46.750   2.195   7.096  0.00  0.00    +0.000 A 
ATOM     13  C   UNL     1      46.669   3.573   7.050  0.00  0.00    +0.000 A 
ATOM     14  N   UNL     1      46.024   4.317   7.973  0.00  0.00    +0.000 NA
ENDBRANCH   7   9
ENDBRANCH   1   3
BRANCH   1  15
ATOM     15  C   UNL     1      45.933   8.230  12.814  0.00  0.00    +0.000 C 
BRANCH  15  16
ATOM     16  C   UNL     1      47.364   7.691  12.906  0.00  0.00    +0.000 C 
BRANCH  16  20
ATOM     17  C   UNL     1      47.854   4.465  15.740  0.00  0.00    +0.000 A 
ATOM     18  C   UNL     1      48.571   5.655  15.911  0.00  0.00    +0.000 A 
ATOM     19  C   UNL     1      48.424   6.696  14.989  0.00  0.00    +0.000 A 
ATOM     20  C   UNL     1      47.571   6.557  13.884  0.00  0.00    +0.000 A 
ATOM     21  C   UNL     1      46.876   5.353  13.710  0.00  0.00    +0.000 A 
ATOM     22  C   UNL     1      47.022   4.310  14.627  0.00  0.00    +0.000 A 
BRANCH  17  24
ATOM     23  N   UNL     1      46.833   3.085  17.464  0.00  0.00    +0.000 N 
ATOM     24  C   UNL     1      47.946   3.349  16.715  0.00  0.00    +0.000 C 
ATOM     25  O   UNL     1      48.949   2.653  16.807  0.00  0.00    +0.000 OA
ATOM     26  H   UNL     1      46.864   2.244  18.025  0.00  0.00    +0.000 HD
ATOM     27  H   UNL     1      45.926   3.457  17.223  0.00  0.00    +0.000 HD
ENDBRANCH  17  24
ENDBRANCH  16  20
ENDBRANCH  15  16
ENDBRANCH   1  15
TORSDOF 6
ENDMDL
MODEL 5
REMARK VINA RESULT:    -7.071      2.470      3.442
REMARK INTER + INTRA:         -10.668
REMARK INTER:                 -10.144
REMARK INTRA:                  -0.523
REMARK UNBOUND:                -1.117
REMARK  Name = 
REMARK  6 active torsions:
REMARK  status: ('A' for Active; 'I' for Inactive)
REMARK    1  A    between atoms: C_2  and  C_4
REMARK    2  A    between atoms: C_7  and  C_8
REMARK    3  A    between atoms: C_8  and  C_9
REMARK    4  A    between atoms: C_9  and  N_10
REMARK    5  A    between atoms: N_10  and  C_11
REMARK    6  A    between atoms: C_15  and  C_16
REMARK                            x       y       z     vdW  Elec       q    Type
REMARK                         _______ _______ _______ _____ _____    ______ ____
ROOT
ATOM      1  N   UNL     1      44.883   3.859  12.817  0.00  0.00    +0.000 N 
ATOM      2  H   UNL     1      45.642   3.329  13.236  0.00  0.00    +0.000 HD
ENDROOT
BRANCH   1   3
ATOM      3  C   UNL     1      45.193   5.173  12.474  0.00  0.00    +0.000 A 
ATOM      4  C   UNL     1      44.222   6.130  12.164  0.00  0.00    +0.000 A 
ATOM      5  C   UNL     1      44.562   7.462  11.934  0.00  0.00    +0.000 A 
ATOM      6  C   UNL     1      45.888   7.868  12.048  0.00  0.00    +0.000 A 
ATOM      7  C   UNL     1      46.900   6.956  12.386  0.00  0.00    +0.000 A 
ATOM      8  C   UNL     1      46.523   5.610  12.588  0.00  0.00    +0.000 A 
BRANCH   7   9
ATOM      9  C   UNL     1      48.288   7.421  12.584  0.00  0.00    +0.000 A 
ATOM     10  C   UNL     1      49.096   7.877  11.543  0.00  0.00    +0.000 A 
ATOM     11  C   UNL     1      50.414   8.245  11.812  0.00  0.00    +0.000 A 
ATOM     12  C   UNL     1      50.894   8.155  13.112  0.00  0.00    +0.000 A 
ATOM     13  C   UNL     1      50.030   7.713  14.094  0.00  0.00    +0.000 A 
ATOM     14  N   UNL     1      48.748   7.356  13.861  0.00  0.00    +0.000 NA
ENDBRANCH   7   9
ENDBRANCH   1   3
BRANCH   1  15
ATOM     15  C   UNL     1      43.893   3.102  12.064  0.00  0.00    +0.000 C 
BRANCH  15  16
ATOM     16  C   UNL     1      43.642   3.696  10.673  0.00  0.00    +0.000 C 
BRANCH  16  20
ATOM     17  C   UNL     1      46.478   2.681   7.574  0.00  0.00    +0.000 A 
ATOM     18  C   UNL     1      45.911   1.668   8.357  0.00  0.00    +0.000 A 
ATOM     19  C   UNL     1      45.002   1.994   9.369  0.00  0.00    +0.000 A 
ATOM     20  C   UNL     1      44.659   3.332   9.617  0.00  0.00    +0.000 A 
ATOM     21  C   UNL     1      45.250   4.339   8.843  0.00  0.00    +0.000 A 
ATOM     22  C   UNL     1      46.160   4.017   7.834  0.00  0.00    +0.000 A 
BRANCH  17  24
ATOM     23  N   UNL     1      47.396   3.224   5.389  0.00  0.00    +0.000 N 
ATOM     24  C   UNL     1      47.415   2.379   6.463  0.00  0.00    +0.000 C 
ATOM     25  O   UNL     1      48.214   1.453   6.525  0.00  0.00    +0.000 OA
ATOM     26  H   UNL     1      48.128   3.087   4.703  0.00  0.00    +0.000 HD
ATOM     27  H   UNL     1      46.953   4.130   5.429  0.00  0.00    +0.000 HD
ENDBRANCH  17  24
ENDBRANCH  16  20
ENDBRANCH  15  16
ENDBRANCH   1  15
TORSDOF 6
ENDMDL
MODEL 6
REMARK VINA RESULT:    -7.033      2.892      5.510
REMARK INTER + INTRA:         -10.617
REMARK INTER:                  -9.882
REMARK INTRA:                  -0.734
REMARK UNBOUND:                -1.117
REMARK  Name = 
REMARK  6 active torsions:
REMARK  status: ('A' for Active; 'I' for Inactive)
REMARK    1  A    between atoms: C_2  and  C_4
REMARK    2  A    between atoms: C_7  and  C_8
REMARK    3  A    between atoms: C_8  and  C_9
REMARK    4  A    between atoms: C_9  and  N_10
REMARK    5  A    between atoms: N_10  and  C_11
REMARK    6  A    between atoms: C_15  and  C_16
REMARK                            x       y       z     vdW  Elec       q    Type
REMARK                         _______ _______ _______ _____ _____    ______ ____
ROOT
ATOM      1  N   UNL     1      45.645   5.094  11.898  0.00  0.00    +0.000 N 
ATOM      2  H   UNL     1      46.296   4.585  11.308  0.00  0.00    +0.000 HD
ENDROOT
BRANCH   1   3
ATOM      3  C   UNL     1      45.923   6.449  12.063  0.00  0.00    +0.000 A 
ATOM      4  C   UNL     1      47.198   6.935  12.370  0.00  0.00    +0.000 A 
ATOM      5  C   UNL     1      47.461   8.302  12.417  0.00  0.00    +0.000 A 
ATOM      6  C   UNL     1      46.453   9.213  12.118  0.00  0.00    +0.000 A 
ATOM      7  C   UNL     1      45.162   8.781  11.774  0.00  0.00    +0.000 A 
ATOM      8  C   UNL     1      44.924   7.389  11.761  0.00  0.00    +0.000 A 
BRANCH   7   9
ATOM      9  C   UNL     1      44.128   9.759  11.380  0.00  0.00    +0.000 A 
ATOM     10  C   UNL     1      42.989   9.416  10.653  0.00  0.00    +0.000 A 
ATOM     11  C   UNL     1      42.094  10.415  10.276  0.00  0.00    +0.000 A 
ATOM     12  C   UNL     1      42.350  11.732  10.634  0.00  0.00    +0.000 A 
ATOM     13  C   UNL     1      43.489  11.994  11.370  0.00  0.00    +0.000 A 
ATOM     14  N   UNL     1      44.369  11.044  11.754  0.00  0.00    +0.000 NA
ENDBRANCH   7   9
ENDBRANCH   1   3
BRANCH   1  15
ATOM     15  C   UNL     1      44.275   4.601  11.940  0.00  0.00    +0.000 C 
BRANCH  15  16
ATOM     16  C   UNL     1      43.717   4.314  10.541  0.00  0.00    +0.000 C 
BRANCH  16  20
ATOM     17  C   UNL     1      46.491   2.775   7.607  0.00  0.00    +0.000 A 
ATOM     18  C   UNL     1      45.819   1.890   8.459  0.00  0.00    +0.000 A 
ATOM     19  C   UNL     1      44.930   2.387   9.418  0.00  0.00    +0.000 A 
ATOM     20  C   UNL     1      44.711   3.767   9.544  0.00  0.00    +0.000 A 
ATOM     21  C   UNL     1      45.406   4.643   8.701  0.00  0.00    +0.000 A 
ATOM     22  C   UNL     1      46.296   4.152   7.745  0.00  0.00    +0.000 A 
BRANCH  17  24
ATOM     23  N   UNL     1      47.248   2.817   5.296  0.00  0.00    +0.000 N 
ATOM     24  C   UNL     1      47.412   2.292   6.548  0.00  0.00    +0.000 C 
ATOM     25  O   UNL     1      48.318   1.505   6.789  0.00  0.00    +0.000 OA
ATOM     26  H   UNL     1      47.963   2.583   4.619  0.00  0.00    +0.000 HD
ATOM     27  H   UNL     1      46.701   3.650   5.133  0.00  0.00    +0.000 HD
ENDBRANCH  17  24
ENDBRANCH  16  20
ENDBRANCH  15  16
ENDBRANCH   1  15
TORSDOF 6
ENDMDL
MODEL 7
REMARK VINA RESULT:    -6.934      3.694      6.865
REMARK INTER + INTRA:         -10.483
REMARK INTER:                  -9.461
REMARK INTRA:                  -1.023
REMARK UNBOUND:                -1.117
REMARK  Name = 
REMARK  6 active torsions:
REMARK  status: ('A' for Active; 'I' for Inactive)
REMARK    1  A    between atoms: C_2  and  C_4
REMARK    2  A    between atoms: C_7  and  C_8
REMARK    3  A    between atoms: C_8  and  C_9
REMARK    4  A    between atoms: C_9  and  N_10
REMARK    5  A    between atoms: N_10  and  C_11
REMARK    6  A    between atoms: C_15  and  C_16
REMARK                            x       y       z     vdW  Elec       q    Type
REMARK                         _______ _______ _______ _____ _____    ______ ____
ROOT
ATOM      1  N   UNL     1      43.437   7.192  11.386  0.00  0.00    +0.000 N 
ATOM      2  H   UNL     1      42.570   7.486  10.947  0.00  0.00    +0.000 HD
ENDROOT
BRANCH   1   3
ATOM      3  C   UNL     1      43.681   5.821  11.364  0.00  0.00    +0.000 A 
ATOM      4  C   UNL     1      43.055   4.919  12.230  0.00  0.00    +0.000 A 
ATOM      5  C   UNL     1      43.239   3.544  12.104  0.00  0.00    +0.000 A 
ATOM      6  C   UNL     1      44.032   3.042  11.076  0.00  0.00    +0.000 A 
ATOM      7  C   UNL     1      44.662   3.900  10.160  0.00  0.00    +0.000 A 
ATOM      8  C   UNL     1      44.473   5.289  10.332  0.00  0.00    +0.000 A 
BRANCH   7   9
ATOM      9  C   UNL     1      45.431   3.346   9.028  0.00  0.00    +0.000 A 
ATOM     10  C   UNL     1      45.931   4.129   7.988  0.00  0.00    +0.000 A 
ATOM     11  C   UNL     1      46.598   3.513   6.930  0.00  0.00    +0.000 A 
ATOM     12  C   UNL     1      46.757   2.133   6.934  0.00  0.00    +0.000 A 
ATOM     13  C   UNL     1      46.252   1.426   8.008  0.00  0.00    +0.000 A 
ATOM     14  N   UNL     1      45.607   1.998   9.047  0.00  0.00    +0.000 NA
ENDBRANCH   7   9
ENDBRANCH   1   3
BRANCH   1  15
ATOM     15  C   UNL     1      44.536   8.149  11.373  0.00  0.00    +0.000 C 
BRANCH  15  16
ATOM     16  C   UNL     1      45.382   8.080  12.649  0.00  0.00    +0.000 C 
BRANCH  16  20
ATOM     17  C   UNL     1      49.644   8.068  11.937  0.00  0.00    +0.000 A 
ATOM     18  C   UNL     1      49.007   6.895  12.357  0.00  0.00    +0.000 A 
ATOM     19  C   UNL     1      47.629   6.898  12.600  0.00  0.00    +0.000 A 
ATOM     20  C   UNL     1      46.878   8.072  12.438  0.00  0.00    +0.000 A 
ATOM     21  C   UNL     1      47.531   9.246  12.039  0.00  0.00    +0.000 A 
ATOM     22  C   UNL     1      48.906   9.247  11.798  0.00  0.00    +0.000 A 
BRANCH  17  24
ATOM     23  N   UNL     1      51.556   7.194  10.713  0.00  0.00    +0.000 N 
ATOM     24  C   UNL     1      51.096   8.101  11.627  0.00  0.00    +0.000 C 
ATOM     25  O   UNL     1      51.842   8.938  12.118  0.00  0.00    +0.000 OA
ATOM     26  H   UNL     1      52.515   7.314  10.412  0.00  0.00    +0.000 HD
ATOM     27  H   UNL     1      50.932   6.686  10.103  0.00  0.00    +0.000 HD
ENDBRANCH  17  24
ENDBRANCH  16  20
ENDBRANCH  15  16
ENDBRANCH   1  15
TORSDOF 6
ENDMDL
MODEL 8
REMARK VINA RESULT:    -6.922      2.206      3.628
REMARK INTER + INTRA:         -10.467
REMARK INTER:                  -9.873
REMARK INTRA:                  -0.593
REMARK UNBOUND:                -1.117
REMARK  Name = 
REMARK  6 active torsions:
REMARK  status: ('A' for Active; 'I' for Inactive)
REMARK    1  A    between atoms: C_2  and  C_4
REMARK    2  A    between atoms: C_7  and  C_8
REMARK    3  A    between atoms: C_8  and  C_9
REMARK    4  A    between atoms: C_9  and  N_10
REMARK    5  A    between atoms: N_10  and  C_11
REMARK    6  A    between atoms: C_15  and  C_16
REMARK                            x       y       z     vdW  Elec       q    Type
REMARK                         _______ _______ _______ _____ _____    ______ ____
ROOT
ATOM      1  N   UNL     1      44.940   5.023   9.142  0.00  0.00    +0.000 N 
ATOM      2  H   UNL     1      44.590   5.898   8.762  0.00  0.00    +0.000 HD
ENDROOT
BRANCH   1   3
ATOM      3  C   UNL     1      44.642   4.795  10.483  0.00  0.00    +0.000 A 
ATOM      4  C   UNL     1      43.511   4.088  10.904  0.00  0.00    +0.000 A 
ATOM      5  C   UNL     1      43.304   3.783  12.248  0.00  0.00    +0.000 A 
ATOM      6  C   UNL     1      44.254   4.152  13.197  0.00  0.00    +0.000 A 
ATOM      7  C   UNL     1      45.422   4.838  12.826  0.00  0.00    +0.000 A 
ATOM      8  C   UNL     1      45.587   5.152  11.460  0.00  0.00    +0.000 A 
BRANCH   7   9
ATOM      9  C   UNL     1      46.456   5.147  13.835  0.00  0.00    +0.000 A 
ATOM     10  C   UNL     1      47.332   6.226  13.723  0.00  0.00    +0.000 A 
ATOM     11  C   UNL     1      48.314   6.410  14.695  0.00  0.00    +0.000 A 
ATOM     12  C   UNL     1      48.398   5.520  15.757  0.00  0.00    +0.000 A 
ATOM     13  C   UNL     1      47.483   4.486  15.811  0.00  0.00    +0.000 A 
ATOM     14  N   UNL     1      46.519   4.289  14.887  0.00  0.00    +0.000 NA
ENDBRANCH   7   9
ENDBRANCH   1   3
BRANCH   1  15
ATOM     15  C   UNL     1      45.085   3.914   8.208  0.00  0.00    +0.000 C 
BRANCH  15  16
ATOM     16  C   UNL     1      46.541   3.702   7.779  0.00  0.00    +0.000 C 
BRANCH  16  20
ATOM     17  C   UNL     1      47.061   0.680   4.734  0.00  0.00    +0.000 A 
ATOM     18  C   UNL     1      47.191   0.335   6.084  0.00  0.00    +0.000 A 
ATOM     19  C   UNL     1      47.035   1.314   7.072  0.00  0.00    +0.000 A 
ATOM     20  C   UNL     1      46.761   2.644   6.722  0.00  0.00    +0.000 A 
ATOM     21  C   UNL     1      46.656   2.982   5.367  0.00  0.00    +0.000 A 
ATOM     22  C   UNL     1      46.814   2.009   4.379  0.00  0.00    +0.000 A 
BRANCH  17  24
ATOM     23  N   UNL     1      46.641  -1.566   3.899  0.00  0.00    +0.000 N 
ATOM     24  C   UNL     1      47.177  -0.332   3.654  0.00  0.00    +0.000 C 
ATOM     25  O   UNL     1      47.674  -0.064   2.568  0.00  0.00    +0.000 OA
ATOM     26  H   UNL     1      46.607  -2.200   3.112  0.00  0.00    +0.000 HD
ATOM     27  H   UNL     1      45.999  -1.728   4.662  0.00  0.00    +0.000 HD
ENDBRANCH  17  24
ENDBRANCH  16  20
ENDBRANCH  15  16
ENDBRANCH   1  15
TORSDOF 6
ENDMDL
MODEL 9
REMARK VINA RESULT:    -6.724      2.856      5.176
REMARK INTER + INTRA:         -10.200
REMARK INTER:                  -9.335
REMARK INTRA:                  -0.865
REMARK UNBOUND:                -1.117
REMARK  Name = 
REMARK  6 active torsions:
REMARK  status: ('A' for Active; 'I' for Inactive)
REMARK    1  A    between atoms: C_2  and  C_4
REMARK    2  A    between atoms: C_7  and  C_8
REMARK    3  A    between atoms: C_8  and  C_9
REMARK    4  A    between atoms: C_9  and  N_10
REMARK    5  A    between atoms: N_10  and  C_11
REMARK    6  A    between atoms: C_15  and  C_16
REMARK                            x       y       z     vdW  Elec       q    Type
REMARK                         _______ _______ _______ _____ _____    ______ ____
ROOT
ATOM      1  N   UNL     1      48.235   6.495  15.873  0.00  0.00    +0.000 N 
ATOM      2  H   UNL     1      47.577   7.170  16.250  0.00  0.00    +0.000 HD
ENDROOT
BRANCH   1   3
ATOM      3  C   UNL     1      48.278   5.270  16.534  0.00  0.00    +0.000 A 
ATOM      4  C   UNL     1      47.139   4.498  16.784  0.00  0.00    +0.000 A 
ATOM      5  C   UNL     1      47.233   3.227  17.348  0.00  0.00    +0.000 A 
ATOM      6  C   UNL     1      48.483   2.688  17.639  0.00  0.00    +0.000 A 
ATOM      7  C   UNL     1      49.661   3.407  17.381  0.00  0.00    +0.000 A 
ATOM      8  C   UNL     1      49.527   4.701  16.833  0.00  0.00    +0.000 A 
BRANCH   7   9
ATOM      9  C   UNL     1      50.980   2.787  17.620  0.00  0.00    +0.000 A 
ATOM     10  C   UNL     1      52.089   3.500  18.074  0.00  0.00    +0.000 A 
ATOM     11  C   UNL     1      53.310   2.844  18.218  0.00  0.00    +0.000 A 
ATOM     12  C   UNL     1      53.398   1.492  17.911  0.00  0.00    +0.000 A 
ATOM     13  C   UNL     1      52.253   0.848  17.485  0.00  0.00    +0.000 A 
ATOM     14  N   UNL     1      51.057   1.458  17.343  0.00  0.00    +0.000 NA
ENDBRANCH   7   9
ENDBRANCH   1   3
BRANCH   1  15
ATOM     15  C   UNL     1      48.525   6.587  14.448  0.00  0.00    +0.000 C 
BRANCH  15  16
ATOM     16  C   UNL     1      47.385   7.246  13.664  0.00  0.00    +0.000 C 
BRANCH  16  20
ATOM     17  C   UNL     1      45.016   4.676  11.122  0.00  0.00    +0.000 A 
ATOM     18  C   UNL     1      45.122   4.395  12.489  0.00  0.00    +0.000 A 
ATOM     19  C   UNL     1      45.898   5.218  13.313  0.00  0.00    +0.000 A 
ATOM     20  C   UNL     1      46.583   6.320  12.779  0.00  0.00    +0.000 A 
ATOM     21  C   UNL     1      46.488   6.578  11.406  0.00  0.00    +0.000 A 
ATOM     22  C   UNL     1      45.717   5.758  10.581  0.00  0.00    +0.000 A 
BRANCH  17  24
ATOM     23  N   UNL     1      44.062   4.274   8.921  0.00  0.00    +0.000 N 
ATOM     24  C   UNL     1      44.172   3.855  10.218  0.00  0.00    +0.000 C 
ATOM     25  O   UNL     1      43.643   2.817  10.593  0.00  0.00    +0.000 OA
ATOM     26  H   UNL     1      43.598   3.638   8.286  0.00  0.00    +0.000 HD
ATOM     27  H   UNL     1      44.692   4.957   8.525  0.00  0.00    +0.000 HD
ENDBRANCH  17  24
ENDBRANCH  16  20
ENDBRANCH  15  16
ENDBRANCH   1  15
TORSDOF 6
ENDMDL
