MODEL 1
REMARK VINA RESULT:    -7.785      0.000      0.000
REMARK INTER + INTRA:         -11.745
REMARK INTER:                 -10.971
REMARK INTRA:                  -0.774
REMARK UNBOUND:                -0.774
REMARK  Name = 
REMARK  7 active torsions:
REMARK  status: ('A' for Active; 'I' for Inactive)
REMARK    1  A    between atoms: C_2  and  C_4
REMARK    2  A    between atoms: C_7  and  O_8
REMARK    3  A    between atoms: O_8  and  C_9
REMARK    4  A    between atoms: C_9  and  C_10
REMARK    5  A    between atoms: C_10  and  C_11
REMARK    6  A    between atoms: C_15  and  N_16
REMARK    7  A    between atoms: N_16  and  C_17
REMARK                            x       y       z     vdW  Elec       q    Type
REMARK                         _______ _______ _______ _____ _____    ______ ____
ROOT
ATOM      1  C   UNL     1      43.545   4.959  11.804  0.00  0.00    +0.000 C 
ENDROOT
BRANCH   1   2
ATOM      2  C   UNL     1      44.921   5.243  12.367  0.00  0.00    +0.000 A 
ATOM      3  C   UNL     1      45.724   6.244  11.808  0.00  0.00    +0.000 A 
ATOM      4  C   UNL     1      47.006   6.479  12.307  0.00  0.00    +0.000 A 
ATOM      5  C   UNL     1      47.509   5.702  13.354  0.00  0.00    +0.000 A 
ATOM      6  C   UNL     1      46.735   4.686  13.917  0.00  0.00    +0.000 A 
ATOM      7  C   UNL     1      45.437   4.476  13.424  0.00  0.00    +0.000 A 
BRANCH   6   8
ATOM      8  N   UNL     1      47.184   3.891  14.997  0.00  0.00    +0.000 N 
ATOM      9  H   UNL     1      46.940   2.917  14.812  0.00  0.00    +0.000 HD
BRANCH   8  10
ATOM     10  C   UNL     1      47.058   4.228  16.394  0.00  0.00    +0.000 C 
ATOM     11  C   UNL     1      48.336   4.884  16.958  0.00  0.00    +0.000 C 
ATOM     12  N   UNL     1      48.307   3.957  18.104  0.00  0.00    +0.000 NA
ATOM     13  C   UNL     1      47.343   3.094  17.394  0.00  0.00    +0.000 C 
ATOM     14  H   UNL     1      47.929   4.378  18.953  0.00  0.00    +0.000 HD
ENDBRANCH   8  10
ENDBRANCH   6   8
ENDBRANCH   1   2
BRANCH   1  15
ATOM     15  C   UNL     1      43.602   4.657  10.306  0.00  0.00    +0.000 C 
BRANCH  15  16
ATOM     16  O   UNL     1      43.695   3.238  10.087  0.00  0.00    +0.000 OA
BRANCH  16  20
ATOM     17  C   UNL     1      46.659   2.376   7.345  0.00  0.00    +0.000 A 
ATOM     18  C   UNL     1      46.170   3.681   7.440  0.00  0.00    +0.000 A 
ATOM     19  C   UNL     1      45.157   3.965   8.362  0.00  0.00    +0.000 A 
ATOM     20  C   UNL     1      44.676   2.933   9.157  0.00  0.00    +0.000 A 
ATOM     21  N   UNL     1      45.124   1.662   9.066  0.00  0.00    +0.000 NA
ATOM     22  C   UNL     1      46.092   1.409   8.159  0.00  0.00    +0.000 A 
BRANCH  17  24
ATOM     23  N   UNL     1      48.859   2.752   6.385  0.00  0.00    +0.000 N 
ATOM     24  C   UNL     1      47.744   1.963   6.427  0.00  0.00    +0.000 C 
ATOM     25  O   UNL     1      47.674   0.932   5.778  0.00  0.00    +0.000 OA
ATOM     26  H   UNL     1      49.643   2.374   5.863  0.00  0.00    +0.000 HD
ATOM     27  H   UNL     1      49.061   3.446   7.087  0.00  0.00    +0.000 HD
ENDBRANCH  17  24
ENDBRANCH  16  20
ENDBRANCH  15  16
ENDBRANCH   1  15
TORSDOF 7
ENDMDL
MODEL 2
REMARK VINA RESULT:    -7.299      3.230      4.845
REMARK INTER + INTRA:         -11.060
REMARK INTER:                 -10.551
REMARK INTRA:                  -0.509
REMARK UNBOUND:                -0.774
REMARK  Name = 
REMARK  7 active torsions:
REMARK  status: ('A' for Active; 'I' for Inactive)
REMARK    1  A    between atoms: C_2  and  C_4
REMARK    2  A    between atoms: C_7  and  O_8
REMARK    3  A    between atoms: O_8  and  C_9
REMARK    4  A    between atoms: C_9  and  C_10
REMARK    5  A    between atoms: C_10  and  C_11
REMARK    6  A    between atoms: C_15  and  N_16
REMARK    7  A    between atoms: N_16  and  C_17
REMARK                            x       y       z     vdW  Elec       q    Type
REMARK                         _______ _______ _______ _____ _____    ______ ____
ROOT
ATOM      1  C   UNL     1      45.096   5.081  11.739  0.00  0.00    +0.000 C 
ENDROOT
BRANCH   1   2
ATOM      2  C   UNL     1      45.661   6.477  11.888  0.00  0.00    +0.000 A 
ATOM      3  C   UNL     1      47.044   6.690  11.862  0.00  0.00    +0.000 A 
ATOM      4  C   UNL     1      47.561   7.975  12.036  0.00  0.00    +0.000 A 
ATOM      5  C   UNL     1      46.706   9.057  12.259  0.00  0.00    +0.000 A 
ATOM      6  C   UNL     1      45.324   8.868  12.308  0.00  0.00    +0.000 A 
ATOM      7  C   UNL     1      44.812   7.576  12.106  0.00  0.00    +0.000 A 
BRANCH   6   8
ATOM      8  N   UNL     1      44.411   9.932  12.501  0.00  0.00    +0.000 N 
ATOM      9  H   UNL     1      43.770   9.681  13.254  0.00  0.00    +0.000 HD
BRANCH   8  10
ATOM     10  C   UNL     1      43.758  10.675  11.452  0.00  0.00    +0.000 C 
ATOM     11  C   UNL     1      42.674   9.845  10.731  0.00  0.00    +0.000 C 
ATOM     12  N   UNL     1      43.238  10.240   9.428  0.00  0.00    +0.000 NA
ATOM     13  C   UNL     1      44.473  10.700  10.091  0.00  0.00    +0.000 C 
ATOM     14  H   UNL     1      42.716  10.989   8.974  0.00  0.00    +0.000 HD
ENDBRANCH   8  10
ENDBRANCH   6   8
ENDBRANCH   1   2
BRANCH   1  15
ATOM     15  C   UNL     1      44.069   5.007  10.610  0.00  0.00    +0.000 C 
BRANCH  15  16
ATOM     16  O   UNL     1      43.835   3.636  10.239  0.00  0.00    +0.000 OA
BRANCH  16  20
ATOM     17  C   UNL     1      46.590   2.405   7.420  0.00  0.00    +0.000 A 
ATOM     18  C   UNL     1      46.221   3.751   7.478  0.00  0.00    +0.000 A 
ATOM     19  C   UNL     1      45.278   4.161   8.427  0.00  0.00    +0.000 A 
ATOM     20  C   UNL     1      44.744   3.208   9.285  0.00  0.00    +0.000 A 
ATOM     21  N   UNL     1      45.075   1.900   9.231  0.00  0.00    +0.000 NA
ATOM     22  C   UNL     1      45.977   1.526   8.298  0.00  0.00    +0.000 A 
BRANCH  17  24
ATOM     23  N   UNL     1      48.737   2.587   6.299  0.00  0.00    +0.000 N 
ATOM     24  C   UNL     1      47.594   1.861   6.479  0.00  0.00    +0.000 C 
ATOM     25  O   UNL     1      47.436   0.782   5.930  0.00  0.00    +0.000 OA
ATOM     26  H   UNL     1      49.468   2.127   5.766  0.00  0.00    +0.000 HD
ATOM     27  H   UNL     1      49.015   3.328   6.922  0.00  0.00    +0.000 HD
ENDBRANCH  17  24
ENDBRANCH  16  20
ENDBRANCH  15  16
ENDBRANCH   1  15
TORSDOF 7
ENDMDL
MODEL 3
REMARK VINA RESULT:    -7.039      2.865      7.175
REMARK INTER + INTRA:         -10.694
REMARK INTER:                 -10.853
REMARK INTRA:                   0.159
REMARK UNBOUND:                -0.774
REMARK  Name = 
REMARK  7 active torsions:
REMARK  status: ('A' for Active; 'I' for Inactive)
REMARK    1  A    between atoms: C_2  and  C_4
REMARK    2  A    between atoms: C_7  and  O_8
REMARK    3  A    between atoms: O_8  and  C_9
REMARK    4  A    between atoms: C_9  and  C_10
REMARK    5  A    between atoms: C_10  and  C_11
REMARK    6  A    between atoms: C_15  and  N_16
REMARK    7  A    between atoms: N_16  and  C_17
REMARK                            x       y       z     vdW  Elec       q    Type
REMARK                         _______ _______ _______ _____ _____    ______ ____
ROOT
ATOM      1  C   UNL     1      43.459   3.251  11.321  0.00  0.00    +0.000 C 
ENDROOT
BRANCH   1   2
ATOM      2  C   UNL     1      44.387   3.360  10.130  0.00  0.00    +0.000 A 
ATOM      3  C   UNL     1      44.699   4.611   9.585  0.00  0.00    +0.000 A 
ATOM      4  C   UNL     1      45.526   4.705   8.465  0.00  0.00    +0.000 A 
ATOM      5  C   UNL     1      46.032   3.550   7.862  0.00  0.00    +0.000 A 
ATOM      6  C   UNL     1      45.721   2.290   8.375  0.00  0.00    +0.000 A 
ATOM      7  C   UNL     1      44.909   2.208   9.518  0.00  0.00    +0.000 A 
BRANCH   6   8
ATOM      8  N   UNL     1      46.230   1.091   7.822  0.00  0.00    +0.000 N 
ATOM      9  H   UNL     1      46.094   0.336   8.496  0.00  0.00    +0.000 HD
BRANCH   8  10
ATOM     10  C   UNL     1      47.472   0.962   7.101  0.00  0.00    +0.000 C 
ATOM     11  C   UNL     1      48.085   2.332   6.737  0.00  0.00    +0.000 C 
ATOM     12  N   UNL     1      48.271   1.880   5.347  0.00  0.00    +0.000 NA
ATOM     13  C   UNL     1      47.356   0.746   5.582  0.00  0.00    +0.000 C 
ATOM     14  H   UNL     1      49.228   1.595   5.141  0.00  0.00    +0.000 HD
ENDBRANCH   8  10
ENDBRANCH   6   8
ENDBRANCH   1   2
BRANCH   1  15
ATOM     15  C   UNL     1      42.861   4.607  11.694  0.00  0.00    +0.000 C 
BRANCH  15  16
ATOM     16  O   UNL     1      43.213   4.951  13.047  0.00  0.00    +0.000 OA
BRANCH  16  20
ATOM     17  C   UNL     1      47.128   6.228  13.352  0.00  0.00    +0.000 A 
ATOM     18  C   UNL     1      46.183   7.051  12.735  0.00  0.00    +0.000 A 
ATOM     19  C   UNL     1      44.860   6.609  12.623  0.00  0.00    +0.000 A 
ATOM     20  C   UNL     1      44.533   5.361  13.138  0.00  0.00    +0.000 A 
ATOM     21  N   UNL     1      45.437   4.544  13.721  0.00  0.00    +0.000 NA
ATOM     22  C   UNL     1      46.710   4.987  13.805  0.00  0.00    +0.000 A 
BRANCH  17  24
ATOM     23  N   UNL     1      49.173   7.237  12.518  0.00  0.00    +0.000 N 
ATOM     24  C   UNL     1      48.546   6.599  13.550  0.00  0.00    +0.000 C 
ATOM     25  O   UNL     1      49.118   6.397  14.609  0.00  0.00    +0.000 OA
ATOM     26  H   UNL     1      50.094   7.610  12.728  0.00  0.00    +0.000 HD
ATOM     27  H   UNL     1      48.670   7.652  11.749  0.00  0.00    +0.000 HD
ENDBRANCH  17  24
ENDBRANCH  16  20
ENDBRANCH  15  16
ENDBRANCH   1  15
TORSDOF 7
ENDMDL
MODEL 4
REMARK VINA RESULT:    -6.890      2.632      8.237
REMARK INTER + INTRA:         -10.483
REMARK INTER:                  -9.786
REMARK INTRA:                  -0.697
REMARK UNBOUND:                -0.774
REMARK  Name = 
REMARK  7 active torsions:
REMARK  status: ('A' for Active; 'I' for Inactive)
REMARK    1  A    between atoms: C_2  and  C_4
REMARK    2  A    between atoms: C_7  and  O_8
REMARK    3  A    between atoms: O_8  and  C_9
REMARK    4  A    between atoms: C_9  and  C_10
REMARK    5  A    between atoms: C_10  and  C_11
REMARK    6  A    between atoms: C_15  and  N_16
REMARK    7  A    between atoms: N_16  and  C_17
REMARK                            x       y       z     vdW  Elec       q    Type
REMARK                         _______ _______ _______ _____ _____    ______ ____
ROOT
ATOM      1  C   UNL     1      45.238   6.378  10.938  0.00  0.00    +0.000 C 
ENDROOT
BRANCH   1   2
ATOM      2  C   UNL     1      45.006   5.022  10.306  0.00  0.00    +0.000 A 
ATOM      3  C   UNL     1      44.329   4.018  11.008  0.00  0.00    +0.000 A 
ATOM      4  C   UNL     1      44.150   2.758  10.436  0.00  0.00    +0.000 A 
ATOM      5  C   UNL     1      44.663   2.480   9.166  0.00  0.00    +0.000 A 
ATOM      6  C   UNL     1      45.357   3.458   8.453  0.00  0.00    +0.000 A 
ATOM      7  C   UNL     1      45.509   4.731   9.027  0.00  0.00    +0.000 A 
BRANCH   6   8
ATOM      8  N   UNL     1      45.871   3.239   7.153  0.00  0.00    +0.000 N 
ATOM      9  H   UNL     1      45.219   2.646   6.638  0.00  0.00    +0.000 HD
BRANCH   8  10
ATOM     10  C   UNL     1      47.246   2.943   6.835  0.00  0.00    +0.000 C 
ATOM     11  C   UNL     1      47.464   2.713   5.324  0.00  0.00    +0.000 C 
ATOM     12  N   UNL     1      48.204   1.473   5.620  0.00  0.00    +0.000 NA
ATOM     13  C   UNL     1      47.679   1.476   6.998  0.00  0.00    +0.000 C 
ATOM     14  H   UNL     1      49.217   1.586   5.568  0.00  0.00    +0.000 HD
ENDBRANCH   8  10
ENDBRANCH   6   8
ENDBRANCH   1   2
BRANCH   1  15
ATOM     15  C   UNL     1      45.638   6.253  12.408  0.00  0.00    +0.000 C 
BRANCH  15  16
ATOM     16  O   UNL     1      47.028   5.893  12.517  0.00  0.00    +0.000 OA
BRANCH  16  20
ATOM     17  C   UNL     1      48.010   4.679  16.340  0.00  0.00    +0.000 A 
ATOM     18  C   UNL     1      47.078   3.944  15.604  0.00  0.00    +0.000 A 
ATOM     19  C   UNL     1      46.738   4.367  14.314  0.00  0.00    +0.000 A 
ATOM     20  C   UNL     1      47.350   5.506  13.807  0.00  0.00    +0.000 A 
ATOM     21  N   UNL     1      48.240   6.239  14.511  0.00  0.00    +0.000 NA
ATOM     22  C   UNL     1      48.541   5.820  15.759  0.00  0.00    +0.000 A 
BRANCH  17  24
ATOM     23  N   UNL     1      47.725   3.387  18.376  0.00  0.00    +0.000 N 
ATOM     24  C   UNL     1      48.464   4.316  17.700  0.00  0.00    +0.000 C 
ATOM     25  O   UNL     1      49.486   4.781  18.178  0.00  0.00    +0.000 OA
ATOM     26  H   UNL     1      48.132   3.048  19.241  0.00  0.00    +0.000 HD
ATOM     27  H   UNL     1      47.045   2.797  17.922  0.00  0.00    +0.000 HD
ENDBRANCH  17  24
ENDBRANCH  16  20
ENDBRANCH  15  16
ENDBRANCH   1  15
TORSDOF 7
ENDMDL
MODEL 5
REMARK VINA RESULT:    -6.822      2.380      3.018
REMARK INTER + INTRA:         -10.388
REMARK INTER:                 -10.236
REMARK INTRA:                  -0.152
REMARK UNBOUND:                -0.774
REMARK  Name = 
REMARK  7 active torsions:
REMARK  status: ('A' for Active; 'I' for Inactive)
REMARK    1  A    between atoms: C_2  and  C_4
REMARK    2  A    between atoms: C_7  and  O_8
REMARK    3  A    between atoms: O_8  and  C_9
REMARK    4  A    between atoms: C_9  and  C_10
REMARK    5  A    between atoms: C_10  and  C_11
REMARK    6  A    between atoms: C_15  and  N_16
REMARK    7  A    between atoms: N_16  and  C_17
REMARK                            x       y       z     vdW  Elec       q    Type
REMARK                         _______ _______ _______ _____ _____    ______ ____
ROOT
ATOM      1  C   UNL     1      45.144   4.246  11.653  0.00  0.00    +0.000 C 
ENDROOT
BRANCH   1   2
ATOM      2  C   UNL     1      45.351   5.697  12.029  0.00  0.00    +0.000 A 
ATOM      3  C   UNL     1      44.606   6.705  11.407  0.00  0.00    +0.000 A 
ATOM      4  C   UNL     1      44.825   8.045  11.730  0.00  0.00    +0.000 A 
ATOM      5  C   UNL     1      45.806   8.394  12.663  0.00  0.00    +0.000 A 
ATOM      6  C   UNL     1      46.574   7.410  13.285  0.00  0.00    +0.000 A 
ATOM      7  C   UNL     1      46.327   6.063  12.971  0.00  0.00    +0.000 A 
BRANCH   6   8
ATOM      8  N   UNL     1      47.558   7.705  14.257  0.00  0.00    +0.000 N 
ATOM      9  H   UNL     1      47.099   8.094  15.082  0.00  0.00    +0.000 HD
BRANCH   8  10
ATOM     10  C   UNL     1      48.831   8.332  13.996  0.00  0.00    +0.000 C 
ATOM     11  C   UNL     1      49.443   7.882  12.652  0.00  0.00    +0.000 C 
ATOM     12  N   UNL     1      50.727   7.616  13.325  0.00  0.00    +0.000 NA
ATOM     13  C   UNL     1      50.060   7.666  14.640  0.00  0.00    +0.000 C 
ATOM     14  H   UNL     1      51.415   8.356  13.188  0.00  0.00    +0.000 HD
ENDBRANCH   8  10
ENDBRANCH   6   8
ENDBRANCH   1   2
BRANCH   1  15
ATOM     15  C   UNL     1      43.750   4.008  11.072  0.00  0.00    +0.000 C 
BRANCH  15  16
ATOM     16  O   UNL     1      43.715   4.397   9.687  0.00  0.00    +0.000 OA
BRANCH  16  20
ATOM     17  C   UNL     1      46.550   2.375   7.466  0.00  0.00    +0.000 A 
ATOM     18  C   UNL     1      45.763   1.671   8.381  0.00  0.00    +0.000 A 
ATOM     19  C   UNL     1      44.813   2.362   9.141  0.00  0.00    +0.000 A 
ATOM     20  C   UNL     1      44.683   3.732   8.950  0.00  0.00    +0.000 A 
ATOM     21  N   UNL     1      45.446   4.432   8.083  0.00  0.00    +0.000 NA
ATOM     22  C   UNL     1      46.366   3.745   7.373  0.00  0.00    +0.000 A 
BRANCH  17  24
ATOM     23  N   UNL     1      48.720   2.449   6.378  0.00  0.00    +0.000 N 
ATOM     24  C   UNL     1      47.567   1.748   6.593  0.00  0.00    +0.000 C 
ATOM     25  O   UNL     1      47.410   0.630   6.130  0.00  0.00    +0.000 OA
ATOM     26  H   UNL     1      49.458   1.942   5.900  0.00  0.00    +0.000 HD
ATOM     27  H   UNL     1      48.992   3.236   6.945  0.00  0.00    +0.000 HD
ENDBRANCH  17  24
ENDBRANCH  16  20
ENDBRANCH  15  16
ENDBRANCH   1  15
TORSDOF 7
ENDMDL
MODEL 6
REMARK VINA RESULT:    -6.704      2.942      4.158
REMARK INTER + INTRA:         -10.221
REMARK INTER:                  -9.557
REMARK INTRA:                  -0.665
REMARK UNBOUND:                -0.774
REMARK  Name = 
REMARK  7 active torsions:
REMARK  status: ('A' for Active; 'I' for Inactive)
REMARK    1  A    between atoms: C_2  and  C_4
REMARK    2  A    between atoms: C_7  and  O_8
REMARK    3  A    between atoms: O_8  and  C_9
REMARK    4  A    between atoms: C_9  and  C_10
REMARK    5  A    between atoms: C_10  and  C_11
REMARK    6  A    between atoms: C_15  and  N_16
REMARK    7  A    between atoms: N_16  and  C_17
REMARK                            x       y       z     vdW  Elec       q    Type
REMARK                         _______ _______ _______ _____ _____    ______ ____
ROOT
ATOM      1  C   UNL     1      44.744   6.151  11.480  0.00  0.00    +0.000 C 
ENDROOT
BRANCH   1   2
ATOM      2  C   UNL     1      46.123   6.281  12.090  0.00  0.00    +0.000 A 
ATOM      3  C   UNL     1      46.402   5.720  13.342  0.00  0.00    +0.000 A 
ATOM      4  C   UNL     1      47.664   5.873  13.916  0.00  0.00    +0.000 A 
ATOM      5  C   UNL     1      48.655   6.606  13.258  0.00  0.00    +0.000 A 
ATOM      6  C   UNL     1      48.398   7.190  12.017  0.00  0.00    +0.000 A 
ATOM      7  C   UNL     1      47.132   7.008  11.436  0.00  0.00    +0.000 A 
BRANCH   6   8
ATOM      8  N   UNL     1      49.373   7.916  11.294  0.00  0.00    +0.000 N 
ATOM      9  H   UNL     1      49.219   7.769  10.296  0.00  0.00    +0.000 HD
BRANCH   8  10
ATOM     10  C   UNL     1      50.775   7.994  11.625  0.00  0.00    +0.000 C 
ATOM     11  C   UNL     1      51.338   9.423  11.469  0.00  0.00    +0.000 C 
ATOM     12  N   UNL     1      52.471   8.892  10.691  0.00  0.00    +0.000 NA
ATOM     13  C   UNL     1      51.758   7.614  10.504  0.00  0.00    +0.000 C 
ATOM     14  H   UNL     1      53.329   8.804  11.238  0.00  0.00    +0.000 HD
ENDBRANCH   8  10
ENDBRANCH   6   8
ENDBRANCH   1   2
BRANCH   1  15
ATOM     15  C   UNL     1      44.399   4.694  11.174  0.00  0.00    +0.000 C 
BRANCH  15  16
ATOM     16  O   UNL     1      43.951   4.564   9.812  0.00  0.00    +0.000 OA
BRANCH  16  20
ATOM     17  C   UNL     1      46.637   2.458   7.488  0.00  0.00    +0.000 A 
ATOM     18  C   UNL     1      45.803   1.767   8.370  0.00  0.00    +0.000 A 
ATOM     19  C   UNL     1      44.903   2.486   9.165  0.00  0.00    +0.000 A 
ATOM     20  C   UNL     1      44.869   3.869   9.042  0.00  0.00    +0.000 A 
ATOM     21  N   UNL     1      45.681   4.555   8.208  0.00  0.00    +0.000 NA
ATOM     22  C   UNL     1      46.551   3.840   7.462  0.00  0.00    +0.000 A 
BRANCH  17  24
ATOM     23  N   UNL     1      48.755   2.491   6.300  0.00  0.00    +0.000 N 
ATOM     24  C   UNL     1      47.608   1.805   6.583  0.00  0.00    +0.000 C 
ATOM     25  O   UNL     1      47.422   0.678   6.152  0.00  0.00    +0.000 OA
ATOM     26  H   UNL     1      49.466   1.968   5.799  0.00  0.00    +0.000 HD
ATOM     27  H   UNL     1      49.059   3.288   6.837  0.00  0.00    +0.000 HD
ENDBRANCH  17  24
ENDBRANCH  16  20
ENDBRANCH  15  16
ENDBRANCH   1  15
TORSDOF 7
ENDMDL
MODEL 7
REMARK VINA RESULT:    -6.555      3.215      4.617
REMARK INTER + INTRA:         -10.012
REMARK INTER:                  -9.376
REMARK INTRA:                  -0.636
REMARK UNBOUND:                -0.774
REMARK  Name = 
REMARK  7 active torsions:
REMARK  status: ('A' for Active; 'I' for Inactive)
REMARK    1  A    between atoms: C_2  and  C_4
REMARK    2  A    between atoms: C_7  and  O_8
REMARK    3  A    between atoms: O_8  and  C_9
REMARK    4  A    between atoms: C_9  and  C_10
REMARK    5  A    between atoms: C_10  and  C_11
REMARK    6  A    between atoms: C_15  and  N_16
REMARK    7  A    between atoms: N_16  and  C_17
REMARK                            x       y       z     vdW  Elec       q    Type
REMARK                         _______ _______ _______ _____ _____    ______ ____
ROOT
ATOM      1  C   UNL     1      44.844   5.015  12.175  0.00  0.00    +0.000 C 
ENDROOT
BRANCH   1   2
ATOM      2  C   UNL     1      45.859   6.075  12.544  0.00  0.00    +0.000 A 
ATOM      3  C   UNL     1      47.134   5.711  12.993  0.00  0.00    +0.000 A 
ATOM      4  C   UNL     1      48.055   6.691  13.367  0.00  0.00    +0.000 A 
ATOM      5  C   UNL     1      47.706   8.043  13.319  0.00  0.00    +0.000 A 
ATOM      6  C   UNL     1      46.435   8.431  12.892  0.00  0.00    +0.000 A 
ATOM      7  C   UNL     1      45.525   7.438  12.493  0.00  0.00    +0.000 A 
BRANCH   6   8
ATOM      8  N   UNL     1      46.040   9.786  12.796  0.00  0.00    +0.000 N 
ATOM      9  H   UNL     1      45.170   9.912  13.316  0.00  0.00    +0.000 HD
BRANCH   8  10
ATOM     10  C   UNL     1      46.079  10.587  11.597  0.00  0.00    +0.000 C 
ATOM     11  C   UNL     1      47.446  11.276  11.396  0.00  0.00    +0.000 C 
ATOM     12  N   UNL     1      46.763  12.559  11.153  0.00  0.00    +0.000 NA
ATOM     13  C   UNL     1      45.513  12.013  11.715  0.00  0.00    +0.000 C 
ATOM     14  H   UNL     1      46.695  12.799  10.164  0.00  0.00    +0.000 HD
ENDBRANCH   8  10
ENDBRANCH   6   8
ENDBRANCH   1   2
BRANCH   1  15
ATOM     15  C   UNL     1      44.139   5.345  10.859  0.00  0.00    +0.000 C 
BRANCH  15  16
ATOM     16  O   UNL     1      43.738   4.135  10.192  0.00  0.00    +0.000 OA
BRANCH  16  20
ATOM     17  C   UNL     1      46.588   2.801   7.518  0.00  0.00    +0.000 A 
ATOM     18  C   UNL     1      45.897   1.876   8.304  0.00  0.00    +0.000 A 
ATOM     19  C   UNL     1      44.941   2.334   9.218  0.00  0.00    +0.000 A 
ATOM     20  C   UNL     1      44.710   3.700   9.305  0.00  0.00    +0.000 A 
ATOM     21  N   UNL     1      45.381   4.610   8.567  0.00  0.00    +0.000 NA
ATOM     22  C   UNL     1      46.309   4.146   7.703  0.00  0.00    +0.000 A 
BRANCH  17  24
ATOM     23  N   UNL     1      47.466   2.987   5.261  0.00  0.00    +0.000 N 
ATOM     24  C   UNL     1      47.600   2.434   6.503  0.00  0.00    +0.000 C 
ATOM     25  O   UNL     1      48.548   1.715   6.776  0.00  0.00    +0.000 OA
ATOM     26  H   UNL     1      48.246   2.839   4.629  0.00  0.00    +0.000 HD
ATOM     27  H   UNL     1      46.866   3.777   5.079  0.00  0.00    +0.000 HD
ENDBRANCH  17  24
ENDBRANCH  16  20
ENDBRANCH  15  16
ENDBRANCH   1  15
TORSDOF 7
ENDMDL
MODEL 8
REMARK VINA RESULT:    -6.355      3.870      5.728
REMARK INTER + INTRA:          -9.730
REMARK INTER:                  -9.143
REMARK INTRA:                  -0.587
REMARK UNBOUND:                -0.774
REMARK  Name = 
REMARK  7 active torsions:
REMARK  status: ('A' for Active; 'I' for Inactive)
REMARK    1  A    between atoms: C_2  and  C_4
REMARK    2  A    between atoms: C_7  and  O_8
REMARK    3  A    between atoms: O_8  and  C_9
REMARK    4  A    between atoms: C_9  and  C_10
REMARK    5  A    between atoms: C_10  and  C_11
REMARK    6  A    between atoms: C_15  and  N_16
REMARK    7  A    between atoms: N_16  and  C_17
REMARK                            x       y       z     vdW  Elec       q    Type
REMARK                         _______ _______ _______ _____ _____    ______ ____
ROOT
ATOM      1  C   UNL     1      48.594   7.810  14.937  0.00  0.00    +0.000 C 
ENDROOT
BRANCH   1   2
ATOM      2  C   UNL     1      49.558   7.008  15.783  0.00  0.00    +0.000 A 
ATOM      3  C   UNL     1      50.938   7.214  15.676  0.00  0.00    +0.000 A 
ATOM      4  C   UNL     1      51.826   6.446  16.430  0.00  0.00    +0.000 A 
ATOM      5  C   UNL     1      51.347   5.449  17.284  0.00  0.00    +0.000 A 
ATOM      6  C   UNL     1      49.977   5.210  17.396  0.00  0.00    +0.000 A 
ATOM      7  C   UNL     1      49.091   6.007  16.651  0.00  0.00    +0.000 A 
BRANCH   6   8
ATOM      8  N   UNL     1      49.437   4.234  18.266  0.00  0.00    +0.000 N 
ATOM      9  H   UNL     1      49.905   4.305  19.170  0.00  0.00    +0.000 HD
BRANCH   8  10
ATOM     10  C   UNL     1      49.141   2.868  17.910  0.00  0.00    +0.000 C 
ATOM     11  C   UNL     1      50.317   2.182  17.182  0.00  0.00    +0.000 C 
ATOM     12  N   UNL     1      49.393   1.709  16.135  0.00  0.00    +0.000 NA
ATOM     13  C   UNL     1      48.365   2.662  16.597  0.00  0.00    +0.000 C 
ATOM     14  H   UNL     1      49.123   0.732  16.247  0.00  0.00    +0.000 HD
ENDBRANCH   8  10
ENDBRANCH   6   8
ENDBRANCH   1   2
BRANCH   1  15
ATOM     15  C   UNL     1      48.647   7.389  13.469  0.00  0.00    +0.000 C 
BRANCH  15  16
ATOM     16  O   UNL     1      48.364   5.984  13.343  0.00  0.00    +0.000 OA
BRANCH  16  20
ATOM     17  C   UNL     1      44.492   5.309  12.077  0.00  0.00    +0.000 A 
ATOM     18  C   UNL     1      45.319   6.157  11.336  0.00  0.00    +0.000 A 
ATOM     19  C   UNL     1      46.626   6.393  11.776  0.00  0.00    +0.000 A 
ATOM     20  C   UNL     1      47.057   5.765  12.938  0.00  0.00    +0.000 A 
ATOM     21  N   UNL     1      46.266   4.957  13.676  0.00  0.00    +0.000 NA
ATOM     22  C   UNL     1      45.004   4.756  13.239  0.00  0.00    +0.000 A 
BRANCH  17  24
ATOM     23  N   UNL     1      42.175   5.967  11.762  0.00  0.00    +0.000 N 
ATOM     24  C   UNL     1      43.103   4.966  11.697  0.00  0.00    +0.000 C 
ATOM     25  O   UNL     1      42.809   3.856  11.287  0.00  0.00    +0.000 OA
ATOM     26  H   UNL     1      41.268   5.750  11.361  0.00  0.00    +0.000 HD
ATOM     27  H   UNL     1      42.428   6.940  11.836  0.00  0.00    +0.000 HD
ENDBRANCH  17  24
ENDBRANCH  16  20
ENDBRANCH  15  16
ENDBRANCH   1  15
TORSDOF 7
ENDMDL
MODEL 9
REMARK VINA RESULT:    -6.309      3.896      7.819
REMARK INTER + INTRA:          -9.665
REMARK INTER:                  -8.834
REMARK INTRA:                  -0.831
REMARK UNBOUND:                -0.774
REMARK  Name = 
REMARK  7 active torsions:
REMARK  status: ('A' for Active; 'I' for Inactive)
REMARK    1  A    between atoms: C_2  and  C_4
REMARK    2  A    between atoms: C_7  and  O_8
REMARK    3  A    between atoms: O_8  and  C_9
REMARK    4  A    between atoms: C_9  and  C_10
REMARK    5  A    between atoms: C_10  and  C_11
REMARK    6  A    between atoms: C_15  and  N_16
REMARK    7  A    between atoms: N_16  and  C_17
REMARK                            x       y       z     vdW  Elec       q    Type
REMARK                         _______ _______ _______ _____ _____    ______ ____
ROOT
ATOM      1  C   UNL     1      48.929   8.249  12.208  0.00  0.00    +0.000 C 
ENDROOT
BRANCH   1   2
ATOM      2  C   UNL     1      47.445   8.021  12.023  0.00  0.00    +0.000 A 
ATOM      3  C   UNL     1      46.519   8.972  12.467  0.00  0.00    +0.000 A 
ATOM      4  C   UNL     1      45.150   8.740  12.328  0.00  0.00    +0.000 A 
ATOM      5  C   UNL     1      44.689   7.548  11.764  0.00  0.00    +0.000 A 
ATOM      6  C   UNL     1      45.591   6.575  11.330  0.00  0.00    +0.000 A 
ATOM      7  C   UNL     1      46.967   6.829  11.451  0.00  0.00    +0.000 A 
BRANCH   6   8
ATOM      8  N   UNL     1      45.180   5.363  10.726  0.00  0.00    +0.000 N 
ATOM      9  H   UNL     1      44.568   5.580   9.939  0.00  0.00    +0.000 HD
BRANCH   8  10
ATOM     10  C   UNL     1      44.764   4.176  11.431  0.00  0.00    +0.000 C 
ATOM     11  C   UNL     1      44.150   3.118  10.488  0.00  0.00    +0.000 C 
ATOM     12  N   UNL     1      43.000   2.974  11.399  0.00  0.00    +0.000 NA
ATOM     13  C   UNL     1      43.371   4.227  12.083  0.00  0.00    +0.000 C 
ATOM     14  H   UNL     1      43.060   2.150  11.996  0.00  0.00    +0.000 HD
ENDBRANCH   8  10
ENDBRANCH   6   8
ENDBRANCH   1   2
BRANCH   1  15
ATOM     15  C   UNL     1      49.522   7.291  13.240  0.00  0.00    +0.000 C 
BRANCH  15  16
ATOM     16  O   UNL     1      49.205   7.734  14.572  0.00  0.00    +0.000 OA
BRANCH  16  20
ATOM     17  C   UNL     1      48.062   4.617  17.029  0.00  0.00    +0.000 A 
ATOM     18  C   UNL     1      48.889   5.624  17.535  0.00  0.00    +0.000 A 
ATOM     19  C   UNL     1      49.284   6.671  16.695  0.00  0.00    +0.000 A 
ATOM     20  C   UNL     1      48.831   6.673  15.382  0.00  0.00    +0.000 A 
ATOM     21  N   UNL     1      48.046   5.700  14.871  0.00  0.00    +0.000 NA
ATOM     22  C   UNL     1      47.691   4.692  15.696  0.00  0.00    +0.000 A 
BRANCH  17  24
ATOM     23  N   UNL     1      48.203   3.211  19.004  0.00  0.00    +0.000 N 
ATOM     24  C   UNL     1      47.562   3.477  17.828  0.00  0.00    +0.000 C 
ATOM     25  O   UNL     1      46.583   2.836  17.482  0.00  0.00    +0.000 OA
ATOM     26  H   UNL     1      47.756   2.523  19.601  0.00  0.00    +0.000 HD
ATOM     27  H   UNL     1      48.829   3.868  19.443  0.00  0.00    +0.000 HD
ENDBRANCH  17  24
ENDBRANCH  16  20
ENDBRANCH  15  16
ENDBRANCH   1  15
TORSDOF 7
ENDMDL
