MODEL 1
REMARK VINA RESULT:    -6.687      0.000      0.000
REMARK INTER + INTRA:          -8.725
REMARK INTER:                  -8.251
REMARK INTRA:                  -0.474
REMARK UNBOUND:                -0.474
REMARK  Name = 
REMARK  4 active torsions:
REMARK  status: ('A' for Active; 'I' for Inactive)
REMARK    1  A    between atoms: C_2  and  C_4
REMARK    2  A    between atoms: C_7  and  C_8
REMARK    3  A    between atoms: C_9  and  C_10
REMARK    4  A    between atoms: C_14  and  N_15
REMARK                            x       y       z     vdW  Elec       q    Type
REMARK                         _______ _______ _______ _____ _____    ______ ____
ROOT
ATOM      1  C   UNL     1      46.778   4.448  14.687  0.00  0.00    +0.000 C 
ATOM      2  C   UNL     1      45.972   4.514  13.802  0.00  0.00    +0.000 C 
ENDROOT
BRANCH   1   6
ATOM      3  C   UNL     1      49.546   4.345  17.883  0.00  0.00    +0.000 A 
ATOM      4  C   UNL     1      48.837   3.186  17.538  0.00  0.00    +0.000 A 
ATOM      5  C   UNL     1      47.923   3.216  16.479  0.00  0.00    +0.000 A 
ATOM      6  C   UNL     1      47.717   4.400  15.767  0.00  0.00    +0.000 A 
ATOM      7  C   UNL     1      48.419   5.557  16.115  0.00  0.00    +0.000 A 
ATOM      8  C   UNL     1      49.326   5.532  17.177  0.00  0.00    +0.000 A 
BRANCH   3  10
ATOM      9  N   UNL     1      50.023   4.328  20.267  0.00  0.00    +0.000 N 
ATOM     10  C   UNL     1      50.527   4.360  18.997  0.00  0.00    +0.000 C 
ATOM     11  O   UNL     1      51.735   4.353  18.794  0.00  0.00    +0.000 OA
ATOM     12  H   UNL     1      50.699   4.203  21.010  0.00  0.00    +0.000 HD
ATOM     13  H   UNL     1      49.065   4.070  20.457  0.00  0.00    +0.000 HD
ENDBRANCH   3  10
ENDBRANCH   1   6
BRANCH   2  14
ATOM     14  C   UNL     1      44.996   4.616  12.760  0.00  0.00    +0.000 A 
ATOM     15  C   UNL     1      43.826   5.342  12.967  0.00  0.00    +0.000 A 
ATOM     16  C   UNL     1      42.889   5.443  11.944  0.00  0.00    +0.000 A 
ATOM     17  C   UNL     1      43.130   4.826  10.711  0.00  0.00    +0.000 A 
ATOM     18  C   UNL     1      44.299   4.089  10.473  0.00  0.00    +0.000 A 
ATOM     19  C   UNL     1      45.222   3.995  11.528  0.00  0.00    +0.000 A 
BRANCH  18  20
ATOM     20  N   UNL     1      44.555   3.488   9.256  0.00  0.00    +0.000 N 
ATOM     21  C   UNL     1      44.585   2.031   9.086  0.00  0.00    +0.000 C 
ATOM     22  C   UNL     1      45.960   1.558   8.571  0.00  0.00    +0.000 C 
ATOM     23  N   UNL     1      46.419   2.277   7.362  0.00  0.00    +0.000 NA
ATOM     24  C   UNL     1      46.432   3.726   7.657  0.00  0.00    +0.000 C 
ATOM     25  C   UNL     1      45.068   4.280   8.130  0.00  0.00    +0.000 C 
ATOM     26  H   UNL     1      45.732   2.117   6.625  0.00  0.00    +0.000 HD
ENDBRANCH  18  20
ENDBRANCH   2  14
TORSDOF 4
ENDMDL
MODEL 2
REMARK VINA RESULT:    -5.983      3.299      9.701
REMARK INTER + INTRA:          -7.856
REMARK INTER:                  -7.354
REMARK INTRA:                  -0.502
REMARK UNBOUND:                -0.474
REMARK  Name = 
REMARK  4 active torsions:
REMARK  status: ('A' for Active; 'I' for Inactive)
REMARK    1  A    between atoms: C_2  and  C_4
REMARK    2  A    between atoms: C_7  and  C_8
REMARK    3  A    between atoms: C_9  and  C_10
REMARK    4  A    between atoms: C_14  and  N_15
REMARK                            x       y       z     vdW  Elec       q    Type
REMARK                         _______ _______ _______ _____ _____    ______ ____
ROOT
ATOM      1  C   UNL     1      47.622   6.012  14.115  0.00  0.00    +0.000 C 
ATOM      2  C   UNL     1      48.321   6.427  14.997  0.00  0.00    +0.000 C 
ENDROOT
BRANCH   1   6
ATOM      3  C   UNL     1      45.081   4.446  11.120  0.00  0.00    +0.000 A 
ATOM      4  C   UNL     1      45.682   5.699  10.939  0.00  0.00    +0.000 A 
ATOM      5  C   UNL     1      46.527   6.218  11.926  0.00  0.00    +0.000 A 
ATOM      6  C   UNL     1      46.768   5.488  13.093  0.00  0.00    +0.000 A 
ATOM      7  C   UNL     1      46.163   4.243  13.277  0.00  0.00    +0.000 A 
ATOM      8  C   UNL     1      45.314   3.726  12.296  0.00  0.00    +0.000 A 
BRANCH   3  10
ATOM      9  N   UNL     1      43.998   4.565   8.947  0.00  0.00    +0.000 N 
ATOM     10  C   UNL     1      44.180   3.854  10.099  0.00  0.00    +0.000 C 
ATOM     11  O   UNL     1      43.658   2.757  10.256  0.00  0.00    +0.000 OA
ATOM     12  H   UNL     1      43.493   4.092   8.207  0.00  0.00    +0.000 HD
ATOM     13  H   UNL     1      44.609   5.325   8.684  0.00  0.00    +0.000 HD
ENDBRANCH   3  10
ENDBRANCH   1   6
BRANCH   2  14
ATOM     14  C   UNL     1      49.143   6.902  16.069  0.00  0.00    +0.000 A 
ATOM     15  C   UNL     1      50.170   7.805  15.813  0.00  0.00    +0.000 A 
ATOM     16  C   UNL     1      50.957   8.268  16.862  0.00  0.00    +0.000 A 
ATOM     17  C   UNL     1      50.707   7.834  18.168  0.00  0.00    +0.000 A 
ATOM     18  C   UNL     1      49.679   6.925  18.457  0.00  0.00    +0.000 A 
ATOM     19  C   UNL     1      48.908   6.466  17.376  0.00  0.00    +0.000 A 
BRANCH  18  20
ATOM     20  N   UNL     1      49.412   6.500  19.744  0.00  0.00    +0.000 N 
ATOM     21  C   UNL     1      49.947   5.247  20.289  0.00  0.00    +0.000 C 
ATOM     22  C   UNL     1      48.811   4.296  20.721  0.00  0.00    +0.000 C 
ATOM     23  N   UNL     1      47.822   4.927  21.623  0.00  0.00    +0.000 NA
ATOM     24  C   UNL     1      47.282   6.132  20.956  0.00  0.00    +0.000 C 
ATOM     25  C   UNL     1      48.365   7.155  20.541  0.00  0.00    +0.000 C 
ATOM     26  H   UNL     1      48.316   5.233  22.461  0.00  0.00    +0.000 HD
ENDBRANCH  18  20
ENDBRANCH   2  14
TORSDOF 4
ENDMDL
MODEL 3
REMARK VINA RESULT:    -5.932      5.455      9.398
REMARK INTER + INTRA:          -7.793
REMARK INTER:                  -7.310
REMARK INTRA:                  -0.483
REMARK UNBOUND:                -0.474
REMARK  Name = 
REMARK  4 active torsions:
REMARK  status: ('A' for Active; 'I' for Inactive)
REMARK    1  A    between atoms: C_2  and  C_4
REMARK    2  A    between atoms: C_7  and  C_8
REMARK    3  A    between atoms: C_9  and  C_10
REMARK    4  A    between atoms: C_14  and  N_15
REMARK                            x       y       z     vdW  Elec       q    Type
REMARK                         _______ _______ _______ _____ _____    ______ ____
ROOT
ATOM      1  C   UNL     1      45.901   3.503   8.543  0.00  0.00    +0.000 C 
ATOM      2  C   UNL     1      45.585   4.168   9.489  0.00  0.00    +0.000 C 
ENDROOT
BRANCH   1   6
ATOM      3  C   UNL     1      46.915   1.032   5.264  0.00  0.00    +0.000 A 
ATOM      4  C   UNL     1      46.627   2.387   5.052  0.00  0.00    +0.000 A 
ATOM      5  C   UNL     1      46.295   3.208   6.135  0.00  0.00    +0.000 A 
ATOM      6  C   UNL     1      46.249   2.677   7.427  0.00  0.00    +0.000 A 
ATOM      7  C   UNL     1      46.530   1.324   7.637  0.00  0.00    +0.000 A 
ATOM      8  C   UNL     1      46.854   0.501   6.557  0.00  0.00    +0.000 A 
BRANCH   3  10
ATOM      9  N   UNL     1      47.068  -1.213   4.343  0.00  0.00    +0.000 N 
ATOM     10  C   UNL     1      47.275   0.123   4.146  0.00  0.00    +0.000 C 
ATOM     11  O   UNL     1      47.693   0.549   3.077  0.00  0.00    +0.000 OA
ATOM     12  H   UNL     1      47.188  -1.806   3.531  0.00  0.00    +0.000 HD
ATOM     13  H   UNL     1      46.489  -1.561   5.094  0.00  0.00    +0.000 HD
ENDBRANCH   3  10
ENDBRANCH   1   6
BRANCH   2  14
ATOM     14  C   UNL     1      45.190   4.940  10.628  0.00  0.00    +0.000 A 
ATOM     15  C   UNL     1      43.996   4.655  11.285  0.00  0.00    +0.000 A 
ATOM     16  C   UNL     1      43.625   5.405  12.396  0.00  0.00    +0.000 A 
ATOM     17  C   UNL     1      44.458   6.432  12.855  0.00  0.00    +0.000 A 
ATOM     18  C   UNL     1      45.666   6.742  12.215  0.00  0.00    +0.000 A 
ATOM     19  C   UNL     1      46.008   5.976  11.089  0.00  0.00    +0.000 A 
BRANCH  18  20
ATOM     20  N   UNL     1      46.503   7.743  12.667  0.00  0.00    +0.000 N 
ATOM     21  C   UNL     1      46.037   9.115  12.904  0.00  0.00    +0.000 C 
ATOM     22  C   UNL     1      46.811  10.125  12.031  0.00  0.00    +0.000 C 
ATOM     23  N   UNL     1      48.281  10.000  12.142  0.00  0.00    +0.000 NA
ATOM     24  C   UNL     1      48.660   8.610  11.808  0.00  0.00    +0.000 C 
ATOM     25  C   UNL     1      47.959   7.544  12.683  0.00  0.00    +0.000 C 
ATOM     26  H   UNL     1      48.534  10.164  13.116  0.00  0.00    +0.000 HD
ENDBRANCH  18  20
ENDBRANCH   2  14
TORSDOF 4
ENDMDL
MODEL 4
REMARK VINA RESULT:    -5.874      3.570      9.771
REMARK INTER + INTRA:          -7.721
REMARK INTER:                  -7.235
REMARK INTRA:                  -0.486
REMARK UNBOUND:                -0.474
REMARK  Name = 
REMARK  4 active torsions:
REMARK  status: ('A' for Active; 'I' for Inactive)
REMARK    1  A    between atoms: C_2  and  C_4
REMARK    2  A    between atoms: C_7  and  C_8
REMARK    3  A    between atoms: C_9  and  C_10
REMARK    4  A    between atoms: C_14  and  N_15
REMARK                            x       y       z     vdW  Elec       q    Type
REMARK                         _______ _______ _______ _____ _____    ______ ____
ROOT
ATOM      1  C   UNL     1      46.836   4.589  14.747  0.00  0.00    +0.000 C 
ATOM      2  C   UNL     1      47.234   4.530  15.876  0.00  0.00    +0.000 C 
ENDROOT
BRANCH   1   6
ATOM      3  C   UNL     1      45.533   4.748  10.727  0.00  0.00    +0.000 A 
ATOM      4  C   UNL     1      46.135   5.872  11.309  0.00  0.00    +0.000 A 
ATOM      5  C   UNL     1      46.571   5.821  12.638  0.00  0.00    +0.000 A 
ATOM      6  C   UNL     1      46.404   4.651  13.384  0.00  0.00    +0.000 A 
ATOM      7  C   UNL     1      45.798   3.534  12.804  0.00  0.00    +0.000 A 
ATOM      8  C   UNL     1      45.355   3.584  11.481  0.00  0.00    +0.000 A 
BRANCH   3  10
ATOM      9  N   UNL     1      43.726   4.529   9.116  0.00  0.00    +0.000 N 
ATOM     10  C   UNL     1      45.058   4.755   9.320  0.00  0.00    +0.000 C 
ATOM     11  O   UNL     1      45.810   4.998   8.386  0.00  0.00    +0.000 OA
ATOM     12  H   UNL     1      43.391   4.669   8.170  0.00  0.00    +0.000 HD
ATOM     13  H   UNL     1      43.051   4.590   9.864  0.00  0.00    +0.000 HD
ENDBRANCH   3  10
ENDBRANCH   1   6
BRANCH   2  14
ATOM     14  C   UNL     1      47.737   4.458  17.215  0.00  0.00    +0.000 A 
ATOM     15  C   UNL     1      48.049   3.224  17.778  0.00  0.00    +0.000 A 
ATOM     16  C   UNL     1      48.546   3.165  19.075  0.00  0.00    +0.000 A 
ATOM     17  C   UNL     1      48.740   4.344  19.804  0.00  0.00    +0.000 A 
ATOM     18  C   UNL     1      48.435   5.601  19.263  0.00  0.00    +0.000 A 
ATOM     19  C   UNL     1      47.924   5.629  17.956  0.00  0.00    +0.000 A 
BRANCH  18  20
ATOM     20  N   UNL     1      48.636   6.773  19.967  0.00  0.00    +0.000 N 
ATOM     21  C   UNL     1      48.342   6.895  21.399  0.00  0.00    +0.000 C 
ATOM     22  C   UNL     1      47.292   7.995  21.662  0.00  0.00    +0.000 C 
ATOM     23  N   UNL     1      47.630   9.296  21.042  0.00  0.00    +0.000 NA
ATOM     24  C   UNL     1      47.829   9.086  19.591  0.00  0.00    +0.000 C 
ATOM     25  C   UNL     1      48.907   8.030  19.255  0.00  0.00    +0.000 C 
ATOM     26  H   UNL     1      48.520   9.606  21.434  0.00  0.00    +0.000 HD
ENDBRANCH  18  20
ENDBRANCH   2  14
TORSDOF 4
ENDMDL
MODEL 5
REMARK VINA RESULT:    -5.873      2.143      3.390
REMARK INTER + INTRA:          -7.720
REMARK INTER:                  -7.225
REMARK INTRA:                  -0.494
REMARK UNBOUND:                -0.474
REMARK  Name = 
REMARK  4 active torsions:
REMARK  status: ('A' for Active; 'I' for Inactive)
REMARK    1  A    between atoms: C_2  and  C_4
REMARK    2  A    between atoms: C_7  and  C_8
REMARK    3  A    between atoms: C_9  and  C_10
REMARK    4  A    between atoms: C_14  and  N_15
REMARK                            x       y       z     vdW  Elec       q    Type
REMARK                         _______ _______ _______ _____ _____    ______ ____
ROOT
ATOM      1  C   UNL     1      48.532   5.746  16.134  0.00  0.00    +0.000 C 
ATOM      2  C   UNL     1      48.070   5.919  15.041  0.00  0.00    +0.000 C 
ENDROOT
BRANCH   1   6
ATOM      3  C   UNL     1      50.278   5.244  19.953  0.00  0.00    +0.000 A 
ATOM      4  C   UNL     1      49.002   5.812  19.840  0.00  0.00    +0.000 A 
ATOM      5  C   UNL     1      48.419   5.976  18.578  0.00  0.00    +0.000 A 
ATOM      6  C   UNL     1      49.111   5.575  17.432  0.00  0.00    +0.000 A 
ATOM      7  C   UNL     1      50.387   5.016  17.545  0.00  0.00    +0.000 A 
ATOM      8  C   UNL     1      50.973   4.858  18.802  0.00  0.00    +0.000 A 
BRANCH   3  10
ATOM      9  N   UNL     1      52.058   4.271  21.293  0.00  0.00    +0.000 N 
ATOM     10  C   UNL     1      50.935   5.048  21.270  0.00  0.00    +0.000 C 
ATOM     11  O   UNL     1      50.521   5.595  22.285  0.00  0.00    +0.000 OA
ATOM     12  H   UNL     1      52.570   4.255  22.167  0.00  0.00    +0.000 HD
ATOM     13  H   UNL     1      52.562   4.032  20.451  0.00  0.00    +0.000 HD
ENDBRANCH   3  10
ENDBRANCH   1   6
BRANCH   2  14
ATOM     14  C   UNL     1      47.539   6.146  13.731  0.00  0.00    +0.000 A 
ATOM     15  C   UNL     1      48.172   7.034  12.866  0.00  0.00    +0.000 A 
ATOM     16  C   UNL     1      47.654   7.241  11.592  0.00  0.00    +0.000 A 
ATOM     17  C   UNL     1      46.509   6.550  11.182  0.00  0.00    +0.000 A 
ATOM     18  C   UNL     1      45.850   5.649  12.031  0.00  0.00    +0.000 A 
ATOM     19  C   UNL     1      46.389   5.469  13.316  0.00  0.00    +0.000 A 
BRANCH  18  20
ATOM     20  N   UNL     1      44.728   4.949  11.634  0.00  0.00    +0.000 N 
ATOM     21  C   UNL     1      43.733   4.444  12.587  0.00  0.00    +0.000 C 
ATOM     22  C   UNL     1      43.597   2.910  12.492  0.00  0.00    +0.000 C 
ATOM     23  N   UNL     1      43.359   2.421  11.116  0.00  0.00    +0.000 NA
ATOM     24  C   UNL     1      44.452   2.912  10.249  0.00  0.00    +0.000 C 
ATOM     25  C   UNL     1      44.612   4.451  10.256  0.00  0.00    +0.000 C 
ATOM     26  H   UNL     1      42.489   2.838  10.783  0.00  0.00    +0.000 HD
ENDBRANCH  18  20
ENDBRANCH   2  14
TORSDOF 4
ENDMDL
MODEL 6
REMARK VINA RESULT:    -5.872      6.163      8.366
REMARK INTER + INTRA:          -7.719
REMARK INTER:                  -7.232
REMARK INTRA:                  -0.487
REMARK UNBOUND:                -0.474
REMARK  Name = 
REMARK  4 active torsions:
REMARK  status: ('A' for Active; 'I' for Inactive)
REMARK    1  A    between atoms: C_2  and  C_4
REMARK    2  A    between atoms: C_7  and  C_8
REMARK    3  A    between atoms: C_9  and  C_10
REMARK    4  A    between atoms: C_14  and  N_15
REMARK                            x       y       z     vdW  Elec       q    Type
REMARK                         _______ _______ _______ _____ _____    ______ ____
ROOT
ATOM      1  C   UNL     1      48.395   7.184  12.044  0.00  0.00    +0.000 C 
ATOM      2  C   UNL     1      49.517   7.566  11.859  0.00  0.00    +0.000 C 
ENDROOT
BRANCH   1   6
ATOM      3  C   UNL     1      44.406   5.866  12.529  0.00  0.00    +0.000 A 
ATOM      4  C   UNL     1      45.451   5.171  13.154  0.00  0.00    +0.000 A 
ATOM      5  C   UNL     1      46.771   5.606  12.999  0.00  0.00    +0.000 A 
ATOM      6  C   UNL     1      47.049   6.733  12.219  0.00  0.00    +0.000 A 
ATOM      7  C   UNL     1      46.007   7.422  11.591  0.00  0.00    +0.000 A 
ATOM      8  C   UNL     1      44.690   6.984  11.739  0.00  0.00    +0.000 A 
BRANCH   3  10
ATOM      9  N   UNL     1      42.090   5.999  11.803  0.00  0.00    +0.000 N 
ATOM     10  C   UNL     1      42.990   5.442  12.668  0.00  0.00    +0.000 C 
ATOM     11  O   UNL     1      42.646   4.598  13.485  0.00  0.00    +0.000 OA
ATOM     12  H   UNL     1      41.157   5.604  11.818  0.00  0.00    +0.000 HD
ATOM     13  H   UNL     1      42.380   6.483  10.966  0.00  0.00    +0.000 HD
ENDBRANCH   3  10
ENDBRANCH   1   6
BRANCH   2  14
ATOM     14  C   UNL     1      50.849   8.028  11.610  0.00  0.00    +0.000 A 
ATOM     15  C   UNL     1      51.511   8.796  12.563  0.00  0.00    +0.000 A 
ATOM     16  C   UNL     1      52.809   9.232  12.315  0.00  0.00    +0.000 A 
ATOM     17  C   UNL     1      53.445   8.887  11.118  0.00  0.00    +0.000 A 
ATOM     18  C   UNL     1      52.804   8.114  10.140  0.00  0.00    +0.000 A 
ATOM     19  C   UNL     1      51.490   7.698  10.412  0.00  0.00    +0.000 A 
BRANCH  18  20
ATOM     20  N   UNL     1      53.426   7.755   8.960  0.00  0.00    +0.000 N 
ATOM     21  C   UNL     1      53.426   8.617   7.773  0.00  0.00    +0.000 C 
ATOM     22  C   UNL     1      52.769   7.909   6.569  0.00  0.00    +0.000 C 
ATOM     23  N   UNL     1      53.328   6.568   6.293  0.00  0.00    +0.000 NA
ATOM     24  C   UNL     1      53.210   5.749   7.520  0.00  0.00    +0.000 C 
ATOM     25  C   UNL     1      53.895   6.376   8.757  0.00  0.00    +0.000 C 
ATOM     26  H   UNL     1      54.321   6.680   6.091  0.00  0.00    +0.000 HD
ENDBRANCH  18  20
ENDBRANCH   2  14
TORSDOF 4
ENDMDL
MODEL 7
REMARK VINA RESULT:    -5.825      5.944      7.960
REMARK INTER + INTRA:          -7.661
REMARK INTER:                  -7.175
REMARK INTRA:                  -0.486
REMARK UNBOUND:                -0.474
REMARK  Name = 
REMARK  4 active torsions:
REMARK  status: ('A' for Active; 'I' for Inactive)
REMARK    1  A    between atoms: C_2  and  C_4
REMARK    2  A    between atoms: C_7  and  C_8
REMARK    3  A    between atoms: C_9  and  C_10
REMARK    4  A    between atoms: C_14  and  N_15
REMARK                            x       y       z     vdW  Elec       q    Type
REMARK                         _______ _______ _______ _____ _____    ______ ____
ROOT
ATOM      1  C   UNL     1      44.438   8.310  11.473  0.00  0.00    +0.000 C 
ATOM      2  C   UNL     1      43.855   9.157  10.855  0.00  0.00    +0.000 C 
ENDROOT
BRANCH   1   6
ATOM      3  C   UNL     1      46.401   5.334  13.747  0.00  0.00    +0.000 A 
ATOM      4  C   UNL     1      47.075   6.519  13.421  0.00  0.00    +0.000 A 
ATOM      5  C   UNL     1      46.427   7.508  12.672  0.00  0.00    +0.000 A 
ATOM      6  C   UNL     1      45.110   7.312  12.248  0.00  0.00    +0.000 A 
ATOM      7  C   UNL     1      44.441   6.127  12.567  0.00  0.00    +0.000 A 
ATOM      8  C   UNL     1      45.088   5.136  13.308  0.00  0.00    +0.000 A 
BRANCH   3  10
ATOM      9  N   UNL     1      47.254   4.508  15.869  0.00  0.00    +0.000 N 
ATOM     10  C   UNL     1      47.048   4.258  14.541  0.00  0.00    +0.000 C 
ATOM     11  O   UNL     1      47.341   3.178  14.046  0.00  0.00    +0.000 OA
ATOM     12  H   UNL     1      47.569   3.723  16.425  0.00  0.00    +0.000 HD
ATOM     13  H   UNL     1      46.791   5.266  16.350  0.00  0.00    +0.000 HD
ENDBRANCH   3  10
ENDBRANCH   1   6
BRANCH   2  14
ATOM     14  C   UNL     1      43.146  10.176  10.143  0.00  0.00    +0.000 A 
ATOM     15  C   UNL     1      43.737  10.806   9.052  0.00  0.00    +0.000 A 
ATOM     16  C   UNL     1      43.036  11.788   8.360  0.00  0.00    +0.000 A 
ATOM     17  C   UNL     1      41.738  12.130   8.756  0.00  0.00    +0.000 A 
ATOM     18  C   UNL     1      41.116  11.512   9.851  0.00  0.00    +0.000 A 
ATOM     19  C   UNL     1      41.853  10.533  10.537  0.00  0.00    +0.000 A 
BRANCH  18  20
ATOM     20  N   UNL     1      39.830  11.830  10.242  0.00  0.00    +0.000 N 
ATOM     21  C   UNL     1      39.358  11.655  11.621  0.00  0.00    +0.000 C 
ATOM     22  C   UNL     1      38.155  10.691  11.680  0.00  0.00    +0.000 C 
ATOM     23  N   UNL     1      37.062  11.050  10.750  0.00  0.00    +0.000 NA
ATOM     24  C   UNL     1      37.616  11.124   9.381  0.00  0.00    +0.000 C 
ATOM     25  C   UNL     1      38.796  12.114   9.237  0.00  0.00    +0.000 C 
ATOM     26  H   UNL     1      36.733  11.983  11.001  0.00  0.00    +0.000 HD
ENDBRANCH  18  20
ENDBRANCH   2  14
TORSDOF 4
ENDMDL
MODEL 8
REMARK VINA RESULT:    -5.594      4.175      4.750
REMARK INTER + INTRA:          -7.376
REMARK INTER:                  -6.884
REMARK INTRA:                  -0.492
REMARK UNBOUND:                -0.474
REMARK  Name = 
REMARK  4 active torsions:
REMARK  status: ('A' for Active; 'I' for Inactive)
REMARK    1  A    between atoms: C_2  and  C_4
REMARK    2  A    between atoms: C_7  and  C_8
REMARK    3  A    between atoms: C_9  and  C_10
REMARK    4  A    between atoms: C_14  and  N_15
REMARK                            x       y       z     vdW  Elec       q    Type
REMARK                         _______ _______ _______ _____ _____    ______ ____
ROOT
ATOM      1  C   UNL     1      46.892   7.436  12.636  0.00  0.00    +0.000 C 
ATOM      2  C   UNL     1      46.148   6.546  12.334  0.00  0.00    +0.000 C 
ENDROOT
BRANCH   1   6
ATOM      3  C   UNL     1      49.524  10.536  13.796  0.00  0.00    +0.000 A 
ATOM      4  C   UNL     1      48.852   9.790  14.774  0.00  0.00    +0.000 A 
ATOM      5  C   UNL     1      47.984   8.761  14.394  0.00  0.00    +0.000 A 
ATOM      6  C   UNL     1      47.785   8.479  13.040  0.00  0.00    +0.000 A 
ATOM      7  C   UNL     1      48.450   9.228  12.065  0.00  0.00    +0.000 A 
ATOM      8  C   UNL     1      49.311  10.260  12.442  0.00  0.00    +0.000 A 
BRANCH   3  10
ATOM      9  N   UNL     1      50.654  11.873  15.483  0.00  0.00    +0.000 N 
ATOM     10  C   UNL     1      50.456  11.636  14.152  0.00  0.00    +0.000 C 
ATOM     11  O   UNL     1      51.060  12.272  13.298  0.00  0.00    +0.000 OA
ATOM     12  H   UNL     1      51.390  12.530  15.713  0.00  0.00    +0.000 HD
ATOM     13  H   UNL     1      50.383  11.207  16.192  0.00  0.00    +0.000 HD
ENDBRANCH   3  10
ENDBRANCH   1   6
BRANCH   2  14
ATOM     14  C   UNL     1      45.261   5.472  12.000  0.00  0.00    +0.000 A 
ATOM     15  C   UNL     1      44.269   5.082  12.894  0.00  0.00    +0.000 A 
ATOM     16  C   UNL     1      43.407   4.044  12.557  0.00  0.00    +0.000 A 
ATOM     17  C   UNL     1      43.532   3.407  11.318  0.00  0.00    +0.000 A 
ATOM     18  C   UNL     1      44.521   3.778  10.395  0.00  0.00    +0.000 A 
ATOM     19  C   UNL     1      45.384   4.821  10.769  0.00  0.00    +0.000 A 
BRANCH  18  20
ATOM     20  N   UNL     1      44.645   3.167   9.163  0.00  0.00    +0.000 N 
ATOM     21  C   UNL     1      44.859   1.722   9.016  0.00  0.00    +0.000 C 
ATOM     22  C   UNL     1      46.177   1.426   8.271  0.00  0.00    +0.000 C 
ATOM     23  N   UNL     1      46.307   2.149   6.987  0.00  0.00    +0.000 NA
ATOM     24  C   UNL     1      46.158   3.598   7.248  0.00  0.00    +0.000 C 
ATOM     25  C   UNL     1      44.831   3.973   7.949  0.00  0.00    +0.000 C 
ATOM     26  H   UNL     1      45.532   1.862   6.388  0.00  0.00    +0.000 HD
ENDBRANCH  18  20
ENDBRANCH   2  14
TORSDOF 4
ENDMDL
MODEL 9
REMARK VINA RESULT:    -5.535      3.372      9.533
REMARK INTER + INTRA:          -7.303
REMARK INTER:                  -6.808
REMARK INTRA:                  -0.494
REMARK UNBOUND:                -0.474
REMARK  Name = 
REMARK  4 active torsions:
REMARK  status: ('A' for Active; 'I' for Inactive)
REMARK    1  A    between atoms: C_2  and  C_4
REMARK    2  A    between atoms: C_7  and  C_8
REMARK    3  A    between atoms: C_9  and  C_10
REMARK    4  A    between atoms: C_14  and  N_15
REMARK                            x       y       z     vdW  Elec       q    Type
REMARK                         _______ _______ _______ _____ _____    ______ ____
ROOT
ATOM      1  C   UNL     1      47.875   6.421  13.751  0.00  0.00    +0.000 C 
ATOM      2  C   UNL     1      48.697   6.920  14.467  0.00  0.00    +0.000 C 
ENDROOT
BRANCH   1   6
ATOM      3  C   UNL     1      45.004   4.561  11.264  0.00  0.00    +0.000 A 
ATOM      4  C   UNL     1      45.391   3.946  12.463  0.00  0.00    +0.000 A 
ATOM      5  C   UNL     1      46.337   4.561  13.290  0.00  0.00    +0.000 A 
ATOM      6  C   UNL     1      46.898   5.786  12.919  0.00  0.00    +0.000 A 
ATOM      7  C   UNL     1      46.518   6.395  11.721  0.00  0.00    +0.000 A 
ATOM      8  C   UNL     1      45.579   5.780  10.890  0.00  0.00    +0.000 A 
BRANCH   3  10
ATOM      9  N   UNL     1      43.972   4.402   9.069  0.00  0.00    +0.000 N 
ATOM     10  C   UNL     1      44.002   3.948  10.357  0.00  0.00    +0.000 C 
ATOM     11  O   UNL     1      43.265   3.043  10.726  0.00  0.00    +0.000 OA
ATOM     12  H   UNL     1      43.381   3.886   8.428  0.00  0.00    +0.000 HD
ATOM     13  H   UNL     1      44.728   4.944   8.674  0.00  0.00    +0.000 HD
ENDBRANCH   3  10
ENDBRANCH   1   6
BRANCH   2  14
ATOM     14  C   UNL     1      49.681   7.490  15.337  0.00  0.00    +0.000 A 
ATOM     15  C   UNL     1      50.022   8.834  15.219  0.00  0.00    +0.000 A 
ATOM     16  C   UNL     1      50.973   9.381  16.075  0.00  0.00    +0.000 A 
ATOM     17  C   UNL     1      51.572   8.582  17.055  0.00  0.00    +0.000 A 
ATOM     18  C   UNL     1      51.249   7.225  17.198  0.00  0.00    +0.000 A 
ATOM     19  C   UNL     1      50.294   6.698  16.312  0.00  0.00    +0.000 A 
BRANCH  18  20
ATOM     20  N   UNL     1      51.823   6.430  18.170  0.00  0.00    +0.000 N 
ATOM     21  C   UNL     1      52.721   5.314  17.850  0.00  0.00    +0.000 C 
ATOM     22  C   UNL     1      52.165   3.978  18.385  0.00  0.00    +0.000 C 
ATOM     23  N   UNL     1      51.804   4.019  19.819  0.00  0.00    +0.000 NA
ATOM     24  C   UNL     1      50.838   5.119  20.029  0.00  0.00    +0.000 C 
ATOM     25  C   UNL     1      51.353   6.500  19.561  0.00  0.00    +0.000 C 
ATOM     26  H   UNL     1      52.649   4.245  20.346  0.00  0.00    +0.000 HD
ENDBRANCH  18  20
ENDBRANCH   2  14
TORSDOF 4
ENDMDL
