MODEL 1
REMARK VINA RESULT:    -8.389      0.000      0.000
REMARK INTER + INTRA:         -11.825
REMARK INTER:                 -10.841
REMARK INTRA:                  -0.984
REMARK UNBOUND:                -0.984
REMARK  Name = 
REMARK  5 active torsions:
REMARK  status: ('A' for Active; 'I' for Inactive)
REMARK    1  A    between atoms: C_6  and  C_7
REMARK    2  A    between atoms: C_7  and  C_8
REMARK    3  A    between atoms: C_11  and  C_12
REMARK    4  A    between atoms: C_12  and  N_13
REMARK    5  A    between atoms: C_14  and  C_16
REMARK                            x       y       z     vdW  Elec       q    Type
REMARK                         _______ _______ _______ _____ _____    ______ ____
ROOT
ATOM      1  C   UNL     1      44.813   5.154  10.576  0.00  0.00    +0.000 A 
ATOM      2  C   UNL     1      44.316   5.380  11.868  0.00  0.00    +0.000 A 
ATOM      3  C   UNL     1      44.965   6.259  12.740  0.00  0.00    +0.000 A 
ATOM      4  C   UNL     1      46.130   6.926  12.340  0.00  0.00    +0.000 A 
ATOM      5  C   UNL     1      46.673   6.634  11.081  0.00  0.00    +0.000 A 
ATOM      6  C   UNL     1      46.015   5.767  10.202  0.00  0.00    +0.000 A 
ENDROOT
BRANCH   1   7
ATOM      7  C   UNL     1      44.044   4.297   9.593  0.00  0.00    +0.000 C 
BRANCH   7  13
ATOM      8  N   UNL     1      46.982   3.781   5.854  0.00  0.00    +0.000 N 
ATOM      9  C   UNL     1      46.346   3.171   6.934  0.00  0.00    +0.000 A 
ATOM     10  C   UNL     1      46.653   1.863   7.274  0.00  0.00    +0.000 A 
ATOM     11  C   UNL     1      46.018   1.291   8.368  0.00  0.00    +0.000 A 
ATOM     12  C   UNL     1      45.125   2.056   9.109  0.00  0.00    +0.000 A 
ATOM     13  C   UNL     1      44.893   3.380   8.732  0.00  0.00    +0.000 A 
ATOM     14  N   UNL     1      45.494   3.933   7.645  0.00  0.00    +0.000 NA
ATOM     15  H   UNL     1      46.926   3.215   5.015  0.00  0.00    +0.000 HD
ATOM     16  H   UNL     1      46.552   4.693   5.734  0.00  0.00    +0.000 HD
ENDBRANCH   7  13
ENDBRANCH   1   7
BRANCH   4  17
ATOM     17  C   UNL     1      46.796   7.939  13.237  0.00  0.00    +0.000 C 
BRANCH  17  18
ATOM     18  N   UNL     1      47.295   7.343  14.449  0.00  0.00    +0.000 N 
ATOM     19  C   UNL     1      48.543   6.771  14.498  0.00  0.00    +0.000 C 
ATOM     20  O   UNL     1      49.303   6.792  13.532  0.00  0.00    +0.000 OA
ATOM     21  H   UNL     1      46.606   7.087  15.153  0.00  0.00    +0.000 HD
BRANCH  19  22
ATOM     22  C   UNL     1      48.951   6.190  15.779  0.00  0.00    +0.000 A 
ATOM     23  C   UNL     1      50.016   6.736  16.481  0.00  0.00    +0.000 A 
ATOM     24  S   UNL     1      50.335   5.950  17.960  0.00  0.00    +0.000 S 
ATOM     25  C   UNL     1      49.091   4.822  17.695  0.00  0.00    +0.000 A 
ATOM     26  N   UNL     1      48.849   3.824  18.584  0.00  0.00    +0.000 NA
ATOM     27  C   UNL     1      47.892   3.022  18.244  0.00  0.00    +0.000 A 
ATOM     28  N   UNL     1      47.151   3.142  17.094  0.00  0.00    +0.000 N 
ATOM     29  C   UNL     1      47.335   4.153  16.183  0.00  0.00    +0.000 A 
ATOM     30  O   UNL     1      46.623   4.259  15.192  0.00  0.00    +0.000 OA
ATOM     31  C   UNL     1      48.416   5.062  16.504  0.00  0.00    +0.000 A 
ATOM     32  H   UNL     1      46.403   2.493  16.893  0.00  0.00    +0.000 HD
ENDBRANCH  19  22
ENDBRANCH  17  18
ENDBRANCH   4  17
TORSDOF 5
ENDMDL
MODEL 2
REMARK VINA RESULT:    -7.612      1.851      2.241
REMARK INTER + INTRA:         -10.822
REMARK INTER:                  -9.871
REMARK INTRA:                  -0.951
REMARK UNBOUND:                -0.984
REMARK  Name = 
REMARK  5 active torsions:
REMARK  status: ('A' for Active; 'I' for Inactive)
REMARK    1  A    between atoms: C_6  and  C_7
REMARK    2  A    between atoms: C_7  and  C_8
REMARK    3  A    between atoms: C_11  and  C_12
REMARK    4  A    between atoms: C_12  and  N_13
REMARK    5  A    between atoms: C_14  and  C_16
REMARK                            x       y       z     vdW  Elec       q    Type
REMARK                         _______ _______ _______ _____ _____    ______ ____
ROOT
ATOM      1  C   UNL     1      45.375   5.451  11.400  0.00  0.00    +0.000 A 
ATOM      2  C   UNL     1      46.054   6.634  11.073  0.00  0.00    +0.000 A 
ATOM      3  C   UNL     1      47.079   7.119  11.891  0.00  0.00    +0.000 A 
ATOM      4  C   UNL     1      47.442   6.434  13.058  0.00  0.00    +0.000 A 
ATOM      5  C   UNL     1      46.706   5.299  13.427  0.00  0.00    +0.000 A 
ATOM      6  C   UNL     1      45.692   4.805  12.601  0.00  0.00    +0.000 A 
ENDROOT
BRANCH   1   7
ATOM      7  C   UNL     1      44.350   4.863  10.453  0.00  0.00    +0.000 C 
BRANCH   7  13
ATOM      8  N   UNL     1      47.059   4.040   6.597  0.00  0.00    +0.000 N 
ATOM      9  C   UNL     1      46.250   3.499   7.595  0.00  0.00    +0.000 A 
ATOM     10  C   UNL     1      46.141   2.124   7.732  0.00  0.00    +0.000 A 
ATOM     11  C   UNL     1      45.344   1.616   8.749  0.00  0.00    +0.000 A 
ATOM     12  C   UNL     1      44.712   2.497   9.618  0.00  0.00    +0.000 A 
ATOM     13  C   UNL     1      44.897   3.869   9.445  0.00  0.00    +0.000 A 
ATOM     14  N   UNL     1      45.656   4.369   8.433  0.00  0.00    +0.000 NA
ATOM     15  H   UNL     1      46.850   3.647   5.688  0.00  0.00    +0.000 HD
ATOM     16  H   UNL     1      46.928   5.046   6.624  0.00  0.00    +0.000 HD
ENDBRANCH   7  13
ENDBRANCH   1   7
BRANCH   4  17
ATOM     17  C   UNL     1      48.600   6.898  13.906  0.00  0.00    +0.000 C 
BRANCH  17  18
ATOM     18  N   UNL     1      48.333   6.750  15.313  0.00  0.00    +0.000 N 
ATOM     19  C   UNL     1      48.920   7.579  16.238  0.00  0.00    +0.000 C 
ATOM     20  O   UNL     1      49.648   8.510  15.902  0.00  0.00    +0.000 OA
ATOM     21  H   UNL     1      47.961   5.854  15.619  0.00  0.00    +0.000 HD
BRANCH  19  22
ATOM     22  C   UNL     1      48.583   7.339  17.644  0.00  0.00    +0.000 A 
ATOM     23  C   UNL     1      48.051   8.363  18.414  0.00  0.00    +0.000 A 
ATOM     24  S   UNL     1      47.697   7.899  20.017  0.00  0.00    +0.000 S 
ATOM     25  C   UNL     1      48.286   6.326  19.753  0.00  0.00    +0.000 A 
ATOM     26  N   UNL     1      48.308   5.410  20.754  0.00  0.00    +0.000 NA
ATOM     27  C   UNL     1      48.806   4.262  20.422  0.00  0.00    +0.000 A 
ATOM     28  N   UNL     1      49.275   3.954  19.168  0.00  0.00    +0.000 N 
ATOM     29  C   UNL     1      49.242   4.836  18.115  0.00  0.00    +0.000 A 
ATOM     30  O   UNL     1      49.622   4.512  16.997  0.00  0.00    +0.000 OA
ATOM     31  C   UNL     1      48.718   6.146  18.444  0.00  0.00    +0.000 A 
ATOM     32  H   UNL     1      49.636   3.033  18.965  0.00  0.00    +0.000 HD
ENDBRANCH  19  22
ENDBRANCH  17  18
ENDBRANCH   4  17
TORSDOF 5
ENDMDL
MODEL 3
REMARK VINA RESULT:    -7.470      4.027      9.042
REMARK INTER + INTRA:         -10.638
REMARK INTER:                 -10.061
REMARK INTRA:                  -0.577
REMARK UNBOUND:                -0.984
REMARK  Name = 
REMARK  5 active torsions:
REMARK  status: ('A' for Active; 'I' for Inactive)
REMARK    1  A    between atoms: C_6  and  C_7
REMARK    2  A    between atoms: C_7  and  C_8
REMARK    3  A    between atoms: C_11  and  C_12
REMARK    4  A    between atoms: C_12  and  N_13
REMARK    5  A    between atoms: C_14  and  C_16
REMARK                            x       y       z     vdW  Elec       q    Type
REMARK                         _______ _______ _______ _____ _____    ______ ____
ROOT
ATOM      1  C   UNL     1      51.468   3.364  18.086  0.00  0.00    +0.000 A 
ATOM      2  C   UNL     1      50.881   2.342  17.324  0.00  0.00    +0.000 A 
ATOM      3  C   UNL     1      49.521   2.381  17.004  0.00  0.00    +0.000 A 
ATOM      4  C   UNL     1      48.716   3.439  17.445  0.00  0.00    +0.000 A 
ATOM      5  C   UNL     1      49.285   4.414  18.278  0.00  0.00    +0.000 A 
ATOM      6  C   UNL     1      50.649   4.384  18.584  0.00  0.00    +0.000 A 
ENDROOT
BRANCH   1   7
ATOM      7  C   UNL     1      52.962   3.384  18.329  0.00  0.00    +0.000 C 
BRANCH   7  13
ATOM      8  N   UNL     1      53.322  -1.357  18.854  0.00  0.00    +0.000 N 
ATOM      9  C   UNL     1      53.812  -0.209  18.235  0.00  0.00    +0.000 A 
ATOM     10  C   UNL     1      54.770  -0.311  17.238  0.00  0.00    +0.000 A 
ATOM     11  C   UNL     1      55.223   0.849  16.625  0.00  0.00    +0.000 A 
ATOM     12  C   UNL     1      54.679   2.071  17.004  0.00  0.00    +0.000 A 
ATOM     13  C   UNL     1      53.690   2.096  17.988  0.00  0.00    +0.000 A 
ATOM     14  N   UNL     1      53.264   0.963  18.607  0.00  0.00    +0.000 NA
ATOM     15  H   UNL     1      54.069  -1.951  19.193  0.00  0.00    +0.000 HD
ATOM     16  H   UNL     1      52.704  -1.050  19.599  0.00  0.00    +0.000 HD
ENDBRANCH   7  13
ENDBRANCH   1   7
BRANCH   4  17
ATOM     17  C   UNL     1      47.268   3.539  17.040  0.00  0.00    +0.000 C 
BRANCH  17  18
ATOM     18  N   UNL     1      47.053   4.553  16.041  0.00  0.00    +0.000 N 
ATOM     19  C   UNL     1      47.129   4.258  14.701  0.00  0.00    +0.000 C 
ATOM     20  O   UNL     1      47.325   3.113  14.301  0.00  0.00    +0.000 OA
ATOM     21  H   UNL     1      47.152   5.521  16.340  0.00  0.00    +0.000 HD
BRANCH  19  22
ATOM     22  C   UNL     1      46.899   5.366  13.770  0.00  0.00    +0.000 A 
ATOM     23  C   UNL     1      47.909   6.283  13.520  0.00  0.00    +0.000 A 
ATOM     24  S   UNL     1      47.476   7.488  12.395  0.00  0.00    +0.000 S 
ATOM     25  C   UNL     1      45.906   6.856  12.235  0.00  0.00    +0.000 A 
ATOM     26  N   UNL     1      44.988   7.454  11.433  0.00  0.00    +0.000 NA
ATOM     27  C   UNL     1      43.827   6.882  11.426  0.00  0.00    +0.000 A 
ATOM     28  N   UNL     1      43.512   5.757  12.147  0.00  0.00    +0.000 N 
ATOM     29  C   UNL     1      44.415   5.097  12.944  0.00  0.00    +0.000 A 
ATOM     30  O   UNL     1      44.115   4.068  13.535  0.00  0.00    +0.000 OA
ATOM     31  C   UNL     1      45.724   5.715  13.008  0.00  0.00    +0.000 A 
ATOM     32  H   UNL     1      42.591   5.346  12.086  0.00  0.00    +0.000 HD
ENDBRANCH  19  22
ENDBRANCH  17  18
ENDBRANCH   4  17
TORSDOF 5
ENDMDL
MODEL 4
REMARK VINA RESULT:    -7.288      2.076      2.696
REMARK INTER + INTRA:         -10.403
REMARK INTER:                  -9.581
REMARK INTRA:                  -0.822
REMARK UNBOUND:                -0.984
REMARK  Name = 
REMARK  5 active torsions:
REMARK  status: ('A' for Active; 'I' for Inactive)
REMARK    1  A    between atoms: C_6  and  C_7
REMARK    2  A    between atoms: C_7  and  C_8
REMARK    3  A    between atoms: C_11  and  C_12
REMARK    4  A    between atoms: C_12  and  N_13
REMARK    5  A    between atoms: C_14  and  C_16
REMARK                            x       y       z     vdW  Elec       q    Type
REMARK                         _______ _______ _______ _____ _____    ______ ____
ROOT
ATOM      1  C   UNL     1      45.041   5.539  11.317  0.00  0.00    +0.000 A 
ATOM      2  C   UNL     1      45.238   6.927  11.361  0.00  0.00    +0.000 A 
ATOM      3  C   UNL     1      46.179   7.489  12.228  0.00  0.00    +0.000 A 
ATOM      4  C   UNL     1      46.940   6.673  13.076  0.00  0.00    +0.000 A 
ATOM      5  C   UNL     1      46.683   5.295  13.092  0.00  0.00    +0.000 A 
ATOM      6  C   UNL     1      45.753   4.732  12.213  0.00  0.00    +0.000 A 
ENDROOT
BRANCH   1   7
ATOM      7  C   UNL     1      44.110   4.923  10.294  0.00  0.00    +0.000 C 
BRANCH   7  13
ATOM      8  N   UNL     1      47.089   4.034   6.659  0.00  0.00    +0.000 N 
ATOM      9  C   UNL     1      46.232   3.508   7.624  0.00  0.00    +0.000 A 
ATOM     10  C   UNL     1      46.154   2.137   7.811  0.00  0.00    +0.000 A 
ATOM     11  C   UNL     1      45.307   1.644   8.794  0.00  0.00    +0.000 A 
ATOM     12  C   UNL     1      44.593   2.539   9.583  0.00  0.00    +0.000 A 
ATOM     13  C   UNL     1      44.750   3.908   9.365  0.00  0.00    +0.000 A 
ATOM     14  N   UNL     1      45.560   4.391   8.385  0.00  0.00    +0.000 NA
ATOM     15  H   UNL     1      46.951   3.599   5.755  0.00  0.00    +0.000 HD
ATOM     16  H   UNL     1      46.927   5.036   6.635  0.00  0.00    +0.000 HD
ENDBRANCH   7  13
ENDBRANCH   1   7
BRANCH   4  17
ATOM     17  C   UNL     1      48.017   7.255  13.957  0.00  0.00    +0.000 C 
BRANCH  17  18
ATOM     18  N   UNL     1      48.002   6.684  15.279  0.00  0.00    +0.000 N 
ATOM     19  C   UNL     1      49.171   6.400  15.943  0.00  0.00    +0.000 C 
ATOM     20  O   UNL     1      50.270   6.670  15.464  0.00  0.00    +0.000 OA
ATOM     21  H   UNL     1      47.144   6.224  15.571  0.00  0.00    +0.000 HD
BRANCH  19  22
ATOM     22  C   UNL     1      49.042   5.817  17.281  0.00  0.00    +0.000 A 
ATOM     23  C   UNL     1      48.795   4.459  17.425  0.00  0.00    +0.000 A 
ATOM     24  S   UNL     1      48.699   3.951  19.050  0.00  0.00    +0.000 S 
ATOM     25  C   UNL     1      48.937   5.535  19.620  0.00  0.00    +0.000 A 
ATOM     26  N   UNL     1      48.926   5.809  20.949  0.00  0.00    +0.000 NA
ATOM     27  C   UNL     1      49.094   7.059  21.242  0.00  0.00    +0.000 A 
ATOM     28  N   UNL     1      49.279   8.054  20.314  0.00  0.00    +0.000 N 
ATOM     29  C   UNL     1      49.332   7.821  18.961  0.00  0.00    +0.000 A 
ATOM     30  O   UNL     1      49.548   8.725  18.164  0.00  0.00    +0.000 OA
ATOM     31  C   UNL     1      49.121   6.439  18.581  0.00  0.00    +0.000 A 
ATOM     32  H   UNL     1      49.422   9.011  20.605  0.00  0.00    +0.000 HD
ENDBRANCH  19  22
ENDBRANCH  17  18
ENDBRANCH   4  17
TORSDOF 5
ENDMDL
MODEL 5
REMARK VINA RESULT:    -7.067      3.397      8.359
REMARK INTER + INTRA:         -10.117
REMARK INTER:                  -9.058
REMARK INTRA:                  -1.059
REMARK UNBOUND:                -0.984
REMARK  Name = 
REMARK  5 active torsions:
REMARK  status: ('A' for Active; 'I' for Inactive)
REMARK    1  A    between atoms: C_6  and  C_7
REMARK    2  A    between atoms: C_7  and  C_8
REMARK    3  A    between atoms: C_11  and  C_12
REMARK    4  A    between atoms: C_12  and  N_13
REMARK    5  A    between atoms: C_14  and  C_16
REMARK                            x       y       z     vdW  Elec       q    Type
REMARK                         _______ _______ _______ _____ _____    ______ ____
ROOT
ATOM      1  C   UNL     1      49.550   5.389  17.178  0.00  0.00    +0.000 A 
ATOM      2  C   UNL     1      48.328   5.017  16.596  0.00  0.00    +0.000 A 
ATOM      3  C   UNL     1      47.889   5.618  15.413  0.00  0.00    +0.000 A 
ATOM      4  C   UNL     1      48.659   6.609  14.789  0.00  0.00    +0.000 A 
ATOM      5  C   UNL     1      49.836   7.039  15.417  0.00  0.00    +0.000 A 
ATOM      6  C   UNL     1      50.284   6.427  16.592  0.00  0.00    +0.000 A 
ENDROOT
BRANCH   1   7
ATOM      7  C   UNL     1      50.081   4.654  18.390  0.00  0.00    +0.000 C 
BRANCH   7  13
ATOM      8  N   UNL     1      54.448   2.790  18.974  0.00  0.00    +0.000 N 
ATOM      9  C   UNL     1      53.176   2.639  18.424  0.00  0.00    +0.000 A 
ATOM     10  C   UNL     1      52.816   1.444  17.820  0.00  0.00    +0.000 A 
ATOM     11  C   UNL     1      51.535   1.317  17.301  0.00  0.00    +0.000 A 
ATOM     12  C   UNL     1      50.643   2.375  17.435  0.00  0.00    +0.000 A 
ATOM     13  C   UNL     1      51.060   3.534  18.089  0.00  0.00    +0.000 A 
ATOM     14  N   UNL     1      52.323   3.670  18.575  0.00  0.00    +0.000 NA
ATOM     15  H   UNL     1      55.175   2.537  18.316  0.00  0.00    +0.000 HD
ATOM     16  H   UNL     1      54.523   3.755  19.282  0.00  0.00    +0.000 HD
ENDBRANCH   7  13
ENDBRANCH   1   7
BRANCH   4  17
ATOM     17  C   UNL     1      48.239   7.207  13.470  0.00  0.00    +0.000 C 
BRANCH  17  18
ATOM     18  N   UNL     1      47.501   6.272  12.662  0.00  0.00    +0.000 N 
ATOM     19  C   UNL     1      46.469   6.689  11.856  0.00  0.00    +0.000 C 
ATOM     20  O   UNL     1      46.172   7.877  11.748  0.00  0.00    +0.000 OA
ATOM     21  H   UNL     1      47.552   5.292  12.931  0.00  0.00    +0.000 HD
BRANCH  19  22
ATOM     22  C   UNL     1      45.782   5.654  11.079  0.00  0.00    +0.000 A 
ATOM     23  C   UNL     1      45.848   5.668   9.694  0.00  0.00    +0.000 A 
ATOM     24  S   UNL     1      45.011   4.378   8.956  0.00  0.00    +0.000 S 
ATOM     25  C   UNL     1      44.491   3.780  10.460  0.00  0.00    +0.000 A 
ATOM     26  N   UNL     1      43.687   2.689  10.540  0.00  0.00    +0.000 NA
ATOM     27  C   UNL     1      43.346   2.359  11.744  0.00  0.00    +0.000 A 
ATOM     28  N   UNL     1      43.750   3.026  12.874  0.00  0.00    +0.000 N 
ATOM     29  C   UNL     1      44.590   4.112  12.847  0.00  0.00    +0.000 A 
ATOM     30  O   UNL     1      44.971   4.653  13.877  0.00  0.00    +0.000 OA
ATOM     31  C   UNL     1      44.978   4.538  11.518  0.00  0.00    +0.000 A 
ATOM     32  H   UNL     1      43.464   2.709  13.790  0.00  0.00    +0.000 HD
ENDBRANCH  19  22
ENDBRANCH  17  18
ENDBRANCH   4  17
TORSDOF 5
ENDMDL
MODEL 6
REMARK VINA RESULT:    -7.006      1.921      2.686
REMARK INTER + INTRA:         -10.039
REMARK INTER:                  -8.783
REMARK INTRA:                  -1.256
REMARK UNBOUND:                -0.984
REMARK  Name = 
REMARK  5 active torsions:
REMARK  status: ('A' for Active; 'I' for Inactive)
REMARK    1  A    between atoms: C_6  and  C_7
REMARK    2  A    between atoms: C_7  and  C_8
REMARK    3  A    between atoms: C_11  and  C_12
REMARK    4  A    between atoms: C_12  and  N_13
REMARK    5  A    between atoms: C_14  and  C_16
REMARK                            x       y       z     vdW  Elec       q    Type
REMARK                         _______ _______ _______ _____ _____    ______ ____
ROOT
ATOM      1  C   UNL     1      45.592   7.149  11.460  0.00  0.00    +0.000 A 
ATOM      2  C   UNL     1      46.867   6.578  11.582  0.00  0.00    +0.000 A 
ATOM      3  C   UNL     1      47.775   7.052  12.534  0.00  0.00    +0.000 A 
ATOM      4  C   UNL     1      47.428   8.114  13.380  0.00  0.00    +0.000 A 
ATOM      5  C   UNL     1      46.186   8.739  13.199  0.00  0.00    +0.000 A 
ATOM      6  C   UNL     1      45.272   8.254  12.259  0.00  0.00    +0.000 A 
ENDROOT
BRANCH   1   7
ATOM      7  C   UNL     1      44.569   6.557  10.514  0.00  0.00    +0.000 C 
BRANCH   7  13
ATOM      8  N   UNL     1      43.681   2.239  12.371  0.00  0.00    +0.000 N 
ATOM      9  C   UNL     1      44.146   2.969  11.278  0.00  0.00    +0.000 A 
ATOM     10  C   UNL     1      44.444   2.325  10.087  0.00  0.00    +0.000 A 
ATOM     11  C   UNL     1      44.884   3.082   9.011  0.00  0.00    +0.000 A 
ATOM     12  C   UNL     1      44.978   4.462   9.148  0.00  0.00    +0.000 A 
ATOM     13  C   UNL     1      44.625   5.048  10.364  0.00  0.00    +0.000 A 
ATOM     14  N   UNL     1      44.218   4.305  11.427  0.00  0.00    +0.000 NA
ATOM     15  H   UNL     1      44.281   1.450  12.580  0.00  0.00    +0.000 HD
ATOM     16  H   UNL     1      43.609   2.887  13.149  0.00  0.00    +0.000 HD
ENDBRANCH   7  13
ENDBRANCH   1   7
BRANCH   4  17
ATOM     17  C   UNL     1      48.363   8.582  14.466  0.00  0.00    +0.000 C 
BRANCH  17  18
ATOM     18  N   UNL     1      48.471   7.626  15.537  0.00  0.00    +0.000 N 
ATOM     19  C   UNL     1      49.648   6.960  15.778  0.00  0.00    +0.000 C 
ATOM     20  O   UNL     1      50.667   7.191  15.131  0.00  0.00    +0.000 OA
ATOM     21  H   UNL     1      47.602   7.239  15.897  0.00  0.00    +0.000 HD
BRANCH  19  22
ATOM     22  C   UNL     1      49.648   6.005  16.890  0.00  0.00    +0.000 A 
ATOM     23  C   UNL     1      50.579   6.128  17.910  0.00  0.00    +0.000 A 
ATOM     24  S   UNL     1      50.417   4.948  19.130  0.00  0.00    +0.000 S 
ATOM     25  C   UNL     1      49.125   4.201  18.316  0.00  0.00    +0.000 A 
ATOM     26  N   UNL     1      48.536   3.083  18.813  0.00  0.00    +0.000 NA
ATOM     27  C   UNL     1      47.584   2.605  18.078  0.00  0.00    +0.000 A 
ATOM     28  N   UNL     1      47.167   3.159  16.893  0.00  0.00    +0.000 N 
ATOM     29  C   UNL     1      47.708   4.307  16.367  0.00  0.00    +0.000 A 
ATOM     30  O   UNL     1      47.278   4.801  15.332  0.00  0.00    +0.000 OA
ATOM     31  C   UNL     1      48.798   4.865  17.140  0.00  0.00    +0.000 A 
ATOM     32  H   UNL     1      46.404   2.748  16.372  0.00  0.00    +0.000 HD
ENDBRANCH  19  22
ENDBRANCH  17  18
ENDBRANCH   4  17
TORSDOF 5
ENDMDL
MODEL 7
REMARK VINA RESULT:    -6.942      2.688      3.771
REMARK INTER + INTRA:          -9.955
REMARK INTER:                  -8.909
REMARK INTRA:                  -1.047
REMARK UNBOUND:                -0.984
REMARK  Name = 
REMARK  5 active torsions:
REMARK  status: ('A' for Active; 'I' for Inactive)
REMARK    1  A    between atoms: C_6  and  C_7
REMARK    2  A    between atoms: C_7  and  C_8
REMARK    3  A    between atoms: C_11  and  C_12
REMARK    4  A    between atoms: C_12  and  N_13
REMARK    5  A    between atoms: C_14  and  C_16
REMARK                            x       y       z     vdW  Elec       q    Type
REMARK                         _______ _______ _______ _____ _____    ______ ____
ROOT
ATOM      1  C   UNL     1      46.715   6.962  12.256  0.00  0.00    +0.000 A 
ATOM      2  C   UNL     1      47.707   6.125  12.790  0.00  0.00    +0.000 A 
ATOM      3  C   UNL     1      48.442   6.515  13.912  0.00  0.00    +0.000 A 
ATOM      4  C   UNL     1      48.206   7.755  14.522  0.00  0.00    +0.000 A 
ATOM      5  C   UNL     1      47.275   8.625  13.937  0.00  0.00    +0.000 A 
ATOM      6  C   UNL     1      46.528   8.228  12.824  0.00  0.00    +0.000 A 
ENDROOT
BRANCH   1   7
ATOM      7  C   UNL     1      45.838   6.488  11.117  0.00  0.00    +0.000 C 
BRANCH   7  13
ATOM      8  N   UNL     1      44.329   2.073  10.064  0.00  0.00    +0.000 N 
ATOM      9  C   UNL     1      44.244   3.162  10.929  0.00  0.00    +0.000 A 
ATOM     10  C   UNL     1      43.511   3.064  12.102  0.00  0.00    +0.000 A 
ATOM     11  C   UNL     1      43.463   4.159  12.953  0.00  0.00    +0.000 A 
ATOM     12  C   UNL     1      44.178   5.304  12.623  0.00  0.00    +0.000 A 
ATOM     13  C   UNL     1      44.926   5.320  11.445  0.00  0.00    +0.000 A 
ATOM     14  N   UNL     1      44.953   4.258  10.597  0.00  0.00    +0.000 NA
ATOM     15  H   UNL     1      43.415   1.701   9.836  0.00  0.00    +0.000 HD
ATOM     16  H   UNL     1      44.835   2.387   9.242  0.00  0.00    +0.000 HD
ENDBRANCH   7  13
ENDBRANCH   1   7
BRANCH   4  17
ATOM     17  C   UNL     1      48.932   8.155  15.782  0.00  0.00    +0.000 C 
BRANCH  17  18
ATOM     18  N   UNL     1      49.928   7.187  16.163  0.00  0.00    +0.000 N 
ATOM     19  C   UNL     1      49.752   6.382  17.262  0.00  0.00    +0.000 C 
ATOM     20  O   UNL     1      48.721   6.414  17.929  0.00  0.00    +0.000 OA
ATOM     21  H   UNL     1      50.868   7.326  15.797  0.00  0.00    +0.000 HD
BRANCH  19  22
ATOM     22  C   UNL     1      50.829   5.435  17.563  0.00  0.00    +0.000 A 
ATOM     23  C   UNL     1      52.056   5.901  18.015  0.00  0.00    +0.000 A 
ATOM     24  S   UNL     1      53.181   4.661  18.338  0.00  0.00    +0.000 S 
ATOM     25  C   UNL     1      52.086   3.459  17.841  0.00  0.00    +0.000 A 
ATOM     26  N   UNL     1      52.441   2.149  17.833  0.00  0.00    +0.000 NA
ATOM     27  C   UNL     1      51.520   1.345  17.408  0.00  0.00    +0.000 A 
ATOM     28  N   UNL     1      50.271   1.744  16.998  0.00  0.00    +0.000 N 
ATOM     29  C   UNL     1      49.854   3.053  17.021  0.00  0.00    +0.000 A 
ATOM     30  O   UNL     1      48.717   3.368  16.696  0.00  0.00    +0.000 OA
ATOM     31  C   UNL     1      50.861   3.996  17.464  0.00  0.00    +0.000 A 
ATOM     32  H   UNL     1      49.588   1.065  16.692  0.00  0.00    +0.000 HD
ENDBRANCH  19  22
ENDBRANCH  17  18
ENDBRANCH   4  17
TORSDOF 5
ENDMDL
MODEL 8
REMARK VINA RESULT:    -6.929      3.672      8.898
REMARK INTER + INTRA:          -9.939
REMARK INTER:                  -8.915
REMARK INTRA:                  -1.024
REMARK UNBOUND:                -0.984
REMARK  Name = 
REMARK  5 active torsions:
REMARK  status: ('A' for Active; 'I' for Inactive)
REMARK    1  A    between atoms: C_6  and  C_7
REMARK    2  A    between atoms: C_7  and  C_8
REMARK    3  A    between atoms: C_11  and  C_12
REMARK    4  A    between atoms: C_12  and  N_13
REMARK    5  A    between atoms: C_14  and  C_16
REMARK                            x       y       z     vdW  Elec       q    Type
REMARK                         _______ _______ _______ _____ _____    ______ ____
ROOT
ATOM      1  C   UNL     1      51.400   3.630  18.124  0.00  0.00    +0.000 A 
ATOM      2  C   UNL     1      50.933   2.525  17.396  0.00  0.00    +0.000 A 
ATOM      3  C   UNL     1      49.581   2.412  17.058  0.00  0.00    +0.000 A 
ATOM      4  C   UNL     1      48.666   3.399  17.445  0.00  0.00    +0.000 A 
ATOM      5  C   UNL     1      49.118   4.459  18.245  0.00  0.00    +0.000 A 
ATOM      6  C   UNL     1      50.472   4.581  18.570  0.00  0.00    +0.000 A 
ENDROOT
BRANCH   1   7
ATOM      7  C   UNL     1      52.879   3.812  18.385  0.00  0.00    +0.000 C 
BRANCH   7  13
ATOM      8  N   UNL     1      53.609   7.015  14.908  0.00  0.00    +0.000 N 
ATOM      9  C   UNL     1      53.755   6.701  16.258  0.00  0.00    +0.000 A 
ATOM     10  C   UNL     1      54.218   7.658  17.148  0.00  0.00    +0.000 A 
ATOM     11  C   UNL     1      54.332   7.321  18.490  0.00  0.00    +0.000 A 
ATOM     12  C   UNL     1      53.946   6.052  18.905  0.00  0.00    +0.000 A 
ATOM     13  C   UNL     1      53.451   5.152  17.960  0.00  0.00    +0.000 A 
ATOM     14  N   UNL     1      53.363   5.471  16.641  0.00  0.00    +0.000 NA
ATOM     15  H   UNL     1      54.452   7.423  14.523  0.00  0.00    +0.000 HD
ATOM     16  H   UNL     1      53.342   6.158  14.433  0.00  0.00    +0.000 HD
ENDBRANCH   7  13
ENDBRANCH   1   7
BRANCH   4  17
ATOM     17  C   UNL     1      47.221   3.334  17.017  0.00  0.00    +0.000 C 
BRANCH  17  18
ATOM     18  N   UNL     1      46.897   4.351  16.050  0.00  0.00    +0.000 N 
ATOM     19  C   UNL     1      47.024   4.115  14.702  0.00  0.00    +0.000 C 
ATOM     20  O   UNL     1      47.363   3.017  14.267  0.00  0.00    +0.000 OA
ATOM     21  H   UNL     1      46.874   5.311  16.384  0.00  0.00    +0.000 HD
BRANCH  19  22
ATOM     22  C   UNL     1      46.672   5.219  13.806  0.00  0.00    +0.000 A 
ATOM     23  C   UNL     1      47.564   6.263  13.607  0.00  0.00    +0.000 A 
ATOM     24  S   UNL     1      47.001   7.446  12.516  0.00  0.00    +0.000 S 
ATOM     25  C   UNL     1      45.524   6.631  12.305  0.00  0.00    +0.000 A 
ATOM     26  N   UNL     1      44.550   7.140  11.508  0.00  0.00    +0.000 NA
ATOM     27  C   UNL     1      43.469   6.430  11.458  0.00  0.00    +0.000 A 
ATOM     28  N   UNL     1      43.286   5.249  12.135  0.00  0.00    +0.000 N 
ATOM     29  C   UNL     1      44.253   4.677  12.925  0.00  0.00    +0.000 A 
ATOM     30  O   UNL     1      44.074   3.597  13.474  0.00  0.00    +0.000 OA
ATOM     31  C   UNL     1      45.474   5.449  13.035  0.00  0.00    +0.000 A 
ATOM     32  H   UNL     1      42.424   4.730  12.042  0.00  0.00    +0.000 HD
ENDBRANCH  19  22
ENDBRANCH  17  18
ENDBRANCH   4  17
TORSDOF 5
ENDMDL
MODEL 9
REMARK VINA RESULT:    -6.822      3.891      6.173
REMARK INTER + INTRA:          -9.800
REMARK INTER:                  -8.788
REMARK INTRA:                  -1.011
REMARK UNBOUND:                -0.984
REMARK  Name = 
REMARK  5 active torsions:
REMARK  status: ('A' for Active; 'I' for Inactive)
REMARK    1  A    between atoms: C_6  and  C_7
REMARK    2  A    between atoms: C_7  and  C_8
REMARK    3  A    between atoms: C_11  and  C_12
REMARK    4  A    between atoms: C_12  and  N_13
REMARK    5  A    between atoms: C_14  and  C_16
REMARK                            x       y       z     vdW  Elec       q    Type
REMARK                         _______ _______ _______ _____ _____    ______ ____
ROOT
ATOM      1  C   UNL     1      44.589   9.159  11.453  0.00  0.00    +0.000 A 
ATOM      2  C   UNL     1      45.584   9.073  12.439  0.00  0.00    +0.000 A 
ATOM      3  C   UNL     1      45.992   7.833  12.937  0.00  0.00    +0.000 A 
ATOM      4  C   UNL     1      45.408   6.650  12.465  0.00  0.00    +0.000 A 
ATOM      5  C   UNL     1      44.355   6.741  11.544  0.00  0.00    +0.000 A 
ATOM      6  C   UNL     1      43.958   7.981  11.033  0.00  0.00    +0.000 A 
ENDROOT
BRANCH   1   7
ATOM      7  C   UNL     1      44.234  10.491  10.828  0.00  0.00    +0.000 C 
BRANCH   7  13
ATOM      8  N   UNL     1      40.656  12.225  13.487  0.00  0.00    +0.000 N 
ATOM      9  C   UNL     1      41.067  11.765  12.238  0.00  0.00    +0.000 A 
ATOM     10  C   UNL     1      40.218  11.862  11.147  0.00  0.00    +0.000 A 
ATOM     11  C   UNL     1      40.664  11.414   9.911  0.00  0.00    +0.000 A 
ATOM     12  C   UNL     1      41.958  10.917   9.798  0.00  0.00    +0.000 A 
ATOM     13  C   UNL     1      42.772  10.884  10.931  0.00  0.00    +0.000 A 
ATOM     14  N   UNL     1      42.327  11.298  12.147  0.00  0.00    +0.000 NA
ATOM     15  H   UNL     1      39.756  11.843  13.752  0.00  0.00    +0.000 HD
ATOM     16  H   UNL     1      41.388  11.982  14.147  0.00  0.00    +0.000 HD
ENDBRANCH   7  13
ENDBRANCH   1   7
BRANCH   4  17
ATOM     17  C   UNL     1      45.894   5.301  12.932  0.00  0.00    +0.000 C 
BRANCH  17  18
ATOM     18  N   UNL     1      46.500   5.365  14.236  0.00  0.00    +0.000 N 
ATOM     19  C   UNL     1      47.128   4.272  14.782  0.00  0.00    +0.000 C 
ATOM     20  O   UNL     1      47.246   3.217  14.162  0.00  0.00    +0.000 OA
ATOM     21  H   UNL     1      46.191   6.115  14.850  0.00  0.00    +0.000 HD
BRANCH  19  22
ATOM     22  C   UNL     1      47.707   4.445  16.117  0.00  0.00    +0.000 A 
ATOM     23  C   UNL     1      47.335   3.596  17.149  0.00  0.00    +0.000 A 
ATOM     24  S   UNL     1      48.125   3.927  18.624  0.00  0.00    +0.000 S 
ATOM     25  C   UNL     1      48.958   5.246  17.948  0.00  0.00    +0.000 A 
ATOM     26  N   UNL     1      49.792   6.008  18.702  0.00  0.00    +0.000 NA
ATOM     27  C   UNL     1      50.340   6.993  18.067  0.00  0.00    +0.000 A 
ATOM     28  N   UNL     1      50.128   7.274  16.740  0.00  0.00    +0.000 N 
ATOM     29  C   UNL     1      49.321   6.514  15.929  0.00  0.00    +0.000 A 
ATOM     30  O   UNL     1      49.193   6.764  14.737  0.00  0.00    +0.000 OA
ATOM     31  C   UNL     1      48.662   5.413  16.601  0.00  0.00    +0.000 A 
ATOM     32  H   UNL     1      50.600   8.050  16.295  0.00  0.00    +0.000 HD
ENDBRANCH  19  22
ENDBRANCH  17  18
ENDBRANCH   4  17
TORSDOF 5
ENDMDL
