MODEL 1
REMARK VINA RESULT:    -8.339      0.000      0.000
REMARK INTER + INTRA:         -12.412
REMARK INTER:                 -11.265
REMARK INTRA:                  -1.148
REMARK UNBOUND:                -1.148
REMARK  Name = 
REMARK  6 active torsions:
REMARK  status: ('A' for Active; 'I' for Inactive)
REMARK    1  A    between atoms: C_2  and  C_19
REMARK    2  A    between atoms: N_3  and  C_4
REMARK    3  A    between atoms: C_4  and  C_5
REMARK    4  A    between atoms: C_8  and  C_9
REMARK    5  A    between atoms: C_9  and  O_10
REMARK    6  A    between atoms: O_10  and  C_11
REMARK                            x       y       z     vdW  Elec       q    Type
REMARK                         _______ _______ _______ _____ _____    ______ ____
ROOT
ATOM      1  O   UNL     1      49.209   6.647  13.401  0.00  0.00    +0.000 OA
ATOM      2  C   UNL     1      48.515   6.767  14.402  0.00  0.00    +0.000 C 
ATOM      3  N   UNL     1      47.254   7.314  14.380  0.00  0.00    +0.000 N 
ATOM      4  H   UNL     1      46.781   7.525  15.251  0.00  0.00    +0.000 HD
ENDROOT
BRANCH   2   5
ATOM      5  C   UNL     1      48.954   6.279  15.709  0.00  0.00    +0.000 A 
ATOM      6  C   UNL     1      49.959   6.917  16.426  0.00  0.00    +0.000 A 
ATOM      7  S   UNL     1      50.319   6.137  17.905  0.00  0.00    +0.000 S 
ATOM      8  C   UNL     1      49.120   4.958  17.641  0.00  0.00    +0.000 A 
ATOM      9  N   UNL     1      48.893   3.963  18.541  0.00  0.00    +0.000 NA
ATOM     10  C   UNL     1      47.926   3.169  18.225  0.00  0.00    +0.000 A 
ATOM     11  N   UNL     1      47.152   3.285  17.100  0.00  0.00    +0.000 N 
ATOM     12  C   UNL     1      47.381   4.222  16.129  0.00  0.00    +0.000 A 
ATOM     13  O   UNL     1      46.755   4.203  15.087  0.00  0.00    +0.000 OA
ATOM     14  C   UNL     1      48.454   5.155  16.447  0.00  0.00    +0.000 A 
ATOM     15  H   UNL     1      46.426   2.614  16.891  0.00  0.00    +0.000 HD
ENDBRANCH   2   5
BRANCH   3  16
ATOM     16  C   UNL     1      46.697   7.891  13.189  0.00  0.00    +0.000 C 
BRANCH  16  17
ATOM     17  C   UNL     1      46.026   6.876  12.300  0.00  0.00    +0.000 A 
ATOM     18  C   UNL     1      44.898   6.182  12.759  0.00  0.00    +0.000 A 
ATOM     19  C   UNL     1      44.250   5.250  11.945  0.00  0.00    +0.000 A 
ATOM     20  C   UNL     1      44.721   4.988  10.651  0.00  0.00    +0.000 A 
ATOM     21  C   UNL     1      45.847   5.681  10.190  0.00  0.00    +0.000 A 
ATOM     22  C   UNL     1      46.505   6.600  11.013  0.00  0.00    +0.000 A 
BRANCH  20  23
ATOM     23  C   UNL     1      44.068   3.940   9.786  0.00  0.00    +0.000 C 
BRANCH  23  24
ATOM     24  O   UNL     1      44.422   4.115   8.413  0.00  0.00    +0.000 OA
BRANCH  24  25
ATOM     25  C   UNL     1      45.408   3.280   7.948  0.00  0.00    +0.000 A 
ATOM     26  C   UNL     1      46.408   3.638   7.038  0.00  0.00    +0.000 A 
ATOM     27  C   UNL     1      47.367   2.706   6.635  0.00  0.00    +0.000 A 
ATOM     28  C   UNL     1      47.346   1.413   7.153  0.00  0.00    +0.000 A 
ATOM     29  C   UNL     1      46.366   1.052   8.075  0.00  0.00    +0.000 A 
ATOM     30  C   UNL     1      45.394   1.981   8.463  0.00  0.00    +0.000 A 
ENDBRANCH  24  25
ENDBRANCH  23  24
ENDBRANCH  20  23
ENDBRANCH  16  17
ENDBRANCH   3  16
TORSDOF 6
ENDMDL
MODEL 2
REMARK VINA RESULT:    -8.261      0.817      1.321
REMARK INTER + INTRA:         -12.307
REMARK INTER:                 -11.422
REMARK INTRA:                  -0.885
REMARK UNBOUND:                -1.148
REMARK  Name = 
REMARK  6 active torsions:
REMARK  status: ('A' for Active; 'I' for Inactive)
REMARK    1  A    between atoms: C_2  and  C_19
REMARK    2  A    between atoms: N_3  and  C_4
REMARK    3  A    between atoms: C_4  and  C_5
REMARK    4  A    between atoms: C_8  and  C_9
REMARK    5  A    between atoms: C_9  and  O_10
REMARK    6  A    between atoms: O_10  and  C_11
REMARK                            x       y       z     vdW  Elec       q    Type
REMARK                         _______ _______ _______ _____ _____    ______ ____
ROOT
ATOM      1  O   UNL     1      48.959   6.534  13.109  0.00  0.00    +0.000 OA
ATOM      2  C   UNL     1      48.247   6.604  14.102  0.00  0.00    +0.000 C 
ATOM      3  N   UNL     1      46.925   6.978  14.052  0.00  0.00    +0.000 N 
ATOM      4  H   UNL     1      46.421   7.162  14.911  0.00  0.00    +0.000 HD
ENDROOT
BRANCH   2   5
ATOM      5  C   UNL     1      48.735   6.236  15.430  0.00  0.00    +0.000 A 
ATOM      6  C   UNL     1      49.704   6.986  16.086  0.00  0.00    +0.000 A 
ATOM      7  S   UNL     1      50.136   6.334  17.606  0.00  0.00    +0.000 S 
ATOM      8  C   UNL     1      49.016   5.062  17.443  0.00  0.00    +0.000 A 
ATOM      9  N   UNL     1      48.870   4.117  18.410  0.00  0.00    +0.000 NA
ATOM     10  C   UNL     1      47.955   3.240  18.165  0.00  0.00    +0.000 A 
ATOM     11  N   UNL     1      47.160   3.229  17.049  0.00  0.00    +0.000 N 
ATOM     12  C   UNL     1      47.312   4.111  16.013  0.00  0.00    +0.000 A 
ATOM     13  O   UNL     1      46.674   3.980  14.986  0.00  0.00    +0.000 OA
ATOM     14  C   UNL     1      48.323   5.133  16.249  0.00  0.00    +0.000 A 
ATOM     15  H   UNL     1      46.479   2.498  16.897  0.00  0.00    +0.000 HD
ENDBRANCH   2   5
BRANCH   3  16
ATOM     16  C   UNL     1      46.307   7.424  12.835  0.00  0.00    +0.000 C 
BRANCH  16  17
ATOM     17  C   UNL     1      45.831   6.289  11.964  0.00  0.00    +0.000 A 
ATOM     18  C   UNL     1      46.079   6.315  10.585  0.00  0.00    +0.000 A 
ATOM     19  C   UNL     1      45.662   5.266   9.763  0.00  0.00    +0.000 A 
ATOM     20  C   UNL     1      44.983   4.166  10.304  0.00  0.00    +0.000 A 
ATOM     21  C   UNL     1      44.736   4.137  11.682  0.00  0.00    +0.000 A 
ATOM     22  C   UNL     1      45.137   5.197  12.501  0.00  0.00    +0.000 A 
BRANCH  20  23
ATOM     23  C   UNL     1      44.474   3.056   9.419  0.00  0.00    +0.000 C 
BRANCH  23  24
ATOM     24  O   UNL     1      45.478   2.061   9.216  0.00  0.00    +0.000 OA
BRANCH  24  25
ATOM     25  C   UNL     1      46.119   2.108   8.002  0.00  0.00    +0.000 A 
ATOM     26  C   UNL     1      46.144   3.210   7.142  0.00  0.00    +0.000 A 
ATOM     27  C   UNL     1      46.834   3.148   5.929  0.00  0.00    +0.000 A 
ATOM     28  C   UNL     1      47.522   1.990   5.575  0.00  0.00    +0.000 A 
ATOM     29  C   UNL     1      47.520   0.893   6.434  0.00  0.00    +0.000 A 
ATOM     30  C   UNL     1      46.812   0.950   7.640  0.00  0.00    +0.000 A 
ENDBRANCH  24  25
ENDBRANCH  23  24
ENDBRANCH  20  23
ENDBRANCH  16  17
ENDBRANCH   3  16
TORSDOF 6
ENDMDL
MODEL 3
REMARK VINA RESULT:    -7.805      1.987      2.652
REMARK INTER + INTRA:         -11.690
REMARK INTER:                 -10.726
REMARK INTRA:                  -0.964
REMARK UNBOUND:                -1.148
REMARK  Name = 
REMARK  6 active torsions:
REMARK  status: ('A' for Active; 'I' for Inactive)
REMARK    1  A    between atoms: C_2  and  C_19
REMARK    2  A    between atoms: N_3  and  C_4
REMARK    3  A    between atoms: C_4  and  C_5
REMARK    4  A    between atoms: C_8  and  C_9
REMARK    5  A    between atoms: C_9  and  O_10
REMARK    6  A    between atoms: O_10  and  C_11
REMARK                            x       y       z     vdW  Elec       q    Type
REMARK                         _______ _______ _______ _____ _____    ______ ____
ROOT
ATOM      1  O   UNL     1      49.931   6.640  15.362  0.00  0.00    +0.000 OA
ATOM      2  C   UNL     1      48.850   6.236  15.770  0.00  0.00    +0.000 C 
ATOM      3  N   UNL     1      47.711   6.232  15.001  0.00  0.00    +0.000 N 
ATOM      4  H   UNL     1      46.816   6.027  15.429  0.00  0.00    +0.000 HD
ENDROOT
BRANCH   2   5
ATOM      5  C   UNL     1      48.696   5.664  17.107  0.00  0.00    +0.000 A 
ATOM      6  C   UNL     1      48.926   4.316  17.355  0.00  0.00    +0.000 A 
ATOM      7  S   UNL     1      48.645   3.881  18.985  0.00  0.00    +0.000 S 
ATOM      8  C   UNL     1      48.250   5.483  19.404  0.00  0.00    +0.000 A 
ATOM      9  N   UNL     1      47.901   5.818  20.675  0.00  0.00    +0.000 NA
ATOM     10  C   UNL     1      47.669   7.075  20.851  0.00  0.00    +0.000 A 
ATOM     11  N   UNL     1      47.768   8.033  19.876  0.00  0.00    +0.000 N 
ATOM     12  C   UNL     1      48.045   7.743  18.567  0.00  0.00    +0.000 A 
ATOM     13  O   UNL     1      47.990   8.608  17.714  0.00  0.00    +0.000 OA
ATOM     14  C   UNL     1      48.331   6.336  18.321  0.00  0.00    +0.000 A 
ATOM     15  H   UNL     1      47.545   9.001  20.066  0.00  0.00    +0.000 HD
ENDBRANCH   2   5
BRANCH   3  16
ATOM     16  C   UNL     1      47.680   6.810  13.687  0.00  0.00    +0.000 C 
BRANCH  16  17
ATOM     17  C   UNL     1      46.755   6.082  12.745  0.00  0.00    +0.000 A 
ATOM     18  C   UNL     1      46.573   6.556  11.439  0.00  0.00    +0.000 A 
ATOM     19  C   UNL     1      45.735   5.887  10.545  0.00  0.00    +0.000 A 
ATOM     20  C   UNL     1      45.054   4.728  10.940  0.00  0.00    +0.000 A 
ATOM     21  C   UNL     1      45.235   4.251  12.244  0.00  0.00    +0.000 A 
ATOM     22  C   UNL     1      46.061   4.932  13.145  0.00  0.00    +0.000 A 
BRANCH  20  23
ATOM     23  C   UNL     1      44.099   4.031  10.004  0.00  0.00    +0.000 C 
BRANCH  23  24
ATOM     24  O   UNL     1      44.508   4.188   8.644  0.00  0.00    +0.000 OA
BRANCH  24  25
ATOM     25  C   UNL     1      45.412   3.260   8.189  0.00  0.00    +0.000 A 
ATOM     26  C   UNL     1      45.462   1.919   8.581  0.00  0.00    +0.000 A 
ATOM     27  C   UNL     1      46.426   1.060   8.048  0.00  0.00    +0.000 A 
ATOM     28  C   UNL     1      47.335   1.529   7.104  0.00  0.00    +0.000 A 
ATOM     29  C   UNL     1      47.282   2.860   6.692  0.00  0.00    +0.000 A 
ATOM     30  C   UNL     1      46.329   3.724   7.242  0.00  0.00    +0.000 A 
ENDBRANCH  24  25
ENDBRANCH  23  24
ENDBRANCH  20  23
ENDBRANCH  16  17
ENDBRANCH   3  16
TORSDOF 6
ENDMDL
MODEL 4
REMARK VINA RESULT:    -7.784      1.876      2.138
REMARK INTER + INTRA:         -11.662
REMARK INTER:                 -10.710
REMARK INTRA:                  -0.952
REMARK UNBOUND:                -1.148
REMARK  Name = 
REMARK  6 active torsions:
REMARK  status: ('A' for Active; 'I' for Inactive)
REMARK    1  A    between atoms: C_2  and  C_19
REMARK    2  A    between atoms: N_3  and  C_4
REMARK    3  A    between atoms: C_4  and  C_5
REMARK    4  A    between atoms: C_8  and  C_9
REMARK    5  A    between atoms: C_9  and  O_10
REMARK    6  A    between atoms: O_10  and  C_11
REMARK                            x       y       z     vdW  Elec       q    Type
REMARK                         _______ _______ _______ _____ _____    ______ ____
ROOT
ATOM      1  O   UNL     1      50.279   6.389  15.773  0.00  0.00    +0.000 OA
ATOM      2  C   UNL     1      49.127   6.646  16.099  0.00  0.00    +0.000 C 
ATOM      3  N   UNL     1      48.091   6.712  15.199  0.00  0.00    +0.000 N 
ATOM      4  H   UNL     1      47.190   7.071  15.494  0.00  0.00    +0.000 HD
ENDROOT
BRANCH   2   5
ATOM      5  C   UNL     1      48.747   6.846  17.496  0.00  0.00    +0.000 A 
ATOM      6  C   UNL     1      48.358   8.092  17.975  0.00  0.00    +0.000 A 
ATOM      7  S   UNL     1      47.998   8.080  19.647  0.00  0.00    +0.000 S 
ATOM      8  C   UNL     1      48.312   6.411  19.760  0.00  0.00    +0.000 A 
ATOM      9  N   UNL     1      48.193   5.745  20.941  0.00  0.00    +0.000 NA
ATOM     10  C   UNL     1      48.424   4.478  20.865  0.00  0.00    +0.000 A 
ATOM     11  N   UNL     1      48.747   3.809  19.713  0.00  0.00    +0.000 N 
ATOM     12  C   UNL     1      48.949   4.438  18.514  0.00  0.00    +0.000 A 
ATOM     13  O   UNL     1      49.366   3.822  17.552  0.00  0.00    +0.000 OA
ATOM     14  C   UNL     1      48.685   5.870  18.545  0.00  0.00    +0.000 A 
ATOM     15  H   UNL     1      48.946   2.818  19.720  0.00  0.00    +0.000 HD
ENDBRANCH   2   5
BRANCH   3  16
ATOM     16  C   UNL     1      48.304   6.595  13.784  0.00  0.00    +0.000 C 
BRANCH  16  17
ATOM     17  C   UNL     1      47.180   5.884  13.075  0.00  0.00    +0.000 A 
ATOM     18  C   UNL     1      46.785   4.607  13.496  0.00  0.00    +0.000 A 
ATOM     19  C   UNL     1      45.734   3.938  12.864  0.00  0.00    +0.000 A 
ATOM     20  C   UNL     1      45.057   4.532  11.792  0.00  0.00    +0.000 A 
ATOM     21  C   UNL     1      45.448   5.808  11.370  0.00  0.00    +0.000 A 
ATOM     22  C   UNL     1      46.512   6.469  11.991  0.00  0.00    +0.000 A 
BRANCH  20  23
ATOM     23  C   UNL     1      43.961   3.795  11.063  0.00  0.00    +0.000 C 
BRANCH  23  24
ATOM     24  O   UNL     1      43.942   4.143   9.678  0.00  0.00    +0.000 OA
BRANCH  24  25
ATOM     25  C   UNL     1      44.888   3.521   8.900  0.00  0.00    +0.000 A 
ATOM     26  C   UNL     1      45.741   4.161   7.996  0.00  0.00    +0.000 A 
ATOM     27  C   UNL     1      46.672   3.427   7.257  0.00  0.00    +0.000 A 
ATOM     28  C   UNL     1      46.769   2.048   7.429  0.00  0.00    +0.000 A 
ATOM     29  C   UNL     1      45.937   1.403   8.341  0.00  0.00    +0.000 A 
ATOM     30  C   UNL     1      44.992   2.137   9.066  0.00  0.00    +0.000 A 
ENDBRANCH  24  25
ENDBRANCH  23  24
ENDBRANCH  20  23
ENDBRANCH  16  17
ENDBRANCH   3  16
TORSDOF 6
ENDMDL
MODEL 5
REMARK VINA RESULT:    -7.298      2.712      4.811
REMARK INTER + INTRA:         -11.006
REMARK INTER:                  -9.828
REMARK INTRA:                  -1.178
REMARK UNBOUND:                -1.148
REMARK  Name = 
REMARK  6 active torsions:
REMARK  status: ('A' for Active; 'I' for Inactive)
REMARK    1  A    between atoms: C_2  and  C_19
REMARK    2  A    between atoms: N_3  and  C_4
REMARK    3  A    between atoms: C_4  and  C_5
REMARK    4  A    between atoms: C_8  and  C_9
REMARK    5  A    between atoms: C_9  and  O_10
REMARK    6  A    between atoms: O_10  and  C_11
REMARK                            x       y       z     vdW  Elec       q    Type
REMARK                         _______ _______ _______ _____ _____    ______ ____
ROOT
ATOM      1  O   UNL     1      49.208   6.494  12.697  0.00  0.00    +0.000 OA
ATOM      2  C   UNL     1      48.541   7.303  13.329  0.00  0.00    +0.000 C 
ATOM      3  N   UNL     1      47.704   6.944  14.359  0.00  0.00    +0.000 N 
ATOM      4  H   UNL     1      47.067   7.627  14.751  0.00  0.00    +0.000 HD
ENDROOT
BRANCH   2   5
ATOM      5  C   UNL     1      48.626   8.740  13.074  0.00  0.00    +0.000 A 
ATOM      6  C   UNL     1      49.801   9.452  13.289  0.00  0.00    +0.000 A 
ATOM      7  S   UNL     1      49.640  11.121  12.954  0.00  0.00    +0.000 S 
ATOM      8  C   UNL     1      48.017  10.927  12.478  0.00  0.00    +0.000 A 
ATOM      9  N   UNL     1      47.268  11.984  12.065  0.00  0.00    +0.000 NA
ATOM     10  C   UNL     1      46.069  11.678  11.697  0.00  0.00    +0.000 A 
ATOM     11  N   UNL     1      45.554  10.408  11.688  0.00  0.00    +0.000 N 
ATOM     12  C   UNL     1      46.237   9.320  12.159  0.00  0.00    +0.000 A 
ATOM     13  O   UNL     1      45.691   8.237  12.256  0.00  0.00    +0.000 OA
ATOM     14  C   UNL     1      47.603   9.612  12.572  0.00  0.00    +0.000 A 
ATOM     15  H   UNL     1      44.596  10.233  11.416  0.00  0.00    +0.000 HD
ENDBRANCH   2   5
BRANCH   3  16
ATOM     16  C   UNL     1      47.464   5.570  14.699  0.00  0.00    +0.000 C 
BRANCH  16  17
ATOM     17  C   UNL     1      46.453   4.907  13.798  0.00  0.00    +0.000 A 
ATOM     18  C   UNL     1      46.654   3.586  13.377  0.00  0.00    +0.000 A 
ATOM     19  C   UNL     1      45.721   2.948  12.556  0.00  0.00    +0.000 A 
ATOM     20  C   UNL     1      44.566   3.620  12.136  0.00  0.00    +0.000 A 
ATOM     21  C   UNL     1      44.363   4.940  12.557  0.00  0.00    +0.000 A 
ATOM     22  C   UNL     1      45.307   5.585  13.363  0.00  0.00    +0.000 A 
BRANCH  20  23
ATOM     23  C   UNL     1      43.582   2.963  11.201  0.00  0.00    +0.000 C 
BRANCH  23  24
ATOM     24  O   UNL     1      43.643   3.546   9.899  0.00  0.00    +0.000 OA
BRANCH  24  25
ATOM     25  C   UNL     1      44.660   3.092   9.096  0.00  0.00    +0.000 A 
ATOM     26  C   UNL     1      45.086   1.763   9.002  0.00  0.00    +0.000 A 
ATOM     27  C   UNL     1      46.132   1.412   8.146  0.00  0.00    +0.000 A 
ATOM     28  C   UNL     1      46.748   2.383   7.360  0.00  0.00    +0.000 A 
ATOM     29  C   UNL     1      46.318   3.707   7.431  0.00  0.00    +0.000 A 
ATOM     30  C   UNL     1      45.284   4.060   8.304  0.00  0.00    +0.000 A 
ENDBRANCH  24  25
ENDBRANCH  23  24
ENDBRANCH  20  23
ENDBRANCH  16  17
ENDBRANCH   3  16
TORSDOF 6
ENDMDL
MODEL 6
REMARK VINA RESULT:    -7.173      2.206      3.810
REMARK INTER + INTRA:         -10.837
REMARK INTER:                  -9.917
REMARK INTRA:                  -0.920
REMARK UNBOUND:                -1.148
REMARK  Name = 
REMARK  6 active torsions:
REMARK  status: ('A' for Active; 'I' for Inactive)
REMARK    1  A    between atoms: C_2  and  C_19
REMARK    2  A    between atoms: N_3  and  C_4
REMARK    3  A    between atoms: C_4  and  C_5
REMARK    4  A    between atoms: C_8  and  C_9
REMARK    5  A    between atoms: C_9  and  O_10
REMARK    6  A    between atoms: O_10  and  C_11
REMARK                            x       y       z     vdW  Elec       q    Type
REMARK                         _______ _______ _______ _____ _____    ______ ____
ROOT
ATOM      1  O   UNL     1      48.246   5.735  16.467  0.00  0.00    +0.000 OA
ATOM      2  C   UNL     1      48.194   6.459  15.482  0.00  0.00    +0.000 C 
ATOM      3  N   UNL     1      47.400   6.190  14.394  0.00  0.00    +0.000 N 
ATOM      4  H   UNL     1      47.502   6.738  13.548  0.00  0.00    +0.000 HD
ENDROOT
BRANCH   2   5
ATOM      5  C   UNL     1      48.939   7.716  15.408  0.00  0.00    +0.000 A 
ATOM      6  C   UNL     1      49.022   8.580  16.494  0.00  0.00    +0.000 A 
ATOM      7  S   UNL     1      49.914   9.997  16.150  0.00  0.00    +0.000 S 
ATOM      8  C   UNL     1      50.244   9.474  14.564  0.00  0.00    +0.000 A 
ATOM      9  N   UNL     1      50.978  10.231  13.705  0.00  0.00    +0.000 NA
ATOM     10  C   UNL     1      51.179   9.687  12.552  0.00  0.00    +0.000 A 
ATOM     11  N   UNL     1      50.728   8.447  12.182  0.00  0.00    +0.000 N 
ATOM     12  C   UNL     1      49.926   7.674  12.979  0.00  0.00    +0.000 A 
ATOM     13  O   UNL     1      49.440   6.642  12.557  0.00  0.00    +0.000 OA
ATOM     14  C   UNL     1      49.683   8.239  14.299  0.00  0.00    +0.000 A 
ATOM     15  H   UNL     1      50.892   8.084  11.253  0.00  0.00    +0.000 HD
ENDBRANCH   2   5
BRANCH   3  16
ATOM     16  C   UNL     1      46.650   4.970  14.284  0.00  0.00    +0.000 C 
BRANCH  16  17
ATOM     17  C   UNL     1      46.072   4.755  12.909  0.00  0.00    +0.000 A 
ATOM     18  C   UNL     1      45.509   3.516  12.573  0.00  0.00    +0.000 A 
ATOM     19  C   UNL     1      44.953   3.301  11.310  0.00  0.00    +0.000 A 
ATOM     20  C   UNL     1      44.951   4.323  10.351  0.00  0.00    +0.000 A 
ATOM     21  C   UNL     1      45.511   5.562  10.685  0.00  0.00    +0.000 A 
ATOM     22  C   UNL     1      46.084   5.770  11.943  0.00  0.00    +0.000 A 
BRANCH  20  23
ATOM     23  C   UNL     1      44.409   4.084   8.965  0.00  0.00    +0.000 C 
BRANCH  23  24
ATOM     24  O   UNL     1      45.406   4.335   7.974  0.00  0.00    +0.000 OA
BRANCH  24  25
ATOM     25  C   UNL     1      46.064   3.225   7.504  0.00  0.00    +0.000 A 
ATOM     26  C   UNL     1      46.095   1.976   8.131  0.00  0.00    +0.000 A 
ATOM     27  C   UNL     1      46.795   0.911   7.559  0.00  0.00    +0.000 A 
ATOM     28  C   UNL     1      47.454   1.081   6.344  0.00  0.00    +0.000 A 
ATOM     29  C   UNL     1      47.414   2.317   5.701  0.00  0.00    +0.000 A 
ATOM     30  C   UNL     1      46.729   3.387   6.285  0.00  0.00    +0.000 A 
ENDBRANCH  24  25
ENDBRANCH  23  24
ENDBRANCH  20  23
ENDBRANCH  16  17
ENDBRANCH   3  16
TORSDOF 6
ENDMDL
MODEL 7
REMARK VINA RESULT:    -7.136      1.517      2.213
REMARK INTER + INTRA:         -10.786
REMARK INTER:                  -9.845
REMARK INTRA:                  -0.942
REMARK UNBOUND:                -1.148
REMARK  Name = 
REMARK  6 active torsions:
REMARK  status: ('A' for Active; 'I' for Inactive)
REMARK    1  A    between atoms: C_2  and  C_19
REMARK    2  A    between atoms: N_3  and  C_4
REMARK    3  A    between atoms: C_4  and  C_5
REMARK    4  A    between atoms: C_8  and  C_9
REMARK    5  A    between atoms: C_9  and  O_10
REMARK    6  A    between atoms: O_10  and  C_11
REMARK                            x       y       z     vdW  Elec       q    Type
REMARK                         _______ _______ _______ _____ _____    ______ ____
ROOT
ATOM      1  O   UNL     1      48.473   7.589  12.080  0.00  0.00    +0.000 OA
ATOM      2  C   UNL     1      48.306   7.668  13.291  0.00  0.00    +0.000 C 
ATOM      3  N   UNL     1      47.063   7.729  13.873  0.00  0.00    +0.000 N 
ATOM      4  H   UNL     1      46.980   7.940  14.861  0.00  0.00    +0.000 HD
ENDROOT
BRANCH   2   5
ATOM      5  C   UNL     1      49.428   7.643  14.228  0.00  0.00    +0.000 A 
ATOM      6  C   UNL     1      50.470   8.558  14.143  0.00  0.00    +0.000 A 
ATOM      7  S   UNL     1      51.679   8.302  15.325  0.00  0.00    +0.000 S 
ATOM      8  C   UNL     1      50.824   6.994  15.999  0.00  0.00    +0.000 A 
ATOM      9  N   UNL     1      51.309   6.303  17.066  0.00  0.00    +0.000 NA
ATOM     10  C   UNL     1      50.532   5.365  17.492  0.00  0.00    +0.000 A 
ATOM     11  N   UNL     1      49.306   5.062  16.961  0.00  0.00    +0.000 N 
ATOM     12  C   UNL     1      48.801   5.676  15.846  0.00  0.00    +0.000 A 
ATOM     13  O   UNL     1      47.771   5.282  15.332  0.00  0.00    +0.000 OA
ATOM     14  C   UNL     1      49.636   6.755  15.336  0.00  0.00    +0.000 A 
ATOM     15  H   UNL     1      48.754   4.295  17.319  0.00  0.00    +0.000 HD
ENDBRANCH   2   5
BRANCH   3  16
ATOM     16  C   UNL     1      45.861   7.819  13.093  0.00  0.00    +0.000 C 
BRANCH  16  17
ATOM     17  C   UNL     1      45.514   6.529  12.394  0.00  0.00    +0.000 A 
ATOM     18  C   UNL     1      45.370   6.506  11.000  0.00  0.00    +0.000 A 
ATOM     19  C   UNL     1      45.066   5.319  10.332  0.00  0.00    +0.000 A 
ATOM     20  C   UNL     1      44.893   4.125  11.046  0.00  0.00    +0.000 A 
ATOM     21  C   UNL     1      45.038   4.145  12.438  0.00  0.00    +0.000 A 
ATOM     22  C   UNL     1      45.324   5.339  13.108  0.00  0.00    +0.000 A 
BRANCH  20  23
ATOM     23  C   UNL     1      44.505   2.850  10.341  0.00  0.00    +0.000 C 
BRANCH  23  24
ATOM     24  O   UNL     1      44.408   3.051   8.931  0.00  0.00    +0.000 OA
BRANCH  24  25
ATOM     25  C   UNL     1      45.478   2.604   8.196  0.00  0.00    +0.000 A 
ATOM     26  C   UNL     1      46.039   1.326   8.279  0.00  0.00    +0.000 A 
ATOM     27  C   UNL     1      47.128   0.975   7.477  0.00  0.00    +0.000 A 
ATOM     28  C   UNL     1      47.653   1.894   6.572  0.00  0.00    +0.000 A 
ATOM     29  C   UNL     1      47.090   3.164   6.467  0.00  0.00    +0.000 A 
ATOM     30  C   UNL     1      46.011   3.520   7.285  0.00  0.00    +0.000 A 
ENDBRANCH  24  25
ENDBRANCH  23  24
ENDBRANCH  20  23
ENDBRANCH  16  17
ENDBRANCH   3  16
TORSDOF 6
ENDMDL
MODEL 8
REMARK VINA RESULT:    -7.040      1.817      2.624
REMARK INTER + INTRA:         -10.658
REMARK INTER:                 -10.112
REMARK INTRA:                  -0.546
REMARK UNBOUND:                -1.148
REMARK  Name = 
REMARK  6 active torsions:
REMARK  status: ('A' for Active; 'I' for Inactive)
REMARK    1  A    between atoms: C_2  and  C_19
REMARK    2  A    between atoms: N_3  and  C_4
REMARK    3  A    between atoms: C_4  and  C_5
REMARK    4  A    between atoms: C_8  and  C_9
REMARK    5  A    between atoms: C_9  and  O_10
REMARK    6  A    between atoms: O_10  and  C_11
REMARK                            x       y       z     vdW  Elec       q    Type
REMARK                         _______ _______ _______ _____ _____    ______ ____
ROOT
ATOM      1  O   UNL     1      49.012   7.810  15.566  0.00  0.00    +0.000 OA
ATOM      2  C   UNL     1      48.603   6.657  15.629  0.00  0.00    +0.000 C 
ATOM      3  N   UNL     1      47.751   6.112  14.699  0.00  0.00    +0.000 N 
ATOM      4  H   UNL     1      47.327   5.208  14.874  0.00  0.00    +0.000 HD
ENDROOT
BRANCH   2   5
ATOM      5  C   UNL     1      49.041   5.740  16.680  0.00  0.00    +0.000 A 
ATOM      6  C   UNL     1      48.136   4.964  17.395  0.00  0.00    +0.000 A 
ATOM      7  S   UNL     1      48.886   4.001  18.593  0.00  0.00    +0.000 S 
ATOM      8  C   UNL     1      50.432   4.566  18.160  0.00  0.00    +0.000 A 
ATOM      9  N   UNL     1      51.550   4.136  18.805  0.00  0.00    +0.000 NA
ATOM     10  C   UNL     1      52.653   4.619  18.341  0.00  0.00    +0.000 A 
ATOM     11  N   UNL     1      52.745   5.482  17.280  0.00  0.00    +0.000 N 
ATOM     12  C   UNL     1      51.650   6.001  16.641  0.00  0.00    +0.000 A 
ATOM     13  O   UNL     1      51.777   6.865  15.795  0.00  0.00    +0.000 OA
ATOM     14  C   UNL     1      50.380   5.473  17.120  0.00  0.00    +0.000 A 
ATOM     15  H   UNL     1      53.636   5.851  16.979  0.00  0.00    +0.000 HD
ENDBRANCH   2   5
BRANCH   3  16
ATOM     16  C   UNL     1      47.184   6.894  13.637  0.00  0.00    +0.000 C 
BRANCH  16  17
ATOM     17  C   UNL     1      46.491   6.056  12.593  0.00  0.00    +0.000 A 
ATOM     18  C   UNL     1      45.857   4.862  12.963  0.00  0.00    +0.000 A 
ATOM     19  C   UNL     1      45.195   4.079  12.015  0.00  0.00    +0.000 A 
ATOM     20  C   UNL     1      45.155   4.474  10.671  0.00  0.00    +0.000 A 
ATOM     21  C   UNL     1      45.786   5.667  10.299  0.00  0.00    +0.000 A 
ATOM     22  C   UNL     1      46.465   6.440  11.246  0.00  0.00    +0.000 A 
BRANCH  20  23
ATOM     23  C   UNL     1      44.496   3.607   9.628  0.00  0.00    +0.000 C 
BRANCH  23  24
ATOM     24  O   UNL     1      45.179   2.361   9.489  0.00  0.00    +0.000 OA
BRANCH  24  25
ATOM     25  C   UNL     1      45.886   2.202   8.322  0.00  0.00    +0.000 A 
ATOM     26  C   UNL     1      46.589   1.052   7.952  0.00  0.00    +0.000 A 
ATOM     27  C   UNL     1      47.272   0.998   6.735  0.00  0.00    +0.000 A 
ATOM     28  C   UNL     1      47.243   2.089   5.869  0.00  0.00    +0.000 A 
ATOM     29  C   UNL     1      46.530   3.234   6.220  0.00  0.00    +0.000 A 
ATOM     30  C   UNL     1      45.863   3.292   7.448  0.00  0.00    +0.000 A 
ENDBRANCH  24  25
ENDBRANCH  23  24
ENDBRANCH  20  23
ENDBRANCH  16  17
ENDBRANCH   3  16
TORSDOF 6
ENDMDL
MODEL 9
REMARK VINA RESULT:    -7.025      4.633      8.944
REMARK INTER + INTRA:         -10.636
REMARK INTER:                  -9.740
REMARK INTRA:                  -0.896
REMARK UNBOUND:                -1.148
REMARK  Name = 
REMARK  6 active torsions:
REMARK  status: ('A' for Active; 'I' for Inactive)
REMARK    1  A    between atoms: C_2  and  C_19
REMARK    2  A    between atoms: N_3  and  C_4
REMARK    3  A    between atoms: C_4  and  C_5
REMARK    4  A    between atoms: C_8  and  C_9
REMARK    5  A    between atoms: C_9  and  O_10
REMARK    6  A    between atoms: O_10  and  C_11
REMARK                            x       y       z     vdW  Elec       q    Type
REMARK                         _______ _______ _______ _____ _____    ______ ____
ROOT
ATOM      1  O   UNL     1      47.069   3.017  14.060  0.00  0.00    +0.000 OA
ATOM      2  C   UNL     1      46.967   4.172  14.454  0.00  0.00    +0.000 C 
ATOM      3  N   UNL     1      47.133   4.533  15.769  0.00  0.00    +0.000 N 
ATOM      4  H   UNL     1      46.895   5.472  16.067  0.00  0.00    +0.000 HD
ENDROOT
BRANCH   2   5
ATOM      5  C   UNL     1      46.717   5.281  13.535  0.00  0.00    +0.000 A 
ATOM      6  C   UNL     1      47.712   6.194  13.204  0.00  0.00    +0.000 A 
ATOM      7  S   UNL     1      47.166   7.418  12.142  0.00  0.00    +0.000 S 
ATOM      8  C   UNL     1      45.607   6.738  12.068  0.00  0.00    +0.000 A 
ATOM      9  N   UNL     1      44.622   7.303  11.319  0.00  0.00    +0.000 NA
ATOM     10  C   UNL     1      43.506   6.654  11.328  0.00  0.00    +0.000 A 
ATOM     11  N   UNL     1      43.288   5.482  12.004  0.00  0.00    +0.000 N 
ATOM     12  C   UNL     1      44.219   4.908  12.827  0.00  0.00    +0.000 A 
ATOM     13  O   UNL     1      43.934   3.943  13.510  0.00  0.00    +0.000 OA
ATOM     14  C   UNL     1      45.503   5.597  12.839  0.00  0.00    +0.000 A 
ATOM     15  H   UNL     1      42.382   5.033  11.997  0.00  0.00    +0.000 HD
ENDBRANCH   2   5
BRANCH   3  16
ATOM     16  C   UNL     1      47.328   3.559  16.806  0.00  0.00    +0.000 C 
BRANCH  16  17
ATOM     17  C   UNL     1      48.783   3.294  17.100  0.00  0.00    +0.000 A 
ATOM     18  C   UNL     1      49.336   2.038  16.816  0.00  0.00    +0.000 A 
ATOM     19  C   UNL     1      50.685   1.777  17.065  0.00  0.00    +0.000 A 
ATOM     20  C   UNL     1      51.512   2.769  17.608  0.00  0.00    +0.000 A 
ATOM     21  C   UNL     1      50.963   4.025  17.890  0.00  0.00    +0.000 A 
ATOM     22  C   UNL     1      49.607   4.280  17.658  0.00  0.00    +0.000 A 
BRANCH  20  23
ATOM     23  C   UNL     1      52.955   2.481  17.937  0.00  0.00    +0.000 C 
BRANCH  23  24
ATOM     24  O   UNL     1      53.087   1.233  18.618  0.00  0.00    +0.000 OA
BRANCH  24  25
ATOM     25  C   UNL     1      53.794   0.266  17.946  0.00  0.00    +0.000 A 
ATOM     26  C   UNL     1      54.393   0.425  16.693  0.00  0.00    +0.000 A 
ATOM     27  C   UNL     1      55.095  -0.629  16.103  0.00  0.00    +0.000 A 
ATOM     28  C   UNL     1      55.222  -1.844  16.771  0.00  0.00    +0.000 A 
ATOM     29  C   UNL     1      54.645  -2.007  18.029  0.00  0.00    +0.000 A 
ATOM     30  C   UNL     1      53.925  -0.957  18.609  0.00  0.00    +0.000 A 
ENDBRANCH  24  25
ENDBRANCH  23  24
ENDBRANCH  20  23
ENDBRANCH  16  17
ENDBRANCH   3  16
TORSDOF 6
ENDMDL
