MODEL 1
REMARK VINA RESULT:    -7.471      0.000      0.000
REMARK INTER + INTRA:          -9.740
REMARK INTER:                  -9.218
REMARK INTRA:                  -0.522
REMARK UNBOUND:                -0.522
REMARK  Name = 
REMARK  4 active torsions:
REMARK  status: ('A' for Active; 'I' for Inactive)
REMARK    1  A    between atoms: C_2  and  C_4
REMARK    2  A    between atoms: N_8  and  C_9
REMARK    3  A    between atoms: C_9  and  C_10
REMARK    4  A    between atoms: C_10  and  C_11
REMARK                            x       y       z     vdW  Elec       q    Type
REMARK                         _______ _______ _______ _____ _____    ______ ____
ROOT
ATOM      1  C   UNL     1      46.216   2.106   8.048  0.00  0.00    +0.000 A 
ATOM      2  C   UNL     1      46.422   3.465   7.822  0.00  0.00    +0.000 A 
ATOM      3  C   UNL     1      45.555   4.396   8.412  0.00  0.00    +0.000 A 
ATOM      4  C   UNL     1      44.530   3.952   9.250  0.00  0.00    +0.000 A 
ATOM      5  N   UNL     1      43.620   4.871   9.805  0.00  0.00    +0.000 N 
ATOM      6  N   UNL     1      44.333   2.636   9.460  0.00  0.00    +0.000 NA
ATOM      7  C   UNL     1      45.151   1.745   8.852  0.00  0.00    +0.000 A 
ATOM      8  H   UNL     1      43.977   5.819   9.777  0.00  0.00    +0.000 HD
ENDROOT
BRANCH   1  10
ATOM      9  N   UNL     1      48.082   1.430   6.654  0.00  0.00    +0.000 N 
ATOM     10  C   UNL     1      47.055   1.041   7.471  0.00  0.00    +0.000 C 
ATOM     11  O   UNL     1      46.881  -0.141   7.747  0.00  0.00    +0.000 OA
ATOM     12  H   UNL     1      48.727   0.699   6.374  0.00  0.00    +0.000 HD
ATOM     13  H   UNL     1      48.419   2.380   6.632  0.00  0.00    +0.000 HD
ENDBRANCH   1  10
BRANCH   5  14
ATOM     14  C   UNL     1      43.212   4.484  11.161  0.00  0.00    +0.000 C 
BRANCH  14  15
ATOM     15  C   UNL     1      43.163   5.696  12.100  0.00  0.00    +0.000 C 
BRANCH  15  16
ATOM     16  C   UNL     1      44.481   5.874  12.894  0.00  0.00    +0.000 C 
ATOM     17  C   UNL     1      45.391   6.917  12.220  0.00  0.00    +0.000 C 
ATOM     18  C   UNL     1      46.724   7.084  12.954  0.00  0.00    +0.000 C 
ATOM     19  C   UNL     1      47.448   5.752  13.120  0.00  0.00    +0.000 C 
ATOM     20  C   UNL     1      46.562   4.734  13.821  0.00  0.00    +0.000 C 
ATOM     21  C   UNL     1      45.236   4.546  13.087  0.00  0.00    +0.000 C 
ENDBRANCH  15  16
ENDBRANCH  14  15
ENDBRANCH   5  14
TORSDOF 4
ENDMDL
MODEL 2
REMARK VINA RESULT:    -6.877      3.173      6.699
REMARK INTER + INTRA:          -9.007
REMARK INTER:                  -8.698
REMARK INTRA:                  -0.309
REMARK UNBOUND:                -0.522
REMARK  Name = 
REMARK  4 active torsions:
REMARK  status: ('A' for Active; 'I' for Inactive)
REMARK    1  A    between atoms: C_2  and  C_4
REMARK    2  A    between atoms: N_8  and  C_9
REMARK    3  A    between atoms: C_9  and  C_10
REMARK    4  A    between atoms: C_10  and  C_11
REMARK                            x       y       z     vdW  Elec       q    Type
REMARK                         _______ _______ _______ _____ _____    ______ ____
ROOT
ATOM      1  C   UNL     1      45.523   7.299  12.479  0.00  0.00    +0.000 A 
ATOM      2  C   UNL     1      46.147   6.209  13.083  0.00  0.00    +0.000 A 
ATOM      3  C   UNL     1      45.784   4.911  12.695  0.00  0.00    +0.000 A 
ATOM      4  C   UNL     1      44.841   4.731  11.681  0.00  0.00    +0.000 A 
ATOM      5  N   UNL     1      44.428   3.434  11.320  0.00  0.00    +0.000 N 
ATOM      6  N   UNL     1      44.237   5.788  11.105  0.00  0.00    +0.000 NA
ATOM      7  C   UNL     1      44.565   7.035  11.517  0.00  0.00    +0.000 A 
ATOM      8  H   UNL     1      45.083   2.728  11.636  0.00  0.00    +0.000 HD
ENDROOT
BRANCH   1  10
ATOM      9  N   UNL     1      44.775   9.589  12.755  0.00  0.00    +0.000 N 
ATOM     10  C   UNL     1      45.816   8.703  12.815  0.00  0.00    +0.000 C 
ATOM     11  O   UNL     1      46.929   9.061  13.185  0.00  0.00    +0.000 OA
ATOM     12  H   UNL     1      44.961  10.518  13.116  0.00  0.00    +0.000 HD
ATOM     13  H   UNL     1      43.814   9.285  12.730  0.00  0.00    +0.000 HD
ENDBRANCH   1  10
BRANCH   5  14
ATOM     14  C   UNL     1      44.166   3.326   9.880  0.00  0.00    +0.000 C 
BRANCH  14  15
ATOM     15  C   UNL     1      44.748   2.033   9.298  0.00  0.00    +0.000 C 
BRANCH  15  16
ATOM     16  C   UNL     1      45.966   2.301   8.378  0.00  0.00    +0.000 C 
ATOM     17  C   UNL     1      45.596   3.285   7.252  0.00  0.00    +0.000 C 
ATOM     18  C   UNL     1      46.765   3.535   6.296  0.00  0.00    +0.000 C 
ATOM     19  C   UNL     1      47.318   2.233   5.725  0.00  0.00    +0.000 C 
ATOM     20  C   UNL     1      47.718   1.277   6.839  0.00  0.00    +0.000 C 
ATOM     21  C   UNL     1      46.554   1.006   7.790  0.00  0.00    +0.000 C 
ENDBRANCH  15  16
ENDBRANCH  14  15
ENDBRANCH   5  14
TORSDOF 4
ENDMDL
MODEL 3
REMARK VINA RESULT:    -6.849      2.897      6.262
REMARK INTER + INTRA:          -8.973
REMARK INTER:                  -8.526
REMARK INTRA:                  -0.447
REMARK UNBOUND:                -0.522
REMARK  Name = 
REMARK  4 active torsions:
REMARK  status: ('A' for Active; 'I' for Inactive)
REMARK    1  A    between atoms: C_2  and  C_4
REMARK    2  A    between atoms: N_8  and  C_9
REMARK    3  A    between atoms: C_9  and  C_10
REMARK    4  A    between atoms: C_10  and  C_11
REMARK                            x       y       z     vdW  Elec       q    Type
REMARK                         _______ _______ _______ _____ _____    ______ ____
ROOT
ATOM      1  C   UNL     1      46.837   6.064  12.925  0.00  0.00    +0.000 A 
ATOM      2  C   UNL     1      45.935   5.265  13.625  0.00  0.00    +0.000 A 
ATOM      3  C   UNL     1      44.854   4.692  12.941  0.00  0.00    +0.000 A 
ATOM      4  C   UNL     1      44.721   4.891  11.566  0.00  0.00    +0.000 A 
ATOM      5  N   UNL     1      43.611   4.367  10.877  0.00  0.00    +0.000 N 
ATOM      6  N   UNL     1      45.593   5.669  10.895  0.00  0.00    +0.000 NA
ATOM      7  C   UNL     1      46.609   6.251  11.574  0.00  0.00    +0.000 A 
ATOM      8  H   UNL     1      43.153   3.632  11.404  0.00  0.00    +0.000 HD
ENDROOT
BRANCH   1  10
ATOM      9  N   UNL     1      47.764   7.499  14.645  0.00  0.00    +0.000 N 
ATOM     10  C   UNL     1      48.000   6.724  13.542  0.00  0.00    +0.000 C 
ATOM     11  O   UNL     1      49.139   6.552  13.123  0.00  0.00    +0.000 OA
ATOM     12  H   UNL     1      48.586   7.836  15.133  0.00  0.00    +0.000 HD
ATOM     13  H   UNL     1      46.906   7.437  15.169  0.00  0.00    +0.000 HD
ENDBRANCH   1  10
BRANCH   5  14
ATOM     14  C   UNL     1      43.967   3.924   9.524  0.00  0.00    +0.000 C 
BRANCH  14  15
ATOM     15  C   UNL     1      44.689   2.572   9.547  0.00  0.00    +0.000 C 
BRANCH  15  16
ATOM     16  C   UNL     1      45.905   2.541   8.586  0.00  0.00    +0.000 C 
ATOM     17  C   UNL     1      45.688   3.494   7.397  0.00  0.00    +0.000 C 
ATOM     18  C   UNL     1      46.851   3.452   6.402  0.00  0.00    +0.000 C 
ATOM     19  C   UNL     1      47.133   2.032   5.921  0.00  0.00    +0.000 C 
ATOM     20  C   UNL     1      47.385   1.099   7.096  0.00  0.00    +0.000 C 
ATOM     21  C   UNL     1      46.222   1.120   8.086  0.00  0.00    +0.000 C 
ENDBRANCH  15  16
ENDBRANCH  14  15
ENDBRANCH   5  14
TORSDOF 4
ENDMDL
MODEL 4
REMARK VINA RESULT:    -6.489      2.990      6.197
REMARK INTER + INTRA:          -8.528
REMARK INTER:                  -8.110
REMARK INTRA:                  -0.418
REMARK UNBOUND:                -0.522
REMARK  Name = 
REMARK  4 active torsions:
REMARK  status: ('A' for Active; 'I' for Inactive)
REMARK    1  A    between atoms: C_2  and  C_4
REMARK    2  A    between atoms: N_8  and  C_9
REMARK    3  A    between atoms: C_9  and  C_10
REMARK    4  A    between atoms: C_10  and  C_11
REMARK                            x       y       z     vdW  Elec       q    Type
REMARK                         _______ _______ _______ _____ _____    ______ ____
ROOT
ATOM      1  C   UNL     1      46.828   4.653  14.022  0.00  0.00    +0.000 A 
ATOM      2  C   UNL     1      46.803   5.962  13.542  0.00  0.00    +0.000 A 
ATOM      3  C   UNL     1      46.298   6.209  12.258  0.00  0.00    +0.000 A 
ATOM      4  C   UNL     1      45.788   5.153  11.500  0.00  0.00    +0.000 A 
ATOM      5  N   UNL     1      45.328   5.380  10.189  0.00  0.00    +0.000 N 
ATOM      6  N   UNL     1      45.820   3.890  11.967  0.00  0.00    +0.000 NA
ATOM      7  C   UNL     1      46.349   3.658  13.191  0.00  0.00    +0.000 A 
ATOM      8  H   UNL     1      45.138   6.361  10.020  0.00  0.00    +0.000 HD
ENDROOT
BRANCH   1  10
ATOM      9  N   UNL     1      47.353   5.244  16.315  0.00  0.00    +0.000 N 
ATOM     10  C   UNL     1      47.346   4.275  15.349  0.00  0.00    +0.000 C 
ATOM     11  O   UNL     1      47.709   3.131  15.599  0.00  0.00    +0.000 OA
ATOM     12  H   UNL     1      47.586   4.934  17.252  0.00  0.00    +0.000 HD
ATOM     13  H   UNL     1      46.814   6.092  16.227  0.00  0.00    +0.000 HD
ENDBRANCH   1  10
BRANCH   5  14
ATOM     14  C   UNL     1      44.171   4.537   9.863  0.00  0.00    +0.000 C 
BRANCH  14  15
ATOM     15  C   UNL     1      44.280   3.957   8.447  0.00  0.00    +0.000 C 
BRANCH  15  16
ATOM     16  C   UNL     1      45.585   3.148   8.245  0.00  0.00    +0.000 C 
ATOM     17  C   UNL     1      46.281   3.549   6.931  0.00  0.00    +0.000 C 
ATOM     18  C   UNL     1      47.551   2.734   6.676  0.00  0.00    +0.000 C 
ATOM     19  C   UNL     1      47.277   1.234   6.715  0.00  0.00    +0.000 C 
ATOM     20  C   UNL     1      46.625   0.833   8.029  0.00  0.00    +0.000 C 
ATOM     21  C   UNL     1      45.346   1.628   8.285  0.00  0.00    +0.000 C 
ENDBRANCH  15  16
ENDBRANCH  14  15
ENDBRANCH   5  14
TORSDOF 4
ENDMDL
MODEL 5
REMARK VINA RESULT:    -6.291      3.900      5.457
REMARK INTER + INTRA:          -8.283
REMARK INTER:                  -8.005
REMARK INTRA:                  -0.278
REMARK UNBOUND:                -0.522
REMARK  Name = 
REMARK  4 active torsions:
REMARK  status: ('A' for Active; 'I' for Inactive)
REMARK    1  A    between atoms: C_2  and  C_4
REMARK    2  A    between atoms: N_8  and  C_9
REMARK    3  A    between atoms: C_9  and  C_10
REMARK    4  A    between atoms: C_10  and  C_11
REMARK                            x       y       z     vdW  Elec       q    Type
REMARK                         _______ _______ _______ _____ _____    ______ ____
ROOT
ATOM      1  C   UNL     1      44.964   4.051  10.982  0.00  0.00    +0.000 A 
ATOM      2  C   UNL     1      45.482   5.332  11.164  0.00  0.00    +0.000 A 
ATOM      3  C   UNL     1      46.028   5.677  12.408  0.00  0.00    +0.000 A 
ATOM      4  C   UNL     1      46.086   4.725  13.427  0.00  0.00    +0.000 A 
ATOM      5  N   UNL     1      46.582   5.075  14.698  0.00  0.00    +0.000 N 
ATOM      6  N   UNL     1      45.578   3.490  13.247  0.00  0.00    +0.000 NA
ATOM      7  C   UNL     1      45.016   3.181  12.055  0.00  0.00    +0.000 A 
ATOM      8  H   UNL     1      47.131   5.926  14.667  0.00  0.00    +0.000 HD
ENDROOT
BRANCH   1  10
ATOM      9  N   UNL     1      43.989   4.537   8.816  0.00  0.00    +0.000 N 
ATOM     10  C   UNL     1      44.357   3.582   9.724  0.00  0.00    +0.000 C 
ATOM     11  O   UNL     1      44.231   2.389   9.471  0.00  0.00    +0.000 OA
ATOM     12  H   UNL     1      43.697   4.196   7.906  0.00  0.00    +0.000 HD
ATOM     13  H   UNL     1      44.327   5.485   8.869  0.00  0.00    +0.000 HD
ENDBRANCH   1  10
BRANCH   5  14
ATOM     14  C   UNL     1      47.324   3.971  15.317  0.00  0.00    +0.000 C 
BRANCH  14  15
ATOM     15  C   UNL     1      47.236   4.023  16.847  0.00  0.00    +0.000 C 
BRANCH  15  16
ATOM     16  C   UNL     1      48.533   3.516  17.526  0.00  0.00    +0.000 C 
ATOM     17  C   UNL     1      49.525   4.673  17.746  0.00  0.00    +0.000 C 
ATOM     18  C   UNL     1      50.838   4.197  18.373  0.00  0.00    +0.000 C 
ATOM     19  C   UNL     1      51.478   3.075  17.562  0.00  0.00    +0.000 C 
ATOM     20  C   UNL     1      50.509   1.916  17.378  0.00  0.00    +0.000 C 
ATOM     21  C   UNL     1      49.202   2.376  16.737  0.00  0.00    +0.000 C 
ENDBRANCH  15  16
ENDBRANCH  14  15
ENDBRANCH   5  14
TORSDOF 4
ENDMDL
MODEL 6
REMARK VINA RESULT:    -5.744      4.871      7.498
REMARK INTER + INTRA:          -7.609
REMARK INTER:                  -7.352
REMARK INTRA:                  -0.257
REMARK UNBOUND:                -0.522
REMARK  Name = 
REMARK  4 active torsions:
REMARK  status: ('A' for Active; 'I' for Inactive)
REMARK    1  A    between atoms: C_2  and  C_4
REMARK    2  A    between atoms: N_8  and  C_9
REMARK    3  A    between atoms: C_9  and  C_10
REMARK    4  A    between atoms: C_10  and  C_11
REMARK                            x       y       z     vdW  Elec       q    Type
REMARK                         _______ _______ _______ _____ _____    ______ ____
ROOT
ATOM      1  C   UNL     1      48.395   4.660  17.228  0.00  0.00    +0.000 A 
ATOM      2  C   UNL     1      48.725   5.773  16.456  0.00  0.00    +0.000 A 
ATOM      3  C   UNL     1      48.150   5.919  15.186  0.00  0.00    +0.000 A 
ATOM      4  C   UNL     1      47.224   4.976  14.733  0.00  0.00    +0.000 A 
ATOM      5  N   UNL     1      46.680   5.082  13.439  0.00  0.00    +0.000 N 
ATOM      6  N   UNL     1      46.913   3.900  15.482  0.00  0.00    +0.000 NA
ATOM      7  C   UNL     1      47.507   3.749  16.689  0.00  0.00    +0.000 A 
ATOM      8  H   UNL     1      46.794   6.013  13.056  0.00  0.00    +0.000 HD
ENDROOT
BRANCH   1  10
ATOM      9  N   UNL     1      48.402   3.363  19.276  0.00  0.00    +0.000 N 
ATOM     10  C   UNL     1      48.947   4.399  18.569  0.00  0.00    +0.000 C 
ATOM     11  O   UNL     1      49.889   5.044  19.017  0.00  0.00    +0.000 OA
ATOM     12  H   UNL     1      48.878   3.113  20.136  0.00  0.00    +0.000 HD
ATOM     13  H   UNL     1      47.835   2.654  18.837  0.00  0.00    +0.000 HD
ENDBRANCH   1  10
BRANCH   5  14
ATOM     14  C   UNL     1      45.279   4.645  13.399  0.00  0.00    +0.000 C 
BRANCH  14  15
ATOM     15  C   UNL     1      44.591   5.084  12.101  0.00  0.00    +0.000 C 
BRANCH  15  16
ATOM     16  C   UNL     1      45.075   4.267  10.876  0.00  0.00    +0.000 C 
ATOM     17  C   UNL     1      45.376   5.192   9.684  0.00  0.00    +0.000 C 
ATOM     18  C   UNL     1      45.812   4.412   8.441  0.00  0.00    +0.000 C 
ATOM     19  C   UNL     1      44.793   3.342   8.060  0.00  0.00    +0.000 C 
ATOM     20  C   UNL     1      44.525   2.405   9.228  0.00  0.00    +0.000 C 
ATOM     21  C   UNL     1      44.073   3.172  10.468  0.00  0.00    +0.000 C 
ENDBRANCH  15  16
ENDBRANCH  14  15
ENDBRANCH   5  14
TORSDOF 4
ENDMDL
MODEL 7
REMARK VINA RESULT:    -5.731      4.278      5.850
REMARK INTER + INTRA:          -7.593
REMARK INTER:                  -7.319
REMARK INTRA:                  -0.274
REMARK UNBOUND:                -0.522
REMARK  Name = 
REMARK  4 active torsions:
REMARK  status: ('A' for Active; 'I' for Inactive)
REMARK    1  A    between atoms: C_2  and  C_4
REMARK    2  A    between atoms: N_8  and  C_9
REMARK    3  A    between atoms: C_9  and  C_10
REMARK    4  A    between atoms: C_10  and  C_11
REMARK                            x       y       z     vdW  Elec       q    Type
REMARK                         _______ _______ _______ _____ _____    ______ ____
ROOT
ATOM      1  C   UNL     1      45.157   4.436  11.289  0.00  0.00    +0.000 A 
ATOM      2  C   UNL     1      45.885   5.620  11.395  0.00  0.00    +0.000 A 
ATOM      3  C   UNL     1      46.504   5.934  12.613  0.00  0.00    +0.000 A 
ATOM      4  C   UNL     1      46.421   5.040  13.683  0.00  0.00    +0.000 A 
ATOM      5  N   UNL     1      46.992   5.369  14.927  0.00  0.00    +0.000 N 
ATOM      6  N   UNL     1      45.711   3.900  13.575  0.00  0.00    +0.000 NA
ATOM      7  C   UNL     1      45.083   3.628  12.408  0.00  0.00    +0.000 A 
ATOM      8  H   UNL     1      47.675   6.113  14.844  0.00  0.00    +0.000 HD
ENDROOT
BRANCH   1  10
ATOM      9  N   UNL     1      44.722   4.710   8.919  0.00  0.00    +0.000 N 
ATOM     10  C   UNL     1      44.456   4.010  10.065  0.00  0.00    +0.000 C 
ATOM     11  O   UNL     1      43.706   3.040  10.053  0.00  0.00    +0.000 OA
ATOM     12  H   UNL     1      44.336   4.323   8.064  0.00  0.00    +0.000 HD
ATOM     13  H   UNL     1      45.524   5.315   8.835  0.00  0.00    +0.000 HD
ENDBRANCH   1  10
BRANCH   5  14
ATOM     14  C   UNL     1      47.552   4.190  15.599  0.00  0.00    +0.000 C 
BRANCH  14  15
ATOM     15  C   UNL     1      46.994   4.035  17.019  0.00  0.00    +0.000 C 
BRANCH  15  16
ATOM     16  C   UNL     1      47.778   4.883  18.051  0.00  0.00    +0.000 C 
ATOM     17  C   UNL     1      48.645   3.986  18.953  0.00  0.00    +0.000 C 
ATOM     18  C   UNL     1      49.397   4.789  20.016  0.00  0.00    +0.000 C 
ATOM     19  C   UNL     1      48.453   5.650  20.849  0.00  0.00    +0.000 C 
ATOM     20  C   UNL     1      47.623   6.564  19.959  0.00  0.00    +0.000 C 
ATOM     21  C   UNL     1      46.854   5.771  18.905  0.00  0.00    +0.000 C 
ENDBRANCH  15  16
ENDBRANCH  14  15
ENDBRANCH   5  14
TORSDOF 4
ENDMDL
MODEL 8
REMARK VINA RESULT:    -5.543      3.698      5.460
REMARK INTER + INTRA:          -7.361
REMARK INTER:                  -7.051
REMARK INTRA:                  -0.310
REMARK UNBOUND:                -0.522
REMARK  Name = 
REMARK  4 active torsions:
REMARK  status: ('A' for Active; 'I' for Inactive)
REMARK    1  A    between atoms: C_2  and  C_4
REMARK    2  A    between atoms: N_8  and  C_9
REMARK    3  A    between atoms: C_9  and  C_10
REMARK    4  A    between atoms: C_10  and  C_11
REMARK                            x       y       z     vdW  Elec       q    Type
REMARK                         _______ _______ _______ _____ _____    ______ ____
ROOT
ATOM      1  C   UNL     1      45.075   4.265  11.666  0.00  0.00    +0.000 A 
ATOM      2  C   UNL     1      45.260   5.563  11.192  0.00  0.00    +0.000 A 
ATOM      3  C   UNL     1      46.004   6.471  11.957  0.00  0.00    +0.000 A 
ATOM      4  C   UNL     1      46.584   6.053  13.156  0.00  0.00    +0.000 A 
ATOM      5  N   UNL     1      47.288   6.970  13.960  0.00  0.00    +0.000 N 
ATOM      6  N   UNL     1      46.398   4.799  13.612  0.00  0.00    +0.000 NA
ATOM      7  C   UNL     1      45.643   3.944  12.885  0.00  0.00    +0.000 A 
ATOM      8  H   UNL     1      47.560   7.797  13.441  0.00  0.00    +0.000 HD
ENDROOT
BRANCH   1  10
ATOM      9  N   UNL     1      44.988   2.439  10.073  0.00  0.00    +0.000 N 
ATOM     10  C   UNL     1      44.303   3.232  10.953  0.00  0.00    +0.000 C 
ATOM     11  O   UNL     1      43.110   3.051  11.172  0.00  0.00    +0.000 OA
ATOM     12  H   UNL     1      44.473   1.652   9.693  0.00  0.00    +0.000 HD
ATOM     13  H   UNL     1      45.994   2.376  10.080  0.00  0.00    +0.000 HD
ENDBRANCH   1  10
BRANCH   5  14
ATOM     14  C   UNL     1      48.437   6.343  14.625  0.00  0.00    +0.000 C 
BRANCH  14  15
ATOM     15  C   UNL     1      48.510   6.734  16.106  0.00  0.00    +0.000 C 
BRANCH  15  16
ATOM     16  C   UNL     1      48.725   5.506  17.026  0.00  0.00    +0.000 C 
ATOM     17  C   UNL     1      50.214   5.117  17.083  0.00  0.00    +0.000 C 
ATOM     18  C   UNL     1      50.455   3.876  17.946  0.00  0.00    +0.000 C 
ATOM     19  C   UNL     1      49.599   2.698  17.495  0.00  0.00    +0.000 C 
ATOM     20  C   UNL     1      48.124   3.072  17.475  0.00  0.00    +0.000 C 
ATOM     21  C   UNL     1      47.869   4.298  16.602  0.00  0.00    +0.000 C 
ENDBRANCH  15  16
ENDBRANCH  14  15
ENDBRANCH   5  14
TORSDOF 4
ENDMDL
MODEL 9
REMARK VINA RESULT:    -5.278      3.556      5.351
REMARK INTER + INTRA:          -7.033
REMARK INTER:                  -6.731
REMARK INTRA:                  -0.303
REMARK UNBOUND:                -0.522
REMARK  Name = 
REMARK  4 active torsions:
REMARK  status: ('A' for Active; 'I' for Inactive)
REMARK    1  A    between atoms: C_2  and  C_4
REMARK    2  A    between atoms: N_8  and  C_9
REMARK    3  A    between atoms: C_9  and  C_10
REMARK    4  A    between atoms: C_10  and  C_11
REMARK                            x       y       z     vdW  Elec       q    Type
REMARK                         _______ _______ _______ _____ _____    ______ ____
ROOT
ATOM      1  C   UNL     1      44.596   4.050  11.654  0.00  0.00    +0.000 A 
ATOM      2  C   UNL     1      44.267   5.361  11.317  0.00  0.00    +0.000 A 
ATOM      3  C   UNL     1      44.940   6.418  11.945  0.00  0.00    +0.000 A 
ATOM      4  C   UNL     1      45.956   6.144  12.863  0.00  0.00    +0.000 A 
ATOM      5  N   UNL     1      46.602   7.194  13.541  0.00  0.00    +0.000 N 
ATOM      6  N   UNL     1      46.266   4.873  13.189  0.00  0.00    +0.000 NA
ATOM      7  C   UNL     1      45.581   3.862  12.606  0.00  0.00    +0.000 A 
ATOM      8  H   UNL     1      46.465   8.084  13.076  0.00  0.00    +0.000 HD
ENDROOT
BRANCH   1  10
ATOM      9  N   UNL     1      44.576   2.271  10.006  0.00  0.00    +0.000 N 
ATOM     10  C   UNL     1      43.948   2.864  11.067  0.00  0.00    +0.000 C 
ATOM     11  O   UNL     1      42.917   2.392  11.536  0.00  0.00    +0.000 OA
ATOM     12  H   UNL     1      44.189   1.384   9.701  0.00  0.00    +0.000 HD
ATOM     13  H   UNL     1      45.540   2.458   9.782  0.00  0.00    +0.000 HD
ENDBRANCH   1  10
BRANCH   5  14
ATOM     14  C   UNL     1      48.025   6.909  13.761  0.00  0.00    +0.000 C 
BRANCH  14  15
ATOM     15  C   UNL     1      48.823   6.988  12.454  0.00  0.00    +0.000 C 
BRANCH  15  16
ATOM     16  C   UNL     1      49.540   8.352  12.288  0.00  0.00    +0.000 C 
ATOM     17  C   UNL     1      48.601   9.392  11.650  0.00  0.00    +0.000 C 
ATOM     18  C   UNL     1      49.295  10.738  11.428  0.00  0.00    +0.000 C 
ATOM     19  C   UNL     1      50.576  10.587  10.615  0.00  0.00    +0.000 C 
ATOM     20  C   UNL     1      51.520   9.587  11.267  0.00  0.00    +0.000 C 
ATOM     21  C   UNL     1      50.844   8.234  11.477  0.00  0.00    +0.000 C 
ENDBRANCH  15  16
ENDBRANCH  14  15
ENDBRANCH   5  14
TORSDOF 4
ENDMDL
