MODEL 1
REMARK VINA RESULT:    -7.291      0.000      0.000
REMARK INTER + INTRA:         -10.255
REMARK INTER:                  -9.422
REMARK INTRA:                  -0.833
REMARK UNBOUND:                -0.833
REMARK  Name = 
REMARK  5 active torsions:
REMARK  status: ('A' for Active; 'I' for Inactive)
REMARK    1  A    between atoms: C_2  and  C_4
REMARK    2  A    between atoms: C_8  and  O_9
REMARK    3  A    between atoms: O_9  and  C_10
REMARK    4  A    between atoms: C_10  and  C_11
REMARK    5  A    between atoms: C_16  and  N_17
REMARK                            x       y       z     vdW  Elec       q    Type
REMARK                         _______ _______ _______ _____ _____    ______ ____
ROOT
ATOM      1  C   UNL     1      48.090   6.738  13.887  0.00  0.00    +0.000 A 
ATOM      2  C   UNL     1      48.059   7.874  13.088  0.00  0.00    +0.000 A 
ATOM      3  F   UNL     1      48.996   8.821  13.228  0.00  0.00    +0.000 F 
ATOM      4  C   UNL     1      47.049   8.065  12.156  0.00  0.00    +0.000 A 
ATOM      5  C   UNL     1      46.047   7.101  12.014  0.00  0.00    +0.000 A 
ATOM      6  C   UNL     1      46.024   5.933  12.795  0.00  0.00    +0.000 A 
ATOM      7  C   UNL     1      47.079   5.783  13.724  0.00  0.00    +0.000 A 
ATOM      8  F   UNL     1      47.140   4.674  14.484  0.00  0.00    +0.000 F 
ENDROOT
BRANCH   6   9
ATOM      9  N   UNL     1      44.995   5.019  12.669  0.00  0.00    +0.000 N 
ATOM     10  C   UNL     1      45.206   3.617  12.285  0.00  0.00    +0.000 C 
ATOM     11  C   UNL     1      44.278   3.241  11.108  0.00  0.00    +0.000 C 
ATOM     12  N   UNL     1      42.849   3.518  11.377  0.00  0.00    +0.000 NA
ATOM     13  C   UNL     1      42.703   4.942  11.746  0.00  0.00    +0.000 C 
ATOM     14  C   UNL     1      43.594   5.386  12.934  0.00  0.00    +0.000 C 
ATOM     15  H   UNL     1      42.567   2.958  12.181  0.00  0.00    +0.000 HD
ENDBRANCH   6   9
BRANCH   1  16
ATOM     16  C   UNL     1      49.175   6.540  14.899  0.00  0.00    +0.000 C 
BRANCH  16  17
ATOM     17  O   UNL     1      48.683   6.878  16.199  0.00  0.00    +0.000 OA
BRANCH  17  22
ATOM     18  C   UNL     1      49.283   3.618  17.537  0.00  0.00    +0.000 A 
ATOM     19  C   UNL     1      48.700   3.679  18.794  0.00  0.00    +0.000 A 
ATOM     20  C   UNL     1      48.103   4.875  19.179  0.00  0.00    +0.000 A 
ATOM     21  C   UNL     1      48.104   5.954  18.294  0.00  0.00    +0.000 A 
ATOM     22  C   UNL     1      48.708   5.795  17.056  0.00  0.00    +0.000 A 
ATOM     23  N   UNL     1      49.304   4.654  16.656  0.00  0.00    +0.000 NA
BRANCH  18  25
ATOM     24  N   UNL     1      51.019   1.958  17.820  0.00  0.00    +0.000 N 
ATOM     25  C   UNL     1      49.949   2.362  17.068  0.00  0.00    +0.000 C 
ATOM     26  O   UNL     1      49.568   1.734  16.090  0.00  0.00    +0.000 OA
ATOM     27  H   UNL     1      51.516   1.116  17.570  0.00  0.00    +0.000 HD
ATOM     28  H   UNL     1      51.295   2.502  18.630  0.00  0.00    +0.000 HD
ENDBRANCH  18  25
ENDBRANCH  17  22
ENDBRANCH  16  17
ENDBRANCH   1  16
TORSDOF 5
ENDMDL
MODEL 2
REMARK VINA RESULT:    -7.183      1.561      1.926
REMARK INTER + INTRA:         -10.116
REMARK INTER:                  -9.210
REMARK INTRA:                  -0.905
REMARK UNBOUND:                -0.833
REMARK  Name = 
REMARK  5 active torsions:
REMARK  status: ('A' for Active; 'I' for Inactive)
REMARK    1  A    between atoms: C_2  and  C_4
REMARK    2  A    between atoms: C_8  and  O_9
REMARK    3  A    between atoms: O_9  and  C_10
REMARK    4  A    between atoms: C_10  and  C_11
REMARK    5  A    between atoms: C_16  and  N_17
REMARK                            x       y       z     vdW  Elec       q    Type
REMARK                         _______ _______ _______ _____ _____    ______ ____
ROOT
ATOM      1  C   UNL     1      47.178   7.118  12.859  0.00  0.00    +0.000 A 
ATOM      2  C   UNL     1      46.759   8.405  12.545  0.00  0.00    +0.000 A 
ATOM      3  F   UNL     1      47.524   9.457  12.864  0.00  0.00    +0.000 F 
ATOM      4  C   UNL     1      45.539   8.627  11.925  0.00  0.00    +0.000 A 
ATOM      5  C   UNL     1      44.716   7.544  11.607  0.00  0.00    +0.000 A 
ATOM      6  C   UNL     1      45.084   6.220  11.904  0.00  0.00    +0.000 A 
ATOM      7  C   UNL     1      46.340   6.046  12.528  0.00  0.00    +0.000 A 
ATOM      8  F   UNL     1      46.773   4.805  12.812  0.00  0.00    +0.000 F 
ENDROOT
BRANCH   6   9
ATOM      9  N   UNL     1      44.229   5.170  11.623  0.00  0.00    +0.000 N 
ATOM     10  C   UNL     1      43.367   4.542  12.633  0.00  0.00    +0.000 C 
ATOM     11  C   UNL     1      43.561   3.009  12.620  0.00  0.00    +0.000 C 
ATOM     12  N   UNL     1      43.358   2.403  11.286  0.00  0.00    +0.000 NA
ATOM     13  C   UNL     1      44.259   3.070  10.321  0.00  0.00    +0.000 C 
ATOM     14  C   UNL     1      44.106   4.611  10.267  0.00  0.00    +0.000 C 
ATOM     15  H   UNL     1      42.398   2.593  10.997  0.00  0.00    +0.000 HD
ENDBRANCH   6   9
BRANCH   1  16
ATOM     16  C   UNL     1      48.490   6.882  13.539  0.00  0.00    +0.000 C 
BRANCH  16  17
ATOM     17  O   UNL     1      48.501   7.549  14.804  0.00  0.00    +0.000 OA
BRANCH  17  22
ATOM     18  C   UNL     1      48.496   4.582  16.799  0.00  0.00    +0.000 A 
ATOM     19  C   UNL     1      49.128   4.984  17.966  0.00  0.00    +0.000 A 
ATOM     20  C   UNL     1      49.568   6.301  18.049  0.00  0.00    +0.000 A 
ATOM     21  C   UNL     1      49.353   7.162  16.973  0.00  0.00    +0.000 A 
ATOM     22  C   UNL     1      48.708   6.669  15.849  0.00  0.00    +0.000 A 
ATOM     23  N   UNL     1      48.278   5.397  15.731  0.00  0.00    +0.000 NA
BRANCH  18  25
ATOM     24  N   UNL     1      46.996   2.817  17.493  0.00  0.00    +0.000 N 
ATOM     25  C   UNL     1      48.007   3.176  16.644  0.00  0.00    +0.000 C 
ATOM     26  O   UNL     1      48.469   2.400  15.817  0.00  0.00    +0.000 OA
ATOM     27  H   UNL     1      46.609   1.886  17.444  0.00  0.00    +0.000 HD
ATOM     28  H   UNL     1      46.635   3.494  18.156  0.00  0.00    +0.000 HD
ENDBRANCH  18  25
ENDBRANCH  17  22
ENDBRANCH  16  17
ENDBRANCH   1  16
TORSDOF 5
ENDMDL
MODEL 3
REMARK VINA RESULT:    -6.716      2.354      6.721
REMARK INTER + INTRA:          -9.512
REMARK INTER:                  -8.742
REMARK INTRA:                  -0.770
REMARK UNBOUND:                -0.833
REMARK  Name = 
REMARK  5 active torsions:
REMARK  status: ('A' for Active; 'I' for Inactive)
REMARK    1  A    between atoms: C_2  and  C_4
REMARK    2  A    between atoms: C_8  and  O_9
REMARK    3  A    between atoms: O_9  and  C_10
REMARK    4  A    between atoms: C_10  and  C_11
REMARK    5  A    between atoms: C_16  and  N_17
REMARK                            x       y       z     vdW  Elec       q    Type
REMARK                         _______ _______ _______ _____ _____    ______ ____
ROOT
ATOM      1  C   UNL     1      48.044   6.444  13.625  0.00  0.00    +0.000 A 
ATOM      2  C   UNL     1      49.026   7.409  13.816  0.00  0.00    +0.000 A 
ATOM      3  F   UNL     1      49.393   8.205  12.804  0.00  0.00    +0.000 F 
ATOM      4  C   UNL     1      49.661   7.547  15.041  0.00  0.00    +0.000 A 
ATOM      5  C   UNL     1      49.311   6.709  16.102  0.00  0.00    +0.000 A 
ATOM      6  C   UNL     1      48.329   5.713  15.967  0.00  0.00    +0.000 A 
ATOM      7  C   UNL     1      47.705   5.618  14.702  0.00  0.00    +0.000 A 
ATOM      8  F   UNL     1      46.732   4.709  14.509  0.00  0.00    +0.000 F 
ENDROOT
BRANCH   6   9
ATOM      9  N   UNL     1      48.035   4.863  17.018  0.00  0.00    +0.000 N 
ATOM     10  C   UNL     1      47.627   5.338  18.347  0.00  0.00    +0.000 C 
ATOM     11  C   UNL     1      48.501   4.681  19.439  0.00  0.00    +0.000 C 
ATOM     12  N   UNL     1      48.511   3.203  19.373  0.00  0.00    +0.000 NA
ATOM     13  C   UNL     1      48.938   2.792  18.019  0.00  0.00    +0.000 C 
ATOM     14  C   UNL     1      48.092   3.400  16.872  0.00  0.00    +0.000 C 
ATOM     15  H   UNL     1      47.554   2.876  19.509  0.00  0.00    +0.000 HD
ENDBRANCH   6   9
BRANCH   1  16
ATOM     16  C   UNL     1      47.368   6.290  12.298  0.00  0.00    +0.000 C 
BRANCH  16  17
ATOM     17  O   UNL     1      46.056   6.856  12.361  0.00  0.00    +0.000 OA
BRANCH  17  22
ATOM     18  C   UNL     1      44.171   4.268  10.771  0.00  0.00    +0.000 A 
ATOM     19  C   UNL     1      43.090   4.094  11.622  0.00  0.00    +0.000 A 
ATOM     20  C   UNL     1      43.029   4.882  12.767  0.00  0.00    +0.000 A 
ATOM     21  C   UNL     1      44.039   5.814  13.010  0.00  0.00    +0.000 A 
ATOM     22  C   UNL     1      45.077   5.917  12.097  0.00  0.00    +0.000 A 
ATOM     23  N   UNL     1      45.173   5.163  10.984  0.00  0.00    +0.000 NA
BRANCH  18  25
ATOM     24  N   UNL     1      44.290   4.155   8.358  0.00  0.00    +0.000 N 
ATOM     25  C   UNL     1      44.299   3.445   9.527  0.00  0.00    +0.000 C 
ATOM     26  O   UNL     1      44.411   2.226   9.547  0.00  0.00    +0.000 OA
ATOM     27  H   UNL     1      44.379   3.670   7.477  0.00  0.00    +0.000 HD
ATOM     28  H   UNL     1      44.206   5.166   8.387  0.00  0.00    +0.000 HD
ENDBRANCH  18  25
ENDBRANCH  17  22
ENDBRANCH  16  17
ENDBRANCH   1  16
TORSDOF 5
ENDMDL
MODEL 4
REMARK VINA RESULT:    -6.610      2.930      7.579
REMARK INTER + INTRA:          -9.375
REMARK INTER:                  -8.529
REMARK INTRA:                  -0.846
REMARK UNBOUND:                -0.833
REMARK  Name = 
REMARK  5 active torsions:
REMARK  status: ('A' for Active; 'I' for Inactive)
REMARK    1  A    between atoms: C_2  and  C_4
REMARK    2  A    between atoms: C_8  and  O_9
REMARK    3  A    between atoms: O_9  and  C_10
REMARK    4  A    between atoms: C_10  and  C_11
REMARK    5  A    between atoms: C_16  and  N_17
REMARK                            x       y       z     vdW  Elec       q    Type
REMARK                         _______ _______ _______ _____ _____    ______ ____
ROOT
ATOM      1  C   UNL     1      48.457   3.970  16.644  0.00  0.00    +0.000 A 
ATOM      2  C   UNL     1      49.266   2.890  16.973  0.00  0.00    +0.000 A 
ATOM      3  F   UNL     1      48.906   1.648  16.625  0.00  0.00    +0.000 F 
ATOM      4  C   UNL     1      50.442   3.071  17.687  0.00  0.00    +0.000 A 
ATOM      5  C   UNL     1      50.822   4.356  18.082  0.00  0.00    +0.000 A 
ATOM      6  C   UNL     1      50.042   5.486  17.781  0.00  0.00    +0.000 A 
ATOM      7  C   UNL     1      48.859   5.250  17.045  0.00  0.00    +0.000 A 
ATOM      8  F   UNL     1      48.078   6.288  16.693  0.00  0.00    +0.000 F 
ENDROOT
BRANCH   6   9
ATOM      9  N   UNL     1      50.416   6.741  18.226  0.00  0.00    +0.000 N 
ATOM     10  C   UNL     1      50.137   7.230  19.582  0.00  0.00    +0.000 C 
ATOM     11  C   UNL     1      49.448   8.612  19.519  0.00  0.00    +0.000 C 
ATOM     12  N   UNL     1      50.205   9.609  18.730  0.00  0.00    +0.000 NA
ATOM     13  C   UNL     1      50.444   9.062  17.377  0.00  0.00    +0.000 C 
ATOM     14  C   UNL     1      51.149   7.682  17.365  0.00  0.00    +0.000 C 
ATOM     15  H   UNL     1      51.113   9.739  19.177  0.00  0.00    +0.000 HD
ENDBRANCH   6   9
BRANCH   1  16
ATOM     16  C   UNL     1      47.183   3.771  15.883  0.00  0.00    +0.000 C 
BRANCH  16  17
ATOM     17  O   UNL     1      47.480   3.279  14.574  0.00  0.00    +0.000 OA
BRANCH  17  22
ATOM     18  C   UNL     1      45.151   3.944  11.945  0.00  0.00    +0.000 A 
ATOM     19  C   UNL     1      45.360   5.286  11.667  0.00  0.00    +0.000 A 
ATOM     20  C   UNL     1      46.318   5.964  12.415  0.00  0.00    +0.000 A 
ATOM     21  C   UNL     1      47.030   5.277  13.398  0.00  0.00    +0.000 A 
ATOM     22  C   UNL     1      46.751   3.934  13.600  0.00  0.00    +0.000 A 
ATOM     23  N   UNL     1      45.824   3.249  12.901  0.00  0.00    +0.000 NA
BRANCH  18  25
ATOM     24  N   UNL     1      44.635   2.318  10.230  0.00  0.00    +0.000 N 
ATOM     25  C   UNL     1      44.128   3.161  11.182  0.00  0.00    +0.000 C 
ATOM     26  O   UNL     1      42.926   3.257  11.393  0.00  0.00    +0.000 OA
ATOM     27  H   UNL     1      44.008   1.751   9.679  0.00  0.00    +0.000 HD
ATOM     28  H   UNL     1      45.639   2.261  10.096  0.00  0.00    +0.000 HD
ENDBRANCH  18  25
ENDBRANCH  17  22
ENDBRANCH  16  17
ENDBRANCH   1  16
TORSDOF 5
ENDMDL
MODEL 5
REMARK VINA RESULT:    -6.417      2.999      6.896
REMARK INTER + INTRA:          -9.125
REMARK INTER:                  -8.025
REMARK INTRA:                  -1.100
REMARK UNBOUND:                -0.833
REMARK  Name = 
REMARK  5 active torsions:
REMARK  status: ('A' for Active; 'I' for Inactive)
REMARK    1  A    between atoms: C_2  and  C_4
REMARK    2  A    between atoms: C_8  and  O_9
REMARK    3  A    between atoms: O_9  and  C_10
REMARK    4  A    between atoms: C_10  and  C_11
REMARK    5  A    between atoms: C_16  and  N_17
REMARK                            x       y       z     vdW  Elec       q    Type
REMARK                         _______ _______ _______ _____ _____    ______ ____
ROOT
ATOM      1  C   UNL     1      47.438   4.895  14.433  0.00  0.00    +0.000 A 
ATOM      2  C   UNL     1      47.766   4.805  15.780  0.00  0.00    +0.000 A 
ATOM      3  F   UNL     1      47.357   3.754  16.503  0.00  0.00    +0.000 F 
ATOM      4  C   UNL     1      48.494   5.806  16.407  0.00  0.00    +0.000 A 
ATOM      5  C   UNL     1      48.907   6.923  15.676  0.00  0.00    +0.000 A 
ATOM      6  C   UNL     1      48.602   7.072  14.312  0.00  0.00    +0.000 A 
ATOM      7  C   UNL     1      47.866   6.020  13.719  0.00  0.00    +0.000 A 
ATOM      8  F   UNL     1      47.566   6.079  12.408  0.00  0.00    +0.000 F 
ENDROOT
BRANCH   6   9
ATOM      9  N   UNL     1      48.980   8.210  13.624  0.00  0.00    +0.000 N 
ATOM     10  C   UNL     1      48.134   9.406  13.520  0.00  0.00    +0.000 C 
ATOM     11  C   UNL     1      47.992   9.831  12.041  0.00  0.00    +0.000 C 
ATOM     12  N   UNL     1      49.291  10.028  11.360  0.00  0.00    +0.000 NA
ATOM     13  C   UNL     1      50.088   8.789  11.492  0.00  0.00    +0.000 C 
ATOM     14  C   UNL     1      50.286   8.312  12.953  0.00  0.00    +0.000 C 
ATOM     15  H   UNL     1      49.791  10.772  11.847  0.00  0.00    +0.000 HD
ENDBRANCH   6   9
BRANCH   1  16
ATOM     16  C   UNL     1      46.644   3.818  13.763  0.00  0.00    +0.000 C 
BRANCH  16  17
ATOM     17  O   UNL     1      45.248   4.060  13.960  0.00  0.00    +0.000 OA
BRANCH  17  22
ATOM     18  C   UNL     1      44.197   3.962  10.544  0.00  0.00    +0.000 A 
ATOM     19  C   UNL     1      43.317   5.029  10.452  0.00  0.00    +0.000 A 
ATOM     20  C   UNL     1      43.082   5.781  11.599  0.00  0.00    +0.000 A 
ATOM     21  C   UNL     1      43.739   5.445  12.783  0.00  0.00    +0.000 A 
ATOM     22  C   UNL     1      44.605   4.362  12.775  0.00  0.00    +0.000 A 
ATOM     23  N   UNL     1      44.847   3.606  11.685  0.00  0.00    +0.000 NA
BRANCH  18  25
ATOM     24  N   UNL     1      44.364   3.742   8.142  0.00  0.00    +0.000 N 
ATOM     25  C   UNL     1      44.485   3.109   9.348  0.00  0.00    +0.000 C 
ATOM     26  O   UNL     1      44.811   1.932   9.436  0.00  0.00    +0.000 OA
ATOM     27  H   UNL     1      44.549   3.234   7.289  0.00  0.00    +0.000 HD
ATOM     28  H   UNL     1      44.102   4.722   8.115  0.00  0.00    +0.000 HD
ENDBRANCH  18  25
ENDBRANCH  17  22
ENDBRANCH  16  17
ENDBRANCH   1  16
TORSDOF 5
ENDMDL
MODEL 6
REMARK VINA RESULT:    -6.376      1.652      2.082
REMARK INTER + INTRA:          -9.072
REMARK INTER:                  -8.248
REMARK INTRA:                  -0.824
REMARK UNBOUND:                -0.833
REMARK  Name = 
REMARK  5 active torsions:
REMARK  status: ('A' for Active; 'I' for Inactive)
REMARK    1  A    between atoms: C_2  and  C_4
REMARK    2  A    between atoms: C_8  and  O_9
REMARK    3  A    between atoms: O_9  and  C_10
REMARK    4  A    between atoms: C_10  and  C_11
REMARK    5  A    between atoms: C_16  and  N_17
REMARK                            x       y       z     vdW  Elec       q    Type
REMARK                         _______ _______ _______ _____ _____    ______ ____
ROOT
ATOM      1  C   UNL     1      47.246   6.708  13.483  0.00  0.00    +0.000 A 
ATOM      2  C   UNL     1      46.894   8.042  13.313  0.00  0.00    +0.000 A 
ATOM      3  F   UNL     1      47.644   9.010  13.856  0.00  0.00    +0.000 F 
ATOM      4  C   UNL     1      45.754   8.394  12.606  0.00  0.00    +0.000 A 
ATOM      5  C   UNL     1      44.945   7.398  12.054  0.00  0.00    +0.000 A 
ATOM      6  C   UNL     1      45.248   6.033  12.197  0.00  0.00    +0.000 A 
ATOM      7  C   UNL     1      46.424   5.726  12.918  0.00  0.00    +0.000 A 
ATOM      8  F   UNL     1      46.795   4.441  13.067  0.00  0.00    +0.000 F 
ENDROOT
BRANCH   6   9
ATOM      9  N   UNL     1      44.404   5.065  11.682  0.00  0.00    +0.000 N 
ATOM     10  C   UNL     1      43.379   4.384  12.483  0.00  0.00    +0.000 C 
ATOM     11  C   UNL     1      43.513   2.852  12.329  0.00  0.00    +0.000 C 
ATOM     12  N   UNL     1      43.487   2.400  10.921  0.00  0.00    +0.000 NA
ATOM     13  C   UNL     1      44.546   3.113  10.174  0.00  0.00    +0.000 C 
ATOM     14  C   UNL     1      44.462   4.657  10.269  0.00  0.00    +0.000 C 
ATOM     15  H   UNL     1      42.589   2.671  10.520  0.00  0.00    +0.000 HD
ENDBRANCH   6   9
BRANCH   1  16
ATOM     16  C   UNL     1      48.471   6.331  14.256  0.00  0.00    +0.000 C 
BRANCH  16  17
ATOM     17  O   UNL     1      48.301   6.693  15.629  0.00  0.00    +0.000 OA
BRANCH  17  22
ATOM     18  C   UNL     1      49.352   4.554  18.294  0.00  0.00    +0.000 A 
ATOM     19  C   UNL     1      48.624   3.394  18.075  0.00  0.00    +0.000 A 
ATOM     20  C   UNL     1      47.752   3.366  16.992  0.00  0.00    +0.000 A 
ATOM     21  C   UNL     1      47.647   4.489  16.170  0.00  0.00    +0.000 A 
ATOM     22  C   UNL     1      48.420   5.601  16.468  0.00  0.00    +0.000 A 
ATOM     23  N   UNL     1      49.267   5.666  17.514  0.00  0.00    +0.000 NA
BRANCH  18  25
ATOM     24  N   UNL     1      51.510   4.039  19.256  0.00  0.00    +0.000 N 
ATOM     25  C   UNL     1      50.301   4.650  19.448  0.00  0.00    +0.000 C 
ATOM     26  O   UNL     1      50.025   5.236  20.487  0.00  0.00    +0.000 OA
ATOM     27  H   UNL     1      52.206   4.067  19.987  0.00  0.00    +0.000 HD
ATOM     28  H   UNL     1      51.702   3.575  18.375  0.00  0.00    +0.000 HD
ENDBRANCH  18  25
ENDBRANCH  17  22
ENDBRANCH  16  17
ENDBRANCH   1  16
TORSDOF 5
ENDMDL
MODEL 7
REMARK VINA RESULT:    -5.866      3.517      5.027
REMARK INTER + INTRA:          -8.413
REMARK INTER:                  -7.409
REMARK INTRA:                  -1.004
REMARK UNBOUND:                -0.833
REMARK  Name = 
REMARK  5 active torsions:
REMARK  status: ('A' for Active; 'I' for Inactive)
REMARK    1  A    between atoms: C_2  and  C_4
REMARK    2  A    between atoms: C_8  and  O_9
REMARK    3  A    between atoms: O_9  and  C_10
REMARK    4  A    between atoms: C_10  and  C_11
REMARK    5  A    between atoms: C_16  and  N_17
REMARK                            x       y       z     vdW  Elec       q    Type
REMARK                         _______ _______ _______ _____ _____    ______ ____
ROOT
ATOM      1  C   UNL     1      46.757   7.178  13.080  0.00  0.00    +0.000 A 
ATOM      2  C   UNL     1      46.332   8.441  12.687  0.00  0.00    +0.000 A 
ATOM      3  F   UNL     1      46.999   9.531  13.088  0.00  0.00    +0.000 F 
ATOM      4  C   UNL     1      45.201   8.600  11.899  0.00  0.00    +0.000 A 
ATOM      5  C   UNL     1      44.477   7.477  11.491  0.00  0.00    +0.000 A 
ATOM      6  C   UNL     1      44.857   6.176  11.861  0.00  0.00    +0.000 A 
ATOM      7  C   UNL     1      46.020   6.067  12.656  0.00  0.00    +0.000 A 
ATOM      8  F   UNL     1      46.462   4.849  13.022  0.00  0.00    +0.000 F 
ENDROOT
BRANCH   6   9
ATOM      9  N   UNL     1      44.095   5.084  11.485  0.00  0.00    +0.000 N 
ATOM     10  C   UNL     1      43.230   4.347  12.417  0.00  0.00    +0.000 C 
ATOM     11  C   UNL     1      43.534   2.834  12.342  0.00  0.00    +0.000 C 
ATOM     12  N   UNL     1      43.443   2.285  10.971  0.00  0.00    +0.000 NA
ATOM     13  C   UNL     1      44.342   3.060  10.089  0.00  0.00    +0.000 C 
ATOM     14  C   UNL     1      44.081   4.588  10.100  0.00  0.00    +0.000 C 
ATOM     15  H   UNL     1      42.488   2.423  10.640  0.00  0.00    +0.000 HD
ENDBRANCH   6   9
BRANCH   1  16
ATOM     16  C   UNL     1      47.972   7.011  13.939  0.00  0.00    +0.000 C 
BRANCH  16  17
ATOM     17  O   UNL     1      49.070   6.572  13.135  0.00  0.00    +0.000 OA
BRANCH  17  22
ATOM     18  C   UNL     1      51.347   9.311  13.443  0.00  0.00    +0.000 A 
ATOM     19  C   UNL     1      51.586   9.674  12.126  0.00  0.00    +0.000 A 
ATOM     20  C   UNL     1      50.952   8.947  11.123  0.00  0.00    +0.000 A 
ATOM     21  C   UNL     1      50.104   7.896  11.474  0.00  0.00    +0.000 A 
ATOM     22  C   UNL     1      49.925   7.611  12.820  0.00  0.00    +0.000 A 
ATOM     23  N   UNL     1      50.530   8.289  13.815  0.00  0.00    +0.000 NA
BRANCH  18  25
ATOM     24  N   UNL     1      51.188  10.343  15.624  0.00  0.00    +0.000 N 
ATOM     25  C   UNL     1      52.005  10.050  14.566  0.00  0.00    +0.000 C 
ATOM     26  O   UNL     1      53.187  10.366  14.550  0.00  0.00    +0.000 OA
ATOM     27  H   UNL     1      51.562  10.834  16.423  0.00  0.00    +0.000 HD
ATOM     28  H   UNL     1      50.216  10.053  15.602  0.00  0.00    +0.000 HD
ENDBRANCH  18  25
ENDBRANCH  17  22
ENDBRANCH  16  17
ENDBRANCH   1  16
TORSDOF 5
ENDMDL
MODEL 8
REMARK VINA RESULT:    -5.852      2.148      2.676
REMARK INTER + INTRA:          -8.395
REMARK INTER:                  -7.287
REMARK INTRA:                  -1.108
REMARK UNBOUND:                -0.833
REMARK  Name = 
REMARK  5 active torsions:
REMARK  status: ('A' for Active; 'I' for Inactive)
REMARK    1  A    between atoms: C_2  and  C_4
REMARK    2  A    between atoms: C_8  and  O_9
REMARK    3  A    between atoms: O_9  and  C_10
REMARK    4  A    between atoms: C_10  and  C_11
REMARK    5  A    between atoms: C_16  and  N_17
REMARK                            x       y       z     vdW  Elec       q    Type
REMARK                         _______ _______ _______ _____ _____    ______ ____
ROOT
ATOM      1  C   UNL     1      49.891   7.832  14.227  0.00  0.00    +0.000 A 
ATOM      2  C   UNL     1      50.643   7.970  13.066  0.00  0.00    +0.000 A 
ATOM      3  F   UNL     1      51.968   8.149  13.140  0.00  0.00    +0.000 F 
ATOM      4  C   UNL     1      50.038   7.953  11.818  0.00  0.00    +0.000 A 
ATOM      5  C   UNL     1      48.654   7.794  11.721  0.00  0.00    +0.000 A 
ATOM      6  C   UNL     1      47.841   7.653  12.859  0.00  0.00    +0.000 A 
ATOM      7  C   UNL     1      48.506   7.668  14.106  0.00  0.00    +0.000 A 
ATOM      8  F   UNL     1      47.797   7.507  15.238  0.00  0.00    +0.000 F 
ENDROOT
BRANCH   6   9
ATOM      9  N   UNL     1      46.468   7.546  12.738  0.00  0.00    +0.000 N 
ATOM     10  C   UNL     1      45.758   6.260  12.730  0.00  0.00    +0.000 C 
ATOM     11  C   UNL     1      44.818   6.178  11.507  0.00  0.00    +0.000 C 
ATOM     12  N   UNL     1      43.876   7.315  11.414  0.00  0.00    +0.000 NA
ATOM     13  C   UNL     1      44.650   8.575  11.417  0.00  0.00    +0.000 C 
ATOM     14  C   UNL     1      45.604   8.733  12.628  0.00  0.00    +0.000 C 
ATOM     15  H   UNL     1      43.292   7.308  12.251  0.00  0.00    +0.000 HD
ENDBRANCH   6   9
BRANCH   1  16
ATOM     16  C   UNL     1      50.545   7.861  15.573  0.00  0.00    +0.000 C 
BRANCH  16  17
ATOM     17  O   UNL     1      50.920   6.534  15.952  0.00  0.00    +0.000 OA
BRANCH  17  22
ATOM     18  C   UNL     1      48.450   4.383  17.385  0.00  0.00    +0.000 A 
ATOM     19  C   UNL     1      48.228   4.943  18.634  0.00  0.00    +0.000 A 
ATOM     20  C   UNL     1      48.957   6.077  18.979  0.00  0.00    +0.000 A 
ATOM     21  C   UNL     1      49.868   6.607  18.066  0.00  0.00    +0.000 A 
ATOM     22  C   UNL     1      50.018   5.978  16.839  0.00  0.00    +0.000 A 
ATOM     23  N   UNL     1      49.336   4.874  16.476  0.00  0.00    +0.000 NA
BRANCH  18  25
ATOM     24  N   UNL     1      48.356   2.369  16.049  0.00  0.00    +0.000 N 
ATOM     25  C   UNL     1      47.704   3.158  16.958  0.00  0.00    +0.000 C 
ATOM     26  O   UNL     1      46.595   2.872  17.389  0.00  0.00    +0.000 OA
ATOM     27  H   UNL     1      47.919   1.522  15.718  0.00  0.00    +0.000 HD
ATOM     28  H   UNL     1      49.279   2.637  15.726  0.00  0.00    +0.000 HD
ENDBRANCH  18  25
ENDBRANCH  17  22
ENDBRANCH  16  17
ENDBRANCH   1  16
TORSDOF 5
ENDMDL
MODEL 9
REMARK VINA RESULT:    -5.766      2.554      7.141
REMARK INTER + INTRA:          -8.284
REMARK INTER:                  -7.415
REMARK INTRA:                  -0.869
REMARK UNBOUND:                -0.833
REMARK  Name = 
REMARK  5 active torsions:
REMARK  status: ('A' for Active; 'I' for Inactive)
REMARK    1  A    between atoms: C_2  and  C_4
REMARK    2  A    between atoms: C_8  and  O_9
REMARK    3  A    between atoms: O_9  and  C_10
REMARK    4  A    between atoms: C_10  and  C_11
REMARK    5  A    between atoms: C_16  and  N_17
REMARK                            x       y       z     vdW  Elec       q    Type
REMARK                         _______ _______ _______ _____ _____    ______ ____
ROOT
ATOM      1  C   UNL     1      48.710   7.384  15.666  0.00  0.00    +0.000 A 
ATOM      2  C   UNL     1      48.246   8.691  15.737  0.00  0.00    +0.000 A 
ATOM      3  F   UNL     1      47.937   9.357  14.616  0.00  0.00    +0.000 F 
ATOM      4  C   UNL     1      48.122   9.340  16.957  0.00  0.00    +0.000 A 
ATOM      5  C   UNL     1      48.465   8.672  18.135  0.00  0.00    +0.000 A 
ATOM      6  C   UNL     1      48.943   7.350  18.126  0.00  0.00    +0.000 A 
ATOM      7  C   UNL     1      49.043   6.731  16.859  0.00  0.00    +0.000 A 
ATOM      8  F   UNL     1      49.462   5.455  16.776  0.00  0.00    +0.000 F 
ENDROOT
BRANCH   6   9
ATOM      9  N   UNL     1      49.322   6.728  19.301  0.00  0.00    +0.000 N 
ATOM     10  C   UNL     1      50.720   6.616  19.738  0.00  0.00    +0.000 C 
ATOM     11  C   UNL     1      51.054   5.148  20.086  0.00  0.00    +0.000 C 
ATOM     12  N   UNL     1      50.129   4.555  21.077  0.00  0.00    +0.000 NA
ATOM     13  C   UNL     1      48.745   4.690  20.574  0.00  0.00    +0.000 C 
ATOM     14  C   UNL     1      48.334   6.142  20.222  0.00  0.00    +0.000 C 
ATOM     15  H   UNL     1      50.201   5.098  21.938  0.00  0.00    +0.000 HD
ENDBRANCH   6   9
BRANCH   1  16
ATOM     16  C   UNL     1      48.853   6.690  14.348  0.00  0.00    +0.000 C 
BRANCH  16  17
ATOM     17  O   UNL     1      47.976   5.561  14.303  0.00  0.00    +0.000 OA
BRANCH  17  22
ATOM     18  C   UNL     1      44.839   5.273  12.614  0.00  0.00    +0.000 A 
ATOM     19  C   UNL     1      44.992   6.106  11.516  0.00  0.00    +0.000 A 
ATOM     20  C   UNL     1      46.200   6.781  11.373  0.00  0.00    +0.000 A 
ATOM     21  C   UNL     1      47.205   6.592  12.323  0.00  0.00    +0.000 A 
ATOM     22  C   UNL     1      46.958   5.735  13.385  0.00  0.00    +0.000 A 
ATOM     23  N   UNL     1      45.797   5.074  13.559  0.00  0.00    +0.000 NA
BRANCH  18  25
ATOM     24  N   UNL     1      42.474   5.034  12.169  0.00  0.00    +0.000 N 
ATOM     25  C   UNL     1      43.560   4.526  12.829  0.00  0.00    +0.000 C 
ATOM     26  O   UNL     1      43.484   3.530  13.537  0.00  0.00    +0.000 OA
ATOM     27  H   UNL     1      41.577   4.580  12.259  0.00  0.00    +0.000 HD
ATOM     28  H   UNL     1      42.583   5.855  11.584  0.00  0.00    +0.000 HD
ENDBRANCH  18  25
ENDBRANCH  17  22
ENDBRANCH  16  17
ENDBRANCH   1  16
TORSDOF 5
ENDMDL
