MODEL 1
REMARK VINA RESULT:    -8.565      0.000      0.000
REMARK INTER + INTRA:         -12.753
REMARK INTER:                 -11.569
REMARK INTRA:                  -1.184
REMARK UNBOUND:                -1.184
REMARK  Name = 
REMARK  7 active torsions:
REMARK  status: ('A' for Active; 'I' for Inactive)
REMARK    1  A    between atoms: C_1  and  C_2
REMARK    2  A    between atoms: C_2  and  N_3
REMARK    3  A    between atoms: C_2  and  C_16
REMARK    4  A    between atoms: C_4  and  C_6
REMARK    5  A    between atoms: C_19  and  O_20
REMARK    6  A    between atoms: O_20  and  C_21
REMARK    7  A    between atoms: C_21  and  C_22
REMARK                            x       y       z     vdW  Elec       q    Type
REMARK                         _______ _______ _______ _____ _____    ______ ____
ROOT
ATOM      1  C   UNL     1      43.621   3.036  11.197  0.00  0.00    +0.000 C 
ATOM      2  C   UNL     1      44.004   3.981  10.055  0.00  0.00    +0.000 C 
ENDROOT
BRANCH   2   3
ATOM      3  C   UNL     1      44.904   3.294   9.044  0.00  0.00    +0.000 A 
ATOM      4  C   UNL     1      45.503   4.035   8.016  0.00  0.00    +0.000 A 
ATOM      5  C   UNL     1      46.366   3.420   7.103  0.00  0.00    +0.000 A 
ATOM      6  C   UNL     1      46.657   2.061   7.214  0.00  0.00    +0.000 A 
ATOM      7  C   UNL     1      46.039   1.307   8.211  0.00  0.00    +0.000 A 
ATOM      8  C   UNL     1      45.179   1.921   9.124  0.00  0.00    +0.000 A 
BRANCH   6   9
ATOM      9  O   UNL     1      47.562   1.576   6.306  0.00  0.00    +0.000 OA
BRANCH   9  10
ATOM     10  C   UNL     1      47.382   2.040   4.966  0.00  0.00    +0.000 C 
BRANCH  10  11
ATOM     11  C   UNL     1      46.783   0.951   4.108  0.00  0.00    +0.000 A 
ATOM     12  C   UNL     1      45.923   1.281   3.050  0.00  0.00    +0.000 A 
ATOM     13  C   UNL     1      45.442   0.289   2.194  0.00  0.00    +0.000 A 
ATOM     14  C   UNL     1      45.817  -1.039   2.387  0.00  0.00    +0.000 A 
ATOM     15  C   UNL     1      46.667  -1.379   3.439  0.00  0.00    +0.000 A 
ATOM     16  C   UNL     1      47.150  -0.387   4.295  0.00  0.00    +0.000 A 
ENDBRANCH  10  11
ENDBRANCH   9  10
ENDBRANCH   6   9
ENDBRANCH   2   3
BRANCH   2  17
ATOM     17  N   UNL     1      44.653   5.176  10.568  0.00  0.00    +0.000 N 
ATOM     18  C   UNL     1      43.958   6.181  11.192  0.00  0.00    +0.000 C 
ATOM     19  O   UNL     1      42.739   6.144  11.323  0.00  0.00    +0.000 OA
ATOM     20  H   UNL     1      45.647   5.282  10.394  0.00  0.00    +0.000 HD
BRANCH  18  21
ATOM     21  C   UNL     1      44.753   7.282  11.749  0.00  0.00    +0.000 A 
ATOM     22  C   UNL     1      44.492   8.584  11.340  0.00  0.00    +0.000 A 
ATOM     23  S   UNL     1      45.477   9.752  12.094  0.00  0.00    +0.000 S 
ATOM     24  C   UNL     1      46.326   8.557  12.959  0.00  0.00    +0.000 A 
ATOM     25  N   UNL     1      47.351   8.893  13.787  0.00  0.00    +0.000 NA
ATOM     26  C   UNL     1      47.940   7.886  14.341  0.00  0.00    +0.000 A 
ATOM     27  N   UNL     1      47.586   6.575  14.153  0.00  0.00    +0.000 N 
ATOM     28  C   UNL     1      46.506   6.197  13.392  0.00  0.00    +0.000 A 
ATOM     29  O   UNL     1      46.131   5.029  13.361  0.00  0.00    +0.000 OA
ATOM     30  C   UNL     1      45.844   7.285  12.699  0.00  0.00    +0.000 A 
ATOM     31  H   UNL     1      48.069   5.835  14.640  0.00  0.00    +0.000 HD
ENDBRANCH  18  21
ENDBRANCH   2  17
TORSDOF 6
ENDMDL
MODEL 2
REMARK VINA RESULT:    -8.502      2.931      5.113
REMARK INTER + INTRA:         -12.668
REMARK INTER:                 -11.610
REMARK INTRA:                  -1.058
REMARK UNBOUND:                -1.184
REMARK  Name = 
REMARK  7 active torsions:
REMARK  status: ('A' for Active; 'I' for Inactive)
REMARK    1  A    between atoms: C_1  and  C_2
REMARK    2  A    between atoms: C_2  and  N_3
REMARK    3  A    between atoms: C_2  and  C_16
REMARK    4  A    between atoms: C_4  and  C_6
REMARK    5  A    between atoms: C_19  and  O_20
REMARK    6  A    between atoms: O_20  and  C_21
REMARK    7  A    between atoms: C_21  and  C_22
REMARK                            x       y       z     vdW  Elec       q    Type
REMARK                         _______ _______ _______ _____ _____    ______ ____
ROOT
ATOM      1  C   UNL     1      45.512   8.745  12.900  0.00  0.00    +0.000 C 
ATOM      2  C   UNL     1      46.483   7.586  12.664  0.00  0.00    +0.000 C 
ENDROOT
BRANCH   2   3
ATOM      3  C   UNL     1      45.847   6.487  11.833  0.00  0.00    +0.000 A 
ATOM      4  C   UNL     1      46.132   6.382  10.465  0.00  0.00    +0.000 A 
ATOM      5  C   UNL     1      45.583   5.349   9.699  0.00  0.00    +0.000 A 
ATOM      6  C   UNL     1      44.755   4.395  10.291  0.00  0.00    +0.000 A 
ATOM      7  C   UNL     1      44.435   4.511  11.643  0.00  0.00    +0.000 A 
ATOM      8  C   UNL     1      44.985   5.541  12.410  0.00  0.00    +0.000 A 
BRANCH   6   9
ATOM      9  O   UNL     1      44.323   3.394   9.462  0.00  0.00    +0.000 OA
BRANCH   9  10
ATOM     10  C   UNL     1      45.149   2.227   9.440  0.00  0.00    +0.000 C 
BRANCH  10  11
ATOM     11  C   UNL     1      45.883   2.128   8.124  0.00  0.00    +0.000 A 
ATOM     12  C   UNL     1      45.886   3.212   7.235  0.00  0.00    +0.000 A 
ATOM     13  C   UNL     1      46.641   3.163   6.062  0.00  0.00    +0.000 A 
ATOM     14  C   UNL     1      47.400   2.032   5.769  0.00  0.00    +0.000 A 
ATOM     15  C   UNL     1      47.400   0.946   6.643  0.00  0.00    +0.000 A 
ATOM     16  C   UNL     1      46.647   0.995   7.818  0.00  0.00    +0.000 A 
ENDBRANCH  10  11
ENDBRANCH   9  10
ENDBRANCH   6   9
ENDBRANCH   2   3
BRANCH   2  17
ATOM     17  N   UNL     1      46.958   7.043  13.926  0.00  0.00    +0.000 N 
ATOM     18  C   UNL     1      48.286   6.798  14.169  0.00  0.00    +0.000 C 
ATOM     19  O   UNL     1      49.149   6.990  13.318  0.00  0.00    +0.000 OA
ATOM     20  H   UNL     1      46.262   6.786  14.617  0.00  0.00    +0.000 HD
BRANCH  18  21
ATOM     21  C   UNL     1      48.634   6.345  15.521  0.00  0.00    +0.000 A 
ATOM     22  C   UNL     1      49.523   7.094  16.281  0.00  0.00    +0.000 A 
ATOM     23  S   UNL     1      49.806   6.455  17.836  0.00  0.00    +0.000 S 
ATOM     24  C   UNL     1      48.787   5.125  17.534  0.00  0.00    +0.000 A 
ATOM     25  N   UNL     1      48.612   4.156  18.472  0.00  0.00    +0.000 NA
ATOM     26  C   UNL     1      47.855   3.181  18.094  0.00  0.00    +0.000 A 
ATOM     27  N   UNL     1      47.246   3.095  16.869  0.00  0.00    +0.000 N 
ATOM     28  C   UNL     1      47.329   4.089  15.925  0.00  0.00    +0.000 A 
ATOM     29  O   UNL     1      46.657   4.046  14.899  0.00  0.00    +0.000 OA
ATOM     30  C   UNL     1      48.215   5.183  16.275  0.00  0.00    +0.000 A 
ATOM     31  H   UNL     1      46.641   2.319  16.647  0.00  0.00    +0.000 HD
ENDBRANCH  18  21
ENDBRANCH   2  17
TORSDOF 6
ENDMDL
MODEL 3
REMARK VINA RESULT:    -8.207      3.550      6.077
REMARK INTER + INTRA:         -12.269
REMARK INTER:                 -11.085
REMARK INTRA:                  -1.184
REMARK UNBOUND:                -1.184
REMARK  Name = 
REMARK  7 active torsions:
REMARK  status: ('A' for Active; 'I' for Inactive)
REMARK    1  A    between atoms: C_1  and  C_2
REMARK    2  A    between atoms: C_2  and  N_3
REMARK    3  A    between atoms: C_2  and  C_16
REMARK    4  A    between atoms: C_4  and  C_6
REMARK    5  A    between atoms: C_19  and  O_20
REMARK    6  A    between atoms: O_20  and  C_21
REMARK    7  A    between atoms: C_21  and  C_22
REMARK                            x       y       z     vdW  Elec       q    Type
REMARK                         _______ _______ _______ _____ _____    ______ ____
ROOT
ATOM      1  C   UNL     1      47.698   8.613  13.001  0.00  0.00    +0.000 C 
ATOM      2  C   UNL     1      47.928   7.155  13.411  0.00  0.00    +0.000 C 
ENDROOT
BRANCH   2   3
ATOM      3  C   UNL     1      46.940   6.224  12.733  0.00  0.00    +0.000 A 
ATOM      4  C   UNL     1      46.331   6.598  11.527  0.00  0.00    +0.000 A 
ATOM      5  C   UNL     1      45.450   5.731  10.874  0.00  0.00    +0.000 A 
ATOM      6  C   UNL     1      45.178   4.470  11.405  0.00  0.00    +0.000 A 
ATOM      7  C   UNL     1      45.749   4.102  12.623  0.00  0.00    +0.000 A 
ATOM      8  C   UNL     1      46.631   4.967  13.275  0.00  0.00    +0.000 A 
BRANCH   6   9
ATOM      9  O   UNL     1      44.350   3.679  10.652  0.00  0.00    +0.000 OA
BRANCH   9  10
ATOM     10  C   UNL     1      44.285   4.020   9.265  0.00  0.00    +0.000 C 
BRANCH  10  11
ATOM     11  C   UNL     1      45.271   3.193   8.474  0.00  0.00    +0.000 A 
ATOM     12  C   UNL     1      46.111   3.807   7.534  0.00  0.00    +0.000 A 
ATOM     13  C   UNL     1      47.090   3.066   6.869  0.00  0.00    +0.000 A 
ATOM     14  C   UNL     1      47.238   1.707   7.140  0.00  0.00    +0.000 A 
ATOM     15  C   UNL     1      46.404   1.085   8.069  0.00  0.00    +0.000 A 
ATOM     16  C   UNL     1      45.426   1.826   8.735  0.00  0.00    +0.000 A 
ENDBRANCH  10  11
ENDBRANCH   9  10
ENDBRANCH   6   9
ENDBRANCH   2   3
BRANCH   2  17
ATOM     17  N   UNL     1      47.844   7.004  14.854  0.00  0.00    +0.000 N 
ATOM     18  C   UNL     1      48.956   6.859  15.644  0.00  0.00    +0.000 C 
ATOM     19  O   UNL     1      50.088   6.813  15.173  0.00  0.00    +0.000 OA
ATOM     20  H   UNL     1      46.920   6.945  15.267  0.00  0.00    +0.000 HD
BRANCH  18  21
ATOM     21  C   UNL     1      48.730   6.817  17.094  0.00  0.00    +0.000 A 
ATOM     22  C   UNL     1      48.483   8.000  17.778  0.00  0.00    +0.000 A 
ATOM     23  S   UNL     1      48.215   7.786  19.448  0.00  0.00    +0.000 S 
ATOM     24  C   UNL     1      48.468   6.108  19.328  0.00  0.00    +0.000 A 
ATOM     25  N   UNL     1      48.413   5.315  20.433  0.00  0.00    +0.000 NA
ATOM     26  C   UNL     1      48.674   4.071  20.208  0.00  0.00    +0.000 A 
ATOM     27  N   UNL     1      48.971   3.545  18.978  0.00  0.00    +0.000 N 
ATOM     28  C   UNL     1      48.955   4.293  17.825  0.00  0.00    +0.000 A 
ATOM     29  O   UNL     1      49.083   3.764  16.725  0.00  0.00    +0.000 OA
ATOM     30  C   UNL     1      48.724   5.711  18.027  0.00  0.00    +0.000 A 
ATOM     31  H   UNL     1      49.136   2.557  18.865  0.00  0.00    +0.000 HD
ENDBRANCH  18  21
ENDBRANCH   2  17
TORSDOF 6
ENDMDL
MODEL 4
REMARK VINA RESULT:    -8.085      3.742      6.160
REMARK INTER + INTRA:         -12.105
REMARK INTER:                 -10.957
REMARK INTRA:                  -1.148
REMARK UNBOUND:                -1.184
REMARK  Name = 
REMARK  7 active torsions:
REMARK  status: ('A' for Active; 'I' for Inactive)
REMARK    1  A    between atoms: C_1  and  C_2
REMARK    2  A    between atoms: C_2  and  N_3
REMARK    3  A    between atoms: C_2  and  C_16
REMARK    4  A    between atoms: C_4  and  C_6
REMARK    5  A    between atoms: C_19  and  O_20
REMARK    6  A    between atoms: O_20  and  C_21
REMARK    7  A    between atoms: C_21  and  C_22
REMARK                            x       y       z     vdW  Elec       q    Type
REMARK                         _______ _______ _______ _____ _____    ______ ____
ROOT
ATOM      1  C   UNL     1      47.032   8.456  13.703  0.00  0.00    +0.000 C 
ATOM      2  C   UNL     1      47.583   7.033  13.580  0.00  0.00    +0.000 C 
ENDROOT
BRANCH   2   3
ATOM      3  C   UNL     1      46.769   6.203  12.604  0.00  0.00    +0.000 A 
ATOM      4  C   UNL     1      46.139   5.026  13.033  0.00  0.00    +0.000 A 
ATOM      5  C   UNL     1      45.353   4.276  12.154  0.00  0.00    +0.000 A 
ATOM      6  C   UNL     1      45.170   4.698  10.837  0.00  0.00    +0.000 A 
ATOM      7  C   UNL     1      45.821   5.847  10.389  0.00  0.00    +0.000 A 
ATOM      8  C   UNL     1      46.604   6.598  11.268  0.00  0.00    +0.000 A 
BRANCH   6   9
ATOM      9  O   UNL     1      44.332   3.921  10.080  0.00  0.00    +0.000 OA
BRANCH   9  10
ATOM     10  C   UNL     1      44.474   4.076   8.667  0.00  0.00    +0.000 C 
BRANCH  10  11
ATOM     11  C   UNL     1      45.551   3.155   8.143  0.00  0.00    +0.000 A 
ATOM     12  C   UNL     1      45.577   1.808   8.534  0.00  0.00    +0.000 A 
ATOM     13  C   UNL     1      46.509   0.929   7.981  0.00  0.00    +0.000 A 
ATOM     14  C   UNL     1      47.421   1.388   7.031  0.00  0.00    +0.000 A 
ATOM     15  C   UNL     1      47.406   2.726   6.639  0.00  0.00    +0.000 A 
ATOM     16  C   UNL     1      46.473   3.605   7.191  0.00  0.00    +0.000 A 
ENDBRANCH  10  11
ENDBRANCH   9  10
ENDBRANCH   6   9
ENDBRANCH   2   3
BRANCH   2  17
ATOM     17  N   UNL     1      47.623   6.379  14.878  0.00  0.00    +0.000 N 
ATOM     18  C   UNL     1      48.777   6.265  15.609  0.00  0.00    +0.000 C 
ATOM     19  O   UNL     1      49.854   6.680  15.194  0.00  0.00    +0.000 OA
ATOM     20  H   UNL     1      46.769   5.944  15.209  0.00  0.00    +0.000 HD
BRANCH  18  21
ATOM     21  C   UNL     1      48.651   5.671  16.946  0.00  0.00    +0.000 A 
ATOM     22  C   UNL     1      48.866   4.308  17.107  0.00  0.00    +0.000 A 
ATOM     23  S   UNL     1      48.711   3.774  18.718  0.00  0.00    +0.000 S 
ATOM     24  C   UNL     1      48.301   5.336  19.254  0.00  0.00    +0.000 A 
ATOM     25  N   UNL     1      48.005   5.568  20.561  0.00  0.00    +0.000 NA
ATOM     26  C   UNL     1      47.662   6.785  20.822  0.00  0.00    +0.000 A 
ATOM     27  N   UNL     1      47.603   7.794  19.896  0.00  0.00    +0.000 N 
ATOM     28  C   UNL     1      47.974   7.624  18.584  0.00  0.00    +0.000 A 
ATOM     29  O   UNL     1      48.047   8.579  17.817  0.00  0.00    +0.000 OA
ATOM     30  C   UNL     1      48.312   6.260  18.223  0.00  0.00    +0.000 A 
ATOM     31  H   UNL     1      47.357   8.733  20.171  0.00  0.00    +0.000 HD
ENDBRANCH  18  21
ENDBRANCH   2  17
TORSDOF 6
ENDMDL
MODEL 5
REMARK VINA RESULT:    -7.711      2.620      3.868
REMARK INTER + INTRA:         -11.599
REMARK INTER:                 -11.095
REMARK INTRA:                  -0.505
REMARK UNBOUND:                -1.184
REMARK  Name = 
REMARK  7 active torsions:
REMARK  status: ('A' for Active; 'I' for Inactive)
REMARK    1  A    between atoms: C_1  and  C_2
REMARK    2  A    between atoms: C_2  and  N_3
REMARK    3  A    between atoms: C_2  and  C_16
REMARK    4  A    between atoms: C_4  and  C_6
REMARK    5  A    between atoms: C_19  and  O_20
REMARK    6  A    between atoms: O_20  and  C_21
REMARK    7  A    between atoms: C_21  and  C_22
REMARK                            x       y       z     vdW  Elec       q    Type
REMARK                         _______ _______ _______ _____ _____    ______ ____
ROOT
ATOM      1  C   UNL     1      43.631   3.272  13.325  0.00  0.00    +0.000 C 
ATOM      2  C   UNL     1      44.043   4.643  12.781  0.00  0.00    +0.000 C 
ENDROOT
BRANCH   2   3
ATOM      3  C   UNL     1      44.451   4.563  11.321  0.00  0.00    +0.000 A 
ATOM      4  C   UNL     1      45.262   5.559  10.760  0.00  0.00    +0.000 A 
ATOM      5  C   UNL     1      45.677   5.474   9.428  0.00  0.00    +0.000 A 
ATOM      6  C   UNL     1      45.303   4.385   8.641  0.00  0.00    +0.000 A 
ATOM      7  C   UNL     1      44.466   3.407   9.178  0.00  0.00    +0.000 A 
ATOM      8  C   UNL     1      44.054   3.490  10.510  0.00  0.00    +0.000 A 
BRANCH   6   9
ATOM      9  O   UNL     1      45.816   4.372   7.370  0.00  0.00    +0.000 OA
BRANCH   9  10
ATOM     10  C   UNL     1      47.165   3.913   7.267  0.00  0.00    +0.000 C 
BRANCH  10  11
ATOM     11  C   UNL     1      47.210   2.558   6.600  0.00  0.00    +0.000 A 
ATOM     12  C   UNL     1      47.134   1.390   7.373  0.00  0.00    +0.000 A 
ATOM     13  C   UNL     1      47.078   0.138   6.759  0.00  0.00    +0.000 A 
ATOM     14  C   UNL     1      47.094   0.043   5.369  0.00  0.00    +0.000 A 
ATOM     15  C   UNL     1      47.175   1.198   4.591  0.00  0.00    +0.000 A 
ATOM     16  C   UNL     1      47.229   2.450   5.204  0.00  0.00    +0.000 A 
ENDBRANCH  10  11
ENDBRANCH   9  10
ENDBRANCH   6   9
ENDBRANCH   2   3
BRANCH   2  17
ATOM     17  N   UNL     1      45.125   5.208  13.570  0.00  0.00    +0.000 N 
ATOM     18  C   UNL     1      46.280   4.517  13.838  0.00  0.00    +0.000 C 
ATOM     19  O   UNL     1      46.453   3.365  13.454  0.00  0.00    +0.000 OA
ATOM     20  H   UNL     1      44.977   6.123  13.981  0.00  0.00    +0.000 HD
BRANCH  18  21
ATOM     21  C   UNL     1      47.329   5.247  14.561  0.00  0.00    +0.000 A 
ATOM     22  C   UNL     1      47.984   6.297  13.931  0.00  0.00    +0.000 A 
ATOM     23  S   UNL     1      49.155   7.060  14.907  0.00  0.00    +0.000 S 
ATOM     24  C   UNL     1      48.865   5.983  16.192  0.00  0.00    +0.000 A 
ATOM     25  N   UNL     1      49.577   6.070  17.348  0.00  0.00    +0.000 NA
ATOM     26  C   UNL     1      49.291   5.162  18.219  0.00  0.00    +0.000 A 
ATOM     27  N   UNL     1      48.347   4.184  18.045  0.00  0.00    +0.000 N 
ATOM     28  C   UNL     1      47.548   4.110  16.930  0.00  0.00    +0.000 A 
ATOM     29  O   UNL     1      46.617   3.312  16.869  0.00  0.00    +0.000 OA
ATOM     30  C   UNL     1      47.867   5.072  15.892  0.00  0.00    +0.000 A 
ATOM     31  H   UNL     1      48.150   3.520  18.779  0.00  0.00    +0.000 HD
ENDBRANCH  18  21
ENDBRANCH   2  17
TORSDOF 6
ENDMDL
MODEL 6
REMARK VINA RESULT:    -7.459      2.955      5.100
REMARK INTER + INTRA:         -11.259
REMARK INTER:                 -10.028
REMARK INTRA:                  -1.231
REMARK UNBOUND:                -1.184
REMARK  Name = 
REMARK  7 active torsions:
REMARK  status: ('A' for Active; 'I' for Inactive)
REMARK    1  A    between atoms: C_1  and  C_2
REMARK    2  A    between atoms: C_2  and  N_3
REMARK    3  A    between atoms: C_2  and  C_16
REMARK    4  A    between atoms: C_4  and  C_6
REMARK    5  A    between atoms: C_19  and  O_20
REMARK    6  A    between atoms: O_20  and  C_21
REMARK    7  A    between atoms: C_21  and  C_22
REMARK                            x       y       z     vdW  Elec       q    Type
REMARK                         _______ _______ _______ _____ _____    ______ ____
ROOT
ATOM      1  C   UNL     1      47.220   4.632  15.013  0.00  0.00    +0.000 C 
ATOM      2  C   UNL     1      46.880   5.706  13.977  0.00  0.00    +0.000 C 
ENDROOT
BRANCH   2   3
ATOM      3  C   UNL     1      46.175   5.113  12.771  0.00  0.00    +0.000 A 
ATOM      4  C   UNL     1      45.742   3.780  12.792  0.00  0.00    +0.000 A 
ATOM      5  C   UNL     1      45.057   3.236  11.702  0.00  0.00    +0.000 A 
ATOM      6  C   UNL     1      44.777   4.018  10.582  0.00  0.00    +0.000 A 
ATOM      7  C   UNL     1      45.235   5.335  10.535  0.00  0.00    +0.000 A 
ATOM      8  C   UNL     1      45.918   5.880  11.625  0.00  0.00    +0.000 A 
BRANCH   6   9
ATOM      9  O   UNL     1      44.047   3.402   9.600  0.00  0.00    +0.000 OA
BRANCH   9  10
ATOM     10  C   UNL     1      44.521   2.110   9.213  0.00  0.00    +0.000 C 
BRANCH  10  11
ATOM     11  C   UNL     1      45.628   2.240   8.194  0.00  0.00    +0.000 A 
ATOM     12  C   UNL     1      46.512   1.173   7.973  0.00  0.00    +0.000 A 
ATOM     13  C   UNL     1      47.476   1.250   6.967  0.00  0.00    +0.000 A 
ATOM     14  C   UNL     1      47.564   2.391   6.172  0.00  0.00    +0.000 A 
ATOM     15  C   UNL     1      46.694   3.460   6.387  0.00  0.00    +0.000 A 
ATOM     16  C   UNL     1      45.728   3.383   7.392  0.00  0.00    +0.000 A 
ENDBRANCH  10  11
ENDBRANCH   9  10
ENDBRANCH   6   9
ENDBRANCH   2   3
BRANCH   2  17
ATOM     17  N   UNL     1      48.076   6.416  13.555  0.00  0.00    +0.000 N 
ATOM     18  C   UNL     1      48.136   7.785  13.491  0.00  0.00    +0.000 C 
ATOM     19  O   UNL     1      47.168   8.492  13.754  0.00  0.00    +0.000 OA
ATOM     20  H   UNL     1      48.865   5.861  13.242  0.00  0.00    +0.000 HD
BRANCH  18  21
ATOM     21  C   UNL     1      49.437   8.371  13.145  0.00  0.00    +0.000 A 
ATOM     22  C   UNL     1      49.525   9.246  12.070  0.00  0.00    +0.000 A 
ATOM     23  S   UNL     1      51.092   9.861  11.811  0.00  0.00    +0.000 S 
ATOM     24  C   UNL     1      51.724   8.942  13.097  0.00  0.00    +0.000 A 
ATOM     25  N   UNL     1      53.050   8.985  13.397  0.00  0.00    +0.000 NA
ATOM     26  C   UNL     1      53.403   8.202  14.360  0.00  0.00    +0.000 A 
ATOM     27  N   UNL     1      52.548   7.391  15.061  0.00  0.00    +0.000 N 
ATOM     28  C   UNL     1      51.191   7.380  14.847  0.00  0.00    +0.000 A 
ATOM     29  O   UNL     1      50.438   6.752  15.586  0.00  0.00    +0.000 OA
ATOM     30  C   UNL     1      50.747   8.198  13.735  0.00  0.00    +0.000 A 
ATOM     31  H   UNL     1      52.884   6.824  15.825  0.00  0.00    +0.000 HD
ENDBRANCH  18  21
ENDBRANCH   2  17
TORSDOF 6
ENDMDL
MODEL 7
REMARK VINA RESULT:    -7.440      3.378      6.209
REMARK INTER + INTRA:         -11.233
REMARK INTER:                 -10.080
REMARK INTRA:                  -1.153
REMARK UNBOUND:                -1.184
REMARK  Name = 
REMARK  7 active torsions:
REMARK  status: ('A' for Active; 'I' for Inactive)
REMARK    1  A    between atoms: C_1  and  C_2
REMARK    2  A    between atoms: C_2  and  N_3
REMARK    3  A    between atoms: C_2  and  C_16
REMARK    4  A    between atoms: C_4  and  C_6
REMARK    5  A    between atoms: C_19  and  O_20
REMARK    6  A    between atoms: O_20  and  C_21
REMARK    7  A    between atoms: C_21  and  C_22
REMARK                            x       y       z     vdW  Elec       q    Type
REMARK                         _______ _______ _______ _____ _____    ______ ____
ROOT
ATOM      1  C   UNL     1      49.074   7.904  12.698  0.00  0.00    +0.000 C 
ATOM      2  C   UNL     1      48.485   6.745  13.507  0.00  0.00    +0.000 C 
ENDROOT
BRANCH   2   3
ATOM      3  C   UNL     1      47.267   6.151  12.824  0.00  0.00    +0.000 A 
ATOM      4  C   UNL     1      46.710   6.780  11.702  0.00  0.00    +0.000 A 
ATOM      5  C   UNL     1      45.614   6.220  11.041  0.00  0.00    +0.000 A 
ATOM      6  C   UNL     1      45.067   5.014  11.479  0.00  0.00    +0.000 A 
ATOM      7  C   UNL     1      45.590   4.398  12.615  0.00  0.00    +0.000 A 
ATOM      8  C   UNL     1      46.687   4.956  13.275  0.00  0.00    +0.000 A 
BRANCH   6   9
ATOM      9  O   UNL     1      44.035   4.525  10.721  0.00  0.00    +0.000 OA
BRANCH   9  10
ATOM     10  C   UNL     1      44.129   3.137  10.394  0.00  0.00    +0.000 C 
BRANCH  10  11
ATOM     11  C   UNL     1      45.064   2.935   9.225  0.00  0.00    +0.000 A 
ATOM     12  C   UNL     1      45.578   1.659   8.946  0.00  0.00    +0.000 A 
ATOM     13  C   UNL     1      46.365   1.446   7.813  0.00  0.00    +0.000 A 
ATOM     14  C   UNL     1      46.643   2.504   6.949  0.00  0.00    +0.000 A 
ATOM     15  C   UNL     1      46.141   3.777   7.220  0.00  0.00    +0.000 A 
ATOM     16  C   UNL     1      45.353   3.990   8.352  0.00  0.00    +0.000 A 
ENDBRANCH  10  11
ENDBRANCH   9  10
ENDBRANCH   6   9
ENDBRANCH   2   3
BRANCH   2  17
ATOM     17  N   UNL     1      48.141   7.175  14.852  0.00  0.00    +0.000 N 
ATOM     18  C   UNL     1      48.783   6.696  15.965  0.00  0.00    +0.000 C 
ATOM     19  O   UNL     1      49.666   5.847  15.892  0.00  0.00    +0.000 OA
ATOM     20  H   UNL     1      47.354   7.807  14.955  0.00  0.00    +0.000 HD
BRANCH  18  21
ATOM     21  C   UNL     1      48.401   7.292  17.251  0.00  0.00    +0.000 A 
ATOM     22  C   UNL     1      48.185   6.466  18.346  0.00  0.00    +0.000 A 
ATOM     23  S   UNL     1      47.775   7.305  19.772  0.00  0.00    +0.000 S 
ATOM     24  C   UNL     1      47.823   8.804  18.967  0.00  0.00    +0.000 A 
ATOM     25  N   UNL     1      47.530   9.957  19.626  0.00  0.00    +0.000 NA
ATOM     26  C   UNL     1      47.556  11.014  18.885  0.00  0.00    +0.000 A 
ATOM     27  N   UNL     1      47.862  11.024  17.549  0.00  0.00    +0.000 N 
ATOM     28  C   UNL     1      48.244   9.896  16.864  0.00  0.00    +0.000 A 
ATOM     29  O   UNL     1      48.649   9.963  15.708  0.00  0.00    +0.000 OA
ATOM     30  C   UNL     1      48.177   8.669  17.635  0.00  0.00    +0.000 A 
ATOM     31  H   UNL     1      47.893  11.890  17.033  0.00  0.00    +0.000 HD
ENDBRANCH  18  21
ENDBRANCH   2  17
TORSDOF 6
ENDMDL
MODEL 8
REMARK VINA RESULT:    -7.270      4.873      9.740
REMARK INTER + INTRA:         -11.004
REMARK INTER:                  -9.786
REMARK INTRA:                  -1.218
REMARK UNBOUND:                -1.184
REMARK  Name = 
REMARK  7 active torsions:
REMARK  status: ('A' for Active; 'I' for Inactive)
REMARK    1  A    between atoms: C_1  and  C_2
REMARK    2  A    between atoms: C_2  and  N_3
REMARK    3  A    between atoms: C_2  and  C_16
REMARK    4  A    between atoms: C_4  and  C_6
REMARK    5  A    between atoms: C_19  and  O_20
REMARK    6  A    between atoms: O_20  and  C_21
REMARK    7  A    between atoms: C_21  and  C_22
REMARK                            x       y       z     vdW  Elec       q    Type
REMARK                         _______ _______ _______ _____ _____    ______ ____
ROOT
ATOM      1  C   UNL     1      49.475   8.282  11.608  0.00  0.00    +0.000 C 
ATOM      2  C   UNL     1      48.377   7.802  12.560  0.00  0.00    +0.000 C 
ENDROOT
BRANCH   2   3
ATOM      3  C   UNL     1      48.950   7.359  13.893  0.00  0.00    +0.000 A 
ATOM      4  C   UNL     1      48.188   6.565  14.760  0.00  0.00    +0.000 A 
ATOM      5  C   UNL     1      48.722   6.117  15.972  0.00  0.00    +0.000 A 
ATOM      6  C   UNL     1      50.030   6.442  16.329  0.00  0.00    +0.000 A 
ATOM      7  C   UNL     1      50.785   7.261  15.492  0.00  0.00    +0.000 A 
ATOM      8  C   UNL     1      50.254   7.706  14.279  0.00  0.00    +0.000 A 
BRANCH   6   9
ATOM      9  O   UNL     1      50.471   5.900  17.509  0.00  0.00    +0.000 OA
BRANCH   9  10
ATOM     10  C   UNL     1      49.891   4.639  17.849  0.00  0.00    +0.000 C 
BRANCH  10  11
ATOM     11  C   UNL     1      50.923   3.541  17.747  0.00  0.00    +0.000 A 
ATOM     12  C   UNL     1      52.251   3.784  18.128  0.00  0.00    +0.000 A 
ATOM     13  C   UNL     1      53.188   2.750  18.127  0.00  0.00    +0.000 A 
ATOM     14  C   UNL     1      52.806   1.464  17.748  0.00  0.00    +0.000 A 
ATOM     15  C   UNL     1      51.490   1.212  17.362  0.00  0.00    +0.000 A 
ATOM     16  C   UNL     1      50.552   2.246  17.364  0.00  0.00    +0.000 A 
ENDBRANCH  10  11
ENDBRANCH   9  10
ENDBRANCH   6   9
ENDBRANCH   2   3
BRANCH   2  17
ATOM     17  N   UNL     1      47.612   6.719  11.963  0.00  0.00    +0.000 N 
ATOM     18  C   UNL     1      46.297   6.860  11.599  0.00  0.00    +0.000 C 
ATOM     19  O   UNL     1      45.677   7.902  11.790  0.00  0.00    +0.000 OA
ATOM     20  H   UNL     1      48.066   5.816  11.876  0.00  0.00    +0.000 HD
BRANCH  18  21
ATOM     21  C   UNL     1      45.678   5.717  10.916  0.00  0.00    +0.000 A 
ATOM     22  C   UNL     1      45.812   5.594   9.539  0.00  0.00    +0.000 A 
ATOM     23  S   UNL     1      45.063   4.205   8.897  0.00  0.00    +0.000 S 
ATOM     24  C   UNL     1      44.488   3.740  10.430  0.00  0.00    +0.000 A 
ATOM     25  N   UNL     1      43.725   2.624  10.578  0.00  0.00    +0.000 NA
ATOM     26  C   UNL     1      43.315   2.416  11.784  0.00  0.00    +0.000 A 
ATOM     27  N   UNL     1      43.610   3.215  12.857  0.00  0.00    +0.000 N 
ATOM     28  C   UNL     1      44.444   4.303  12.768  0.00  0.00    +0.000 A 
ATOM     29  O   UNL     1      44.802   4.910  13.773  0.00  0.00    +0.000 OA
ATOM     30  C   UNL     1      44.888   4.617  11.423  0.00  0.00    +0.000 A 
ATOM     31  H   UNL     1      43.282   2.979  13.782  0.00  0.00    +0.000 HD
ENDBRANCH  18  21
ENDBRANCH   2  17
TORSDOF 6
ENDMDL
MODEL 9
REMARK VINA RESULT:    -7.063      5.187     12.116
REMARK INTER + INTRA:         -10.724
REMARK INTER:                  -9.528
REMARK INTRA:                  -1.196
REMARK UNBOUND:                -1.184
REMARK  Name = 
REMARK  7 active torsions:
REMARK  status: ('A' for Active; 'I' for Inactive)
REMARK    1  A    between atoms: C_1  and  C_2
REMARK    2  A    between atoms: C_2  and  N_3
REMARK    3  A    between atoms: C_2  and  C_16
REMARK    4  A    between atoms: C_4  and  C_6
REMARK    5  A    between atoms: C_19  and  O_20
REMARK    6  A    between atoms: O_20  and  C_21
REMARK    7  A    between atoms: C_21  and  C_22
REMARK                            x       y       z     vdW  Elec       q    Type
REMARK                         _______ _______ _______ _____ _____    ______ ____
ROOT
ATOM      1  C   UNL     1      47.723   3.217  16.845  0.00  0.00    +0.000 C 
ATOM      2  C   UNL     1      48.055   4.594  16.264  0.00  0.00    +0.000 C 
ENDROOT
BRANCH   2   3
ATOM      3  C   UNL     1      48.119   5.655  17.347  0.00  0.00    +0.000 A 
ATOM      4  C   UNL     1      47.363   5.515  18.518  0.00  0.00    +0.000 A 
ATOM      5  C   UNL     1      47.446   6.466  19.539  0.00  0.00    +0.000 A 
ATOM      6  C   UNL     1      48.299   7.562  19.414  0.00  0.00    +0.000 A 
ATOM      7  C   UNL     1      49.029   7.731  18.238  0.00  0.00    +0.000 A 
ATOM      8  C   UNL     1      48.948   6.780  17.218  0.00  0.00    +0.000 A 
BRANCH   6   9
ATOM      9  O   UNL     1      48.348   8.398  20.499  0.00  0.00    +0.000 OA
BRANCH   9  10
ATOM     10  C   UNL     1      47.081   8.701  21.087  0.00  0.00    +0.000 C 
BRANCH  10  11
ATOM     11  C   UNL     1      46.638  10.090  20.691  0.00  0.00    +0.000 A 
ATOM     12  C   UNL     1      47.346  10.804  19.713  0.00  0.00    +0.000 A 
ATOM     13  C   UNL     1      46.887  12.047  19.274  0.00  0.00    +0.000 A 
ATOM     14  C   UNL     1      45.716  12.585  19.806  0.00  0.00    +0.000 A 
ATOM     15  C   UNL     1      45.008  11.886  20.783  0.00  0.00    +0.000 A 
ATOM     16  C   UNL     1      45.465  10.642  21.221  0.00  0.00    +0.000 A 
ENDBRANCH  10  11
ENDBRANCH   9  10
ENDBRANCH   6   9
ENDBRANCH   2   3
BRANCH   2  17
ATOM     17  N   UNL     1      47.085   4.975  15.250  0.00  0.00    +0.000 N 
ATOM     18  C   UNL     1      47.441   5.632  14.100  0.00  0.00    +0.000 C 
ATOM     19  O   UNL     1      48.599   5.968  13.875  0.00  0.00    +0.000 OA
ATOM     20  H   UNL     1      46.106   4.795  15.447  0.00  0.00    +0.000 HD
BRANCH  18  21
ATOM     21  C   UNL     1      46.374   5.866  13.120  0.00  0.00    +0.000 A 
ATOM     22  C   UNL     1      46.084   7.166  12.727  0.00  0.00    +0.000 A 
ATOM     23  S   UNL     1      44.841   7.273  11.566  0.00  0.00    +0.000 S 
ATOM     24  C   UNL     1      44.609   5.587  11.580  0.00  0.00    +0.000 A 
ATOM     25  N   UNL     1      43.646   5.010  10.812  0.00  0.00    +0.000 NA
ATOM     26  C   UNL     1      43.544   3.732  10.956  0.00  0.00    +0.000 A 
ATOM     27  N   UNL     1      44.329   2.976  11.788  0.00  0.00    +0.000 N 
ATOM     28  C   UNL     1      45.367   3.504  12.517  0.00  0.00    +0.000 A 
ATOM     29  O   UNL     1      46.138   2.780  13.139  0.00  0.00    +0.000 OA
ATOM     30  C   UNL     1      45.488   4.948  12.437  0.00  0.00    +0.000 A 
ATOM     31  H   UNL     1      44.218   1.974  11.833  0.00  0.00    +0.000 HD
ENDBRANCH  18  21
ENDBRANCH   2  17
TORSDOF 6
ENDMDL
