MODEL 1
REMARK VINA RESULT:    -8.007      0.000      0.000
REMARK INTER + INTRA:         -12.075
REMARK INTER:                 -10.816
REMARK INTRA:                  -1.260
REMARK UNBOUND:                -1.260
REMARK  Name = 
REMARK  10 active torsions:
REMARK  status: ('A' for Active; 'I' for Inactive)
REMARK    1  A    between atoms: C_1  and  C_2
REMARK    2  A    between atoms: C_2  and  C_3
REMARK    3  A    between atoms: C_2  and  C_4
REMARK    4  A    between atoms: C_2  and  C_15
REMARK    5  A    between atoms: C_4  and  N_5
REMARK    6  A    between atoms: C_9  and  C_10
REMARK    7  A    between atoms: C_19  and  C_20
REMARK    8  A    between atoms: C_20  and  C_21
REMARK    9  A    between atoms: C_20  and  C_22
REMARK   10  A    between atoms: C_20  and  C_23
REMARK                            x       y       z     vdW  Elec       q    Type
REMARK                         _______ _______ _______ _____ _____    ______ ____
ROOT
ATOM      1  C   UNL     1      43.664   6.828  11.292  0.00  0.00    +0.000 C 
ATOM      2  C   UNL     1      43.741   5.460  12.003  0.00  0.00    +0.000 C 
ATOM      3  C   UNL     1      42.604   5.412  13.053  0.00  0.00    +0.000 C 
ENDROOT
BRANCH   2   4
ATOM      4  C   UNL     1      45.146   5.297  12.630  0.00  0.00    +0.000 A 
ATOM      5  C   UNL     1      45.619   4.075  13.121  0.00  0.00    +0.000 A 
ATOM      6  C   UNL     1      46.907   3.970  13.636  0.00  0.00    +0.000 A 
ATOM      7  C   UNL     1      47.762   5.075  13.644  0.00  0.00    +0.000 A 
ATOM      8  C   UNL     1      47.356   6.319  13.139  0.00  0.00    +0.000 A 
ATOM      9  C   UNL     1      46.025   6.406  12.683  0.00  0.00    +0.000 A 
BRANCH   8  10
ATOM     10  C   UNL     1      48.327   7.513  13.020  0.00  0.00    +0.000 C 
ATOM     11  C   UNL     1      49.558   7.333  13.946  0.00  0.00    +0.000 C 
ATOM     12  C   UNL     1      48.898   7.647  11.582  0.00  0.00    +0.000 C 
BRANCH  10  13
ATOM     13  C   UNL     1      47.674   8.868  13.376  0.00  0.00    +0.000 C 
ATOM     14  C   UNL     1      47.079   9.778  12.286  0.00  0.00    +0.000 C 
ATOM     15  N   UNL     1      47.670  10.954  12.940  0.00  0.00    +0.000 NA
ATOM     16  C   UNL     1      48.491  10.101  13.813  0.00  0.00    +0.000 C 
ATOM     17  H   UNL     1      46.995  11.532  13.439  0.00  0.00    +0.000 HD
ENDBRANCH  10  13
ENDBRANCH   8  10
ENDBRANCH   2   4
BRANCH   2  18
ATOM     18  C   UNL     1      43.530   4.289  10.988  0.00  0.00    +0.000 C 
BRANCH  18  19
ATOM     19  N   UNL     1      43.927   4.642   9.631  0.00  0.00    +0.000 N 
ATOM     20  C   UNL     1      44.850   3.870   8.958  0.00  0.00    +0.000 A 
ATOM     21  C   UNL     1      44.976   2.494   9.125  0.00  0.00    +0.000 A 
ATOM     22  C   UNL     1      45.898   1.789   8.346  0.00  0.00    +0.000 A 
ATOM     23  C   UNL     1      46.662   2.463   7.400  0.00  0.00    +0.000 A 
ATOM     24  C   UNL     1      46.469   3.830   7.295  0.00  0.00    +0.000 A 
ATOM     25  N   UNL     1      45.596   4.539   8.055  0.00  0.00    +0.000 NA
ATOM     26  H   UNL     1      44.181   5.614   9.468  0.00  0.00    +0.000 HD
BRANCH  23  27
ATOM     27  C   UNL     1      47.618   1.694   6.565  0.00  0.00    +0.000 C 
ATOM     28  N   UNL     1      48.806   2.270   6.217  0.00  0.00    +0.000 N 
ATOM     29  O   UNL     1      47.351   0.556   6.190  0.00  0.00    +0.000 OA
ATOM     30  H   UNL     1      49.110   3.198   6.442  0.00  0.00    +0.000 HD
ATOM     31  H   UNL     1      49.416   1.704   5.634  0.00  0.00    +0.000 HD
ENDBRANCH  23  27
ENDBRANCH  18  19
ENDBRANCH   2  18
TORSDOF 6
ENDMDL
MODEL 2
REMARK VINA RESULT:    -7.274      1.502      2.573
REMARK INTER + INTRA:         -11.084
REMARK INTER:                  -9.897
REMARK INTRA:                  -1.188
REMARK UNBOUND:                -1.260
REMARK  Name = 
REMARK  10 active torsions:
REMARK  status: ('A' for Active; 'I' for Inactive)
REMARK    1  A    between atoms: C_1  and  C_2
REMARK    2  A    between atoms: C_2  and  C_3
REMARK    3  A    between atoms: C_2  and  C_4
REMARK    4  A    between atoms: C_2  and  C_15
REMARK    5  A    between atoms: C_4  and  N_5
REMARK    6  A    between atoms: C_9  and  C_10
REMARK    7  A    between atoms: C_19  and  C_20
REMARK    8  A    between atoms: C_20  and  C_21
REMARK    9  A    between atoms: C_20  and  C_22
REMARK   10  A    between atoms: C_20  and  C_23
REMARK                            x       y       z     vdW  Elec       q    Type
REMARK                         _______ _______ _______ _____ _____    ______ ____
ROOT
ATOM      1  C   UNL     1      42.248   5.627  12.131  0.00  0.00    +0.000 C 
ATOM      2  C   UNL     1      43.720   5.347  11.758  0.00  0.00    +0.000 C 
ATOM      3  C   UNL     1      44.291   4.363  12.808  0.00  0.00    +0.000 C 
ENDROOT
BRANCH   2   4
ATOM      4  C   UNL     1      44.490   6.688  11.707  0.00  0.00    +0.000 A 
ATOM      5  C   UNL     1      43.874   7.904  11.393  0.00  0.00    +0.000 A 
ATOM      6  C   UNL     1      44.601   9.090  11.404  0.00  0.00    +0.000 A 
ATOM      7  C   UNL     1      45.952   9.093  11.758  0.00  0.00    +0.000 A 
ATOM      8  C   UNL     1      46.619   7.910  12.112  0.00  0.00    +0.000 A 
ATOM      9  C   UNL     1      45.868   6.719  12.030  0.00  0.00    +0.000 A 
BRANCH   8  10
ATOM     10  C   UNL     1      48.072   7.912  12.631  0.00  0.00    +0.000 C 
ATOM     11  C   UNL     1      48.213   8.776  13.911  0.00  0.00    +0.000 C 
ATOM     12  C   UNL     1      48.541   6.487  13.032  0.00  0.00    +0.000 C 
BRANCH  10  13
ATOM     13  C   UNL     1      49.088   8.448  11.597  0.00  0.00    +0.000 C 
ATOM     14  C   UNL     1      50.538   7.930  11.559  0.00  0.00    +0.000 C 
ATOM     15  N   UNL     1      51.026   9.301  11.357  0.00  0.00    +0.000 NA
ATOM     16  C   UNL     1      49.706   9.859  11.685  0.00  0.00    +0.000 C 
ATOM     17  H   UNL     1      51.335   9.494  10.406  0.00  0.00    +0.000 HD
ENDBRANCH  10  13
ENDBRANCH   8  10
ENDBRANCH   2   4
BRANCH   2  18
ATOM     18  C   UNL     1      43.822   4.681  10.346  0.00  0.00    +0.000 C 
BRANCH  18  19
ATOM     19  N   UNL     1      44.697   3.517  10.334  0.00  0.00    +0.000 N 
ATOM     20  C   UNL     1      45.338   3.146   9.170  0.00  0.00    +0.000 A 
ATOM     21  C   UNL     1      45.769   4.049   8.203  0.00  0.00    +0.000 A 
ATOM     22  C   UNL     1      46.470   3.579   7.090  0.00  0.00    +0.000 A 
ATOM     23  C   UNL     1      46.747   2.221   6.969  0.00  0.00    +0.000 A 
ATOM     24  C   UNL     1      46.287   1.395   7.979  0.00  0.00    +0.000 A 
ATOM     25  N   UNL     1      45.587   1.824   9.059  0.00  0.00    +0.000 NA
ATOM     26  H   UNL     1      44.330   2.665  10.753  0.00  0.00    +0.000 HD
BRANCH  23  27
ATOM     27  C   UNL     1      47.515   1.745   5.791  0.00  0.00    +0.000 C 
ATOM     28  N   UNL     1      48.268   2.639   5.086  0.00  0.00    +0.000 N 
ATOM     29  O   UNL     1      47.478   0.566   5.451  0.00  0.00    +0.000 OA
ATOM     30  H   UNL     1      48.345   3.623   5.256  0.00  0.00    +0.000 HD
ATOM     31  H   UNL     1      48.762   2.262   4.282  0.00  0.00    +0.000 HD
ENDBRANCH  23  27
ENDBRANCH  18  19
ENDBRANCH   2  18
TORSDOF 6
ENDMDL
MODEL 3
REMARK VINA RESULT:    -7.066      1.342      2.098
REMARK INTER + INTRA:         -10.805
REMARK INTER:                  -9.768
REMARK INTRA:                  -1.037
REMARK UNBOUND:                -1.260
REMARK  Name = 
REMARK  10 active torsions:
REMARK  status: ('A' for Active; 'I' for Inactive)
REMARK    1  A    between atoms: C_1  and  C_2
REMARK    2  A    between atoms: C_2  and  C_3
REMARK    3  A    between atoms: C_2  and  C_4
REMARK    4  A    between atoms: C_2  and  C_15
REMARK    5  A    between atoms: C_4  and  N_5
REMARK    6  A    between atoms: C_9  and  C_10
REMARK    7  A    between atoms: C_19  and  C_20
REMARK    8  A    between atoms: C_20  and  C_21
REMARK    9  A    between atoms: C_20  and  C_22
REMARK   10  A    between atoms: C_20  and  C_23
REMARK                            x       y       z     vdW  Elec       q    Type
REMARK                         _______ _______ _______ _____ _____    ______ ____
ROOT
ATOM      1  C   UNL     1      42.362   5.713  11.514  0.00  0.00    +0.000 C 
ATOM      2  C   UNL     1      43.723   5.264  12.089  0.00  0.00    +0.000 C 
ATOM      3  C   UNL     1      43.463   4.648  13.485  0.00  0.00    +0.000 C 
ENDROOT
BRANCH   2   4
ATOM      4  C   UNL     1      44.676   6.482  12.137  0.00  0.00    +0.000 A 
ATOM      5  C   UNL     1      44.346   7.724  11.583  0.00  0.00    +0.000 A 
ATOM      6  C   UNL     1      45.218   8.802  11.690  0.00  0.00    +0.000 A 
ATOM      7  C   UNL     1      46.427   8.673  12.379  0.00  0.00    +0.000 A 
ATOM      8  C   UNL     1      46.800   7.462  12.982  0.00  0.00    +0.000 A 
ATOM      9  C   UNL     1      45.922   6.375  12.800  0.00  0.00    +0.000 A 
BRANCH   8  10
ATOM     10  C   UNL     1      48.066   7.338  13.857  0.00  0.00    +0.000 C 
ATOM     11  C   UNL     1      48.043   6.038  14.702  0.00  0.00    +0.000 C 
ATOM     12  C   UNL     1      49.354   7.256  12.994  0.00  0.00    +0.000 C 
BRANCH  10  13
ATOM     13  C   UNL     1      48.249   8.522  14.834  0.00  0.00    +0.000 C 
ATOM     14  C   UNL     1      49.192   9.693  14.501  0.00  0.00    +0.000 C 
ATOM     15  N   UNL     1      49.688   9.691  15.884  0.00  0.00    +0.000 NA
ATOM     16  C   UNL     1      49.036   8.402  16.156  0.00  0.00    +0.000 C 
ATOM     17  H   UNL     1      49.337  10.462  16.450  0.00  0.00    +0.000 HD
ENDBRANCH  10  13
ENDBRANCH   8  10
ENDBRANCH   2   4
BRANCH   2  18
ATOM     18  C   UNL     1      44.382   4.175  11.180  0.00  0.00    +0.000 C 
BRANCH  18  19
ATOM     19  N   UNL     1      44.515   4.604   9.794  0.00  0.00    +0.000 N 
ATOM     20  C   UNL     1      45.272   3.862   8.910  0.00  0.00    +0.000 A 
ATOM     21  C   UNL     1      45.396   2.477   8.972  0.00  0.00    +0.000 A 
ATOM     22  C   UNL     1      46.131   1.810   7.989  0.00  0.00    +0.000 A 
ATOM     23  C   UNL     1      46.713   2.530   6.951  0.00  0.00    +0.000 A 
ATOM     24  C   UNL     1      46.535   3.903   6.964  0.00  0.00    +0.000 A 
ATOM     25  N   UNL     1      45.843   4.575   7.918  0.00  0.00    +0.000 NA
ATOM     26  H   UNL     1      44.756   5.581   9.639  0.00  0.00    +0.000 HD
BRANCH  23  27
ATOM     27  C   UNL     1      47.469   1.800   5.903  0.00  0.00    +0.000 C 
ATOM     28  N   UNL     1      48.257   2.509   5.041  0.00  0.00    +0.000 N 
ATOM     29  O   UNL     1      47.394   0.579   5.807  0.00  0.00    +0.000 OA
ATOM     30  H   UNL     1      48.367   3.504   5.011  0.00  0.00    +0.000 HD
ATOM     31  H   UNL     1      48.741   1.961   4.336  0.00  0.00    +0.000 HD
ENDBRANCH  23  27
ENDBRANCH  18  19
ENDBRANCH   2  18
TORSDOF 6
ENDMDL
MODEL 4
REMARK VINA RESULT:    -7.037      3.808      6.559
REMARK INTER + INTRA:         -10.765
REMARK INTER:                  -9.287
REMARK INTRA:                  -1.479
REMARK UNBOUND:                -1.260
REMARK  Name = 
REMARK  10 active torsions:
REMARK  status: ('A' for Active; 'I' for Inactive)
REMARK    1  A    between atoms: C_1  and  C_2
REMARK    2  A    between atoms: C_2  and  C_3
REMARK    3  A    between atoms: C_2  and  C_4
REMARK    4  A    between atoms: C_2  and  C_15
REMARK    5  A    between atoms: C_4  and  N_5
REMARK    6  A    between atoms: C_9  and  C_10
REMARK    7  A    between atoms: C_19  and  C_20
REMARK    8  A    between atoms: C_20  and  C_21
REMARK    9  A    between atoms: C_20  and  C_22
REMARK   10  A    between atoms: C_20  and  C_23
REMARK                            x       y       z     vdW  Elec       q    Type
REMARK                         _______ _______ _______ _____ _____    ______ ____
ROOT
ATOM      1  C   UNL     1      50.470   9.267  14.180  0.00  0.00    +0.000 C 
ATOM      2  C   UNL     1      49.511   8.089  14.455  0.00  0.00    +0.000 C 
ATOM      3  C   UNL     1      48.160   8.683  14.924  0.00  0.00    +0.000 C 
ENDROOT
BRANCH   2   4
ATOM      4  C   UNL     1      50.154   7.152  15.506  0.00  0.00    +0.000 A 
ATOM      5  C   UNL     1      51.514   7.197  15.829  0.00  0.00    +0.000 A 
ATOM      6  C   UNL     1      52.036   6.364  16.813  0.00  0.00    +0.000 A 
ATOM      7  C   UNL     1      51.207   5.489  17.518  0.00  0.00    +0.000 A 
ATOM      8  C   UNL     1      49.829   5.419  17.260  0.00  0.00    +0.000 A 
ATOM      9  C   UNL     1      49.345   6.232  16.215  0.00  0.00    +0.000 A 
BRANCH   8  10
ATOM     10  C   UNL     1      48.877   4.556  18.116  0.00  0.00    +0.000 C 
ATOM     11  C   UNL     1      49.328   4.520  19.599  0.00  0.00    +0.000 C 
ATOM     12  C   UNL     1      47.435   5.131  18.128  0.00  0.00    +0.000 C 
BRANCH  10  13
ATOM     13  C   UNL     1      48.777   3.092  17.628  0.00  0.00    +0.000 C 
ATOM     14  C   UNL     1      50.032   2.301  17.213  0.00  0.00    +0.000 C 
ATOM     15  N   UNL     1      49.309   1.753  16.058  0.00  0.00    +0.000 NA
ATOM     16  C   UNL     1      48.208   2.708  16.246  0.00  0.00    +0.000 C 
ATOM     17  H   UNL     1      49.036   0.777  16.167  0.00  0.00    +0.000 HD
ENDBRANCH  10  13
ENDBRANCH   8  10
ENDBRANCH   2   4
BRANCH   2  18
ATOM     18  C   UNL     1      49.263   7.254  13.156  0.00  0.00    +0.000 C 
BRANCH  18  19
ATOM     19  N   UNL     1      47.911   7.409  12.637  0.00  0.00    +0.000 N 
ATOM     20  C   UNL     1      47.089   6.308  12.512  0.00  0.00    +0.000 A 
ATOM     21  C   UNL     1      47.123   5.215  13.374  0.00  0.00    +0.000 A 
ATOM     22  C   UNL     1      46.202   4.179  13.204  0.00  0.00    +0.000 A 
ATOM     23  C   UNL     1      45.249   4.257  12.194  0.00  0.00    +0.000 A 
ATOM     24  C   UNL     1      45.283   5.381  11.387  0.00  0.00    +0.000 A 
ATOM     25  N   UNL     1      46.180   6.390  11.519  0.00  0.00    +0.000 NA
ATOM     26  H   UNL     1      47.809   7.950  11.781  0.00  0.00    +0.000 HD
BRANCH  23  27
ATOM     27  C   UNL     1      44.264   3.157  12.046  0.00  0.00    +0.000 C 
ATOM     28  N   UNL     1      44.149   2.530  10.838  0.00  0.00    +0.000 N 
ATOM     29  O   UNL     1      43.560   2.812  12.989  0.00  0.00    +0.000 OA
ATOM     30  H   UNL     1      44.649   2.751   9.999  0.00  0.00    +0.000 HD
ATOM     31  H   UNL     1      43.450   1.794  10.789  0.00  0.00    +0.000 HD
ENDBRANCH  23  27
ENDBRANCH  18  19
ENDBRANCH   2  18
TORSDOF 6
ENDMDL
MODEL 5
REMARK VINA RESULT:    -6.605      4.053      6.821
REMARK INTER + INTRA:         -10.181
REMARK INTER:                  -8.955
REMARK INTRA:                  -1.226
REMARK UNBOUND:                -1.260
REMARK  Name = 
REMARK  10 active torsions:
REMARK  status: ('A' for Active; 'I' for Inactive)
REMARK    1  A    between atoms: C_1  and  C_2
REMARK    2  A    between atoms: C_2  and  C_3
REMARK    3  A    between atoms: C_2  and  C_4
REMARK    4  A    between atoms: C_2  and  C_15
REMARK    5  A    between atoms: C_4  and  N_5
REMARK    6  A    between atoms: C_9  and  C_10
REMARK    7  A    between atoms: C_19  and  C_20
REMARK    8  A    between atoms: C_20  and  C_21
REMARK    9  A    between atoms: C_20  and  C_22
REMARK   10  A    between atoms: C_20  and  C_23
REMARK                            x       y       z     vdW  Elec       q    Type
REMARK                         _______ _______ _______ _____ _____    ______ ____
ROOT
ATOM      1  C   UNL     1      50.605  10.152  13.558  0.00  0.00    +0.000 C 
ATOM      2  C   UNL     1      49.802   8.867  13.857  0.00  0.00    +0.000 C 
ATOM      3  C   UNL     1      48.454   9.293  14.490  0.00  0.00    +0.000 C 
ENDROOT
BRANCH   2   4
ATOM      4  C   UNL     1      50.640   7.954  14.783  0.00  0.00    +0.000 A 
ATOM      5  C   UNL     1      52.039   7.947  14.775  0.00  0.00    +0.000 A 
ATOM      6  C   UNL     1      52.748   7.140  15.659  0.00  0.00    +0.000 A 
ATOM      7  C   UNL     1      52.077   6.344  16.590  0.00  0.00    +0.000 A 
ATOM      8  C   UNL     1      50.676   6.330  16.667  0.00  0.00    +0.000 A 
ATOM      9  C   UNL     1      49.988   7.112  15.716  0.00  0.00    +0.000 A 
BRANCH   8  10
ATOM     10  C   UNL     1      49.923   5.559  17.772  0.00  0.00    +0.000 C 
ATOM     11  C   UNL     1      50.162   4.032  17.659  0.00  0.00    +0.000 C 
ATOM     12  C   UNL     1      50.417   5.959  19.189  0.00  0.00    +0.000 C 
BRANCH  10  13
ATOM     13  C   UNL     1      48.394   5.792  17.743  0.00  0.00    +0.000 C 
ATOM     14  C   UNL     1      47.604   6.063  19.037  0.00  0.00    +0.000 C 
ATOM     15  N   UNL     1      46.534   5.168  18.574  0.00  0.00    +0.000 NA
ATOM     16  C   UNL     1      47.380   4.658  17.485  0.00  0.00    +0.000 C 
ATOM     17  H   UNL     1      45.696   5.655  18.257  0.00  0.00    +0.000 HD
ENDBRANCH  10  13
ENDBRANCH   8  10
ENDBRANCH   2   4
BRANCH   2  18
ATOM     18  C   UNL     1      49.505   8.075  12.542  0.00  0.00    +0.000 C 
BRANCH  18  19
ATOM     19  N   UNL     1      49.165   6.680  12.789  0.00  0.00    +0.000 N 
ATOM     20  C   UNL     1      47.843   6.296  12.874  0.00  0.00    +0.000 A 
ATOM     21  C   UNL     1      46.816   6.892  12.148  0.00  0.00    +0.000 A 
ATOM     22  C   UNL     1      45.518   6.385  12.252  0.00  0.00    +0.000 A 
ATOM     23  C   UNL     1      45.269   5.281  13.060  0.00  0.00    +0.000 A 
ATOM     24  C   UNL     1      46.348   4.746  13.741  0.00  0.00    +0.000 A 
ATOM     25  N   UNL     1      47.613   5.233  13.673  0.00  0.00    +0.000 NA
ATOM     26  H   UNL     1      49.655   6.219  13.553  0.00  0.00    +0.000 HD
BRANCH  23  27
ATOM     27  C   UNL     1      43.888   4.742  13.137  0.00  0.00    +0.000 C 
ATOM     28  N   UNL     1      42.834   5.606  13.041  0.00  0.00    +0.000 N 
ATOM     29  O   UNL     1      43.689   3.541  13.285  0.00  0.00    +0.000 OA
ATOM     30  H   UNL     1      42.883   6.602  12.951  0.00  0.00    +0.000 HD
ATOM     31  H   UNL     1      41.913   5.185  13.114  0.00  0.00    +0.000 HD
ENDBRANCH  23  27
ENDBRANCH  18  19
ENDBRANCH   2  18
TORSDOF 6
ENDMDL
MODEL 6
REMARK VINA RESULT:    -6.576      3.288      5.712
REMARK INTER + INTRA:         -10.142
REMARK INTER:                  -8.392
REMARK INTRA:                  -1.751
REMARK UNBOUND:                -1.260
REMARK  Name = 
REMARK  10 active torsions:
REMARK  status: ('A' for Active; 'I' for Inactive)
REMARK    1  A    between atoms: C_1  and  C_2
REMARK    2  A    between atoms: C_2  and  C_3
REMARK    3  A    between atoms: C_2  and  C_4
REMARK    4  A    between atoms: C_2  and  C_15
REMARK    5  A    between atoms: C_4  and  N_5
REMARK    6  A    between atoms: C_9  and  C_10
REMARK    7  A    between atoms: C_19  and  C_20
REMARK    8  A    between atoms: C_20  and  C_21
REMARK    9  A    between atoms: C_20  and  C_22
REMARK   10  A    between atoms: C_20  and  C_23
REMARK                            x       y       z     vdW  Elec       q    Type
REMARK                         _______ _______ _______ _____ _____    ______ ____
ROOT
ATOM      1  C   UNL     1      48.457   3.996  18.876  0.00  0.00    +0.000 C 
ATOM      2  C   UNL     1      48.720   3.950  17.355  0.00  0.00    +0.000 C 
ATOM      3  C   UNL     1      49.189   2.518  17.002  0.00  0.00    +0.000 C 
ENDROOT
BRANCH   2   4
ATOM      4  C   UNL     1      49.765   5.032  16.992  0.00  0.00    +0.000 A 
ATOM      5  C   UNL     1      51.117   4.924  17.334  0.00  0.00    +0.000 A 
ATOM      6  C   UNL     1      52.026   5.903  16.947  0.00  0.00    +0.000 A 
ATOM      7  C   UNL     1      51.611   6.997  16.184  0.00  0.00    +0.000 A 
ATOM      8  C   UNL     1      50.274   7.147  15.785  0.00  0.00    +0.000 A 
ATOM      9  C   UNL     1      49.369   6.169  16.247  0.00  0.00    +0.000 A 
BRANCH   8  10
ATOM     10  C   UNL     1      49.824   8.276  14.834  0.00  0.00    +0.000 C 
ATOM     11  C   UNL     1      48.368   8.719  15.133  0.00  0.00    +0.000 C 
ATOM     12  C   UNL     1      50.695   9.550  15.003  0.00  0.00    +0.000 C 
BRANCH  10  13
ATOM     13  C   UNL     1      49.889   7.878  13.341  0.00  0.00    +0.000 C 
ATOM     14  C   UNL     1      51.014   8.394  12.425  0.00  0.00    +0.000 C 
ATOM     15  N   UNL     1      50.037   8.633  11.354  0.00  0.00    +0.000 NA
ATOM     16  C   UNL     1      48.915   8.435  12.283  0.00  0.00    +0.000 C 
ATOM     17  H   UNL     1      50.077   7.950  10.599  0.00  0.00    +0.000 HD
ENDBRANCH  10  13
ENDBRANCH   8  10
ENDBRANCH   2   4
BRANCH   2  18
ATOM     18  C   UNL     1      47.413   4.257  16.552  0.00  0.00    +0.000 C 
BRANCH  18  19
ATOM     19  N   UNL     1      47.301   3.466  15.334  0.00  0.00    +0.000 N 
ATOM     20  C   UNL     1      46.736   4.016  14.202  0.00  0.00    +0.000 A 
ATOM     21  C   UNL     1      46.837   5.362  13.863  0.00  0.00    +0.000 A 
ATOM     22  C   UNL     1      46.286   5.809  12.659  0.00  0.00    +0.000 A 
ATOM     23  C   UNL     1      45.663   4.906  11.805  0.00  0.00    +0.000 A 
ATOM     24  C   UNL     1      45.612   3.586  12.217  0.00  0.00    +0.000 A 
ATOM     25  N   UNL     1      46.121   3.131  13.390  0.00  0.00    +0.000 NA
ATOM     26  H   UNL     1      46.914   2.530  15.431  0.00  0.00    +0.000 HD
BRANCH  23  27
ATOM     27  C   UNL     1      45.107   5.396  10.519  0.00  0.00    +0.000 C 
ATOM     28  N   UNL     1      43.760   5.596  10.415  0.00  0.00    +0.000 N 
ATOM     29  O   UNL     1      45.839   5.621   9.561  0.00  0.00    +0.000 OA
ATOM     30  H   UNL     1      43.071   5.417  11.120  0.00  0.00    +0.000 HD
ATOM     31  H   UNL     1      43.432   5.920   9.509  0.00  0.00    +0.000 HD
ENDBRANCH  23  27
ENDBRANCH  18  19
ENDBRANCH   2  18
TORSDOF 6
ENDMDL
MODEL 7
REMARK VINA RESULT:    -6.478      2.416      3.505
REMARK INTER + INTRA:         -10.010
REMARK INTER:                  -8.889
REMARK INTRA:                  -1.121
REMARK UNBOUND:                -1.260
REMARK  Name = 
REMARK  10 active torsions:
REMARK  status: ('A' for Active; 'I' for Inactive)
REMARK    1  A    between atoms: C_1  and  C_2
REMARK    2  A    between atoms: C_2  and  C_3
REMARK    3  A    between atoms: C_2  and  C_4
REMARK    4  A    between atoms: C_2  and  C_15
REMARK    5  A    between atoms: C_4  and  N_5
REMARK    6  A    between atoms: C_9  and  C_10
REMARK    7  A    between atoms: C_19  and  C_20
REMARK    8  A    between atoms: C_20  and  C_21
REMARK    9  A    between atoms: C_20  and  C_22
REMARK   10  A    between atoms: C_20  and  C_23
REMARK                            x       y       z     vdW  Elec       q    Type
REMARK                         _______ _______ _______ _____ _____    ______ ____
ROOT
ATOM      1  C   UNL     1      42.501   5.798  11.317  0.00  0.00    +0.000 C 
ATOM      2  C   UNL     1      43.813   5.350  11.999  0.00  0.00    +0.000 C 
ATOM      3  C   UNL     1      43.445   4.766  13.385  0.00  0.00    +0.000 C 
ENDROOT
BRANCH   2   4
ATOM      4  C   UNL     1      44.771   6.561  12.092  0.00  0.00    +0.000 A 
ATOM      5  C   UNL     1      46.107   6.442  12.490  0.00  0.00    +0.000 A 
ATOM      6  C   UNL     1      46.941   7.554  12.514  0.00  0.00    +0.000 A 
ATOM      7  C   UNL     1      46.468   8.807  12.114  0.00  0.00    +0.000 A 
ATOM      8  C   UNL     1      45.147   8.985  11.677  0.00  0.00    +0.000 A 
ATOM      9  C   UNL     1      44.313   7.849  11.723  0.00  0.00    +0.000 A 
BRANCH   8  10
ATOM     10  C   UNL     1      44.646  10.329  11.107  0.00  0.00    +0.000 C 
ATOM     11  C   UNL     1      43.596  10.983  12.043  0.00  0.00    +0.000 C 
ATOM     12  C   UNL     1      45.797  11.363  10.980  0.00  0.00    +0.000 C 
BRANCH  10  13
ATOM     13  C   UNL     1      44.000  10.196   9.709  0.00  0.00    +0.000 C 
ATOM     14  C   UNL     1      44.372  11.155   8.563  0.00  0.00    +0.000 C 
ATOM     15  N   UNL     1      42.957  11.248   8.177  0.00  0.00    +0.000 NA
ATOM     16  C   UNL     1      42.536  10.589   9.422  0.00  0.00    +0.000 C 
ATOM     17  H   UNL     1      42.724  10.729   7.332  0.00  0.00    +0.000 HD
ENDBRANCH  10  13
ENDBRANCH   8  10
ENDBRANCH   2   4
BRANCH   2  18
ATOM     18  C   UNL     1      44.525   4.237  11.164  0.00  0.00    +0.000 C 
BRANCH  18  19
ATOM     19  N   UNL     1      44.658   4.587   9.756  0.00  0.00    +0.000 N 
ATOM     20  C   UNL     1      45.394   3.784   8.910  0.00  0.00    +0.000 A 
ATOM     21  C   UNL     1      45.491   2.402   9.046  0.00  0.00    +0.000 A 
ATOM     22  C   UNL     1      46.207   1.668   8.096  0.00  0.00    +0.000 A 
ATOM     23  C   UNL     1      46.796   2.319   7.018  0.00  0.00    +0.000 A 
ATOM     24  C   UNL     1      46.645   3.694   6.957  0.00  0.00    +0.000 A 
ATOM     25  N   UNL     1      45.973   4.430   7.877  0.00  0.00    +0.000 NA
ATOM     26  H   UNL     1      44.917   5.549   9.547  0.00  0.00    +0.000 HD
BRANCH  23  27
ATOM     27  C   UNL     1      47.531   1.519   6.007  0.00  0.00    +0.000 C 
ATOM     28  N   UNL     1      47.119   0.243   5.746  0.00  0.00    +0.000 N 
ATOM     29  O   UNL     1      48.493   1.990   5.410  0.00  0.00    +0.000 OA
ATOM     30  H   UNL     1      46.369  -0.248   6.193  0.00  0.00    +0.000 HD
ATOM     31  H   UNL     1      47.665  -0.263   5.055  0.00  0.00    +0.000 HD
ENDBRANCH  23  27
ENDBRANCH  18  19
ENDBRANCH   2  18
TORSDOF 6
ENDMDL
MODEL 8
REMARK VINA RESULT:    -6.206      4.165      6.672
REMARK INTER + INTRA:          -9.642
REMARK INTER:                  -7.819
REMARK INTRA:                  -1.823
REMARK UNBOUND:                -1.260
REMARK  Name = 
REMARK  10 active torsions:
REMARK  status: ('A' for Active; 'I' for Inactive)
REMARK    1  A    between atoms: C_1  and  C_2
REMARK    2  A    between atoms: C_2  and  C_3
REMARK    3  A    between atoms: C_2  and  C_4
REMARK    4  A    between atoms: C_2  and  C_15
REMARK    5  A    between atoms: C_4  and  N_5
REMARK    6  A    between atoms: C_9  and  C_10
REMARK    7  A    between atoms: C_19  and  C_20
REMARK    8  A    between atoms: C_20  and  C_21
REMARK    9  A    between atoms: C_20  and  C_22
REMARK   10  A    between atoms: C_20  and  C_23
REMARK                            x       y       z     vdW  Elec       q    Type
REMARK                         _______ _______ _______ _____ _____    ______ ____
ROOT
ATOM      1  C   UNL     1      45.107   4.989  10.683  0.00  0.00    +0.000 C 
ATOM      2  C   UNL     1      45.397   5.447  12.128  0.00  0.00    +0.000 C 
ATOM      3  C   UNL     1      44.081   5.320  12.934  0.00  0.00    +0.000 C 
ENDROOT
BRANCH   2   4
ATOM      4  C   UNL     1      45.946   6.893  12.097  0.00  0.00    +0.000 A 
ATOM      5  C   UNL     1      45.117   8.019  12.143  0.00  0.00    +0.000 A 
ATOM      6  C   UNL     1      45.661   9.300  12.157  0.00  0.00    +0.000 A 
ATOM      7  C   UNL     1      47.046   9.484  12.155  0.00  0.00    +0.000 A 
ATOM      8  C   UNL     1      47.930   8.394  12.139  0.00  0.00    +0.000 A 
ATOM      9  C   UNL     1      47.344   7.114  12.063  0.00  0.00    +0.000 A 
BRANCH   8  10
ATOM     10  C   UNL     1      49.457   8.575  12.269  0.00  0.00    +0.000 C 
ATOM     11  C   UNL     1      50.221   7.660  11.277  0.00  0.00    +0.000 C 
ATOM     12  C   UNL     1      49.895  10.025  11.927  0.00  0.00    +0.000 C 
BRANCH  10  13
ATOM     13  C   UNL     1      49.988   8.264  13.687  0.00  0.00    +0.000 C 
ATOM     14  C   UNL     1      49.527   9.080  14.909  0.00  0.00    +0.000 C 
ATOM     15  N   UNL     1      50.906   9.110  15.414  0.00  0.00    +0.000 NA
ATOM     16  C   UNL     1      51.425   8.603  14.136  0.00  0.00    +0.000 C 
ATOM     17  H   UNL     1      51.070   8.489  16.206  0.00  0.00    +0.000 HD
ENDBRANCH  10  13
ENDBRANCH   8  10
ENDBRANCH   2   4
BRANCH   2  18
ATOM     18  C   UNL     1      46.479   4.537  12.796  0.00  0.00    +0.000 C 
BRANCH  18  19
ATOM     19  N   UNL     1      46.137   4.164  14.163  0.00  0.00    +0.000 N 
ATOM     20  C   UNL     1      47.015   4.431  15.193  0.00  0.00    +0.000 A 
ATOM     21  C   UNL     1      47.861   5.536  15.222  0.00  0.00    +0.000 A 
ATOM     22  C   UNL     1      48.665   5.755  16.343  0.00  0.00    +0.000 A 
ATOM     23  C   UNL     1      48.598   4.883  17.424  0.00  0.00    +0.000 A 
ATOM     24  C   UNL     1      47.726   3.814  17.314  0.00  0.00    +0.000 A 
ATOM     25  N   UNL     1      46.951   3.568  16.228  0.00  0.00    +0.000 NA
ATOM     26  H   UNL     1      45.795   3.216  14.305  0.00  0.00    +0.000 HD
BRANCH  23  27
ATOM     27  C   UNL     1      49.442   5.146  18.616  0.00  0.00    +0.000 C 
ATOM     28  N   UNL     1      49.181   6.247  19.381  0.00  0.00    +0.000 N 
ATOM     29  O   UNL     1      50.362   4.391  18.915  0.00  0.00    +0.000 OA
ATOM     30  H   UNL     1      48.479   6.941  19.212  0.00  0.00    +0.000 HD
ATOM     31  H   UNL     1      49.797   6.386  20.177  0.00  0.00    +0.000 HD
ENDBRANCH  23  27
ENDBRANCH  18  19
ENDBRANCH   2  18
TORSDOF 6
ENDMDL
MODEL 9
REMARK VINA RESULT:    -6.093      4.964      6.914
REMARK INTER + INTRA:          -9.490
REMARK INTER:                  -8.508
REMARK INTRA:                  -0.982
REMARK UNBOUND:                -1.260
REMARK  Name = 
REMARK  10 active torsions:
REMARK  status: ('A' for Active; 'I' for Inactive)
REMARK    1  A    between atoms: C_1  and  C_2
REMARK    2  A    between atoms: C_2  and  C_3
REMARK    3  A    between atoms: C_2  and  C_4
REMARK    4  A    between atoms: C_2  and  C_15
REMARK    5  A    between atoms: C_4  and  N_5
REMARK    6  A    between atoms: C_9  and  C_10
REMARK    7  A    between atoms: C_19  and  C_20
REMARK    8  A    between atoms: C_20  and  C_21
REMARK    9  A    between atoms: C_20  and  C_22
REMARK   10  A    between atoms: C_20  and  C_23
REMARK                            x       y       z     vdW  Elec       q    Type
REMARK                         _______ _______ _______ _____ _____    ______ ____
ROOT
ATOM      1  C   UNL     1      47.037   2.685  17.885  0.00  0.00    +0.000 C 
ATOM      2  C   UNL     1      48.166   3.258  17.001  0.00  0.00    +0.000 C 
ATOM      3  C   UNL     1      48.854   2.068  16.289  0.00  0.00    +0.000 C 
ENDROOT
BRANCH   2   4
ATOM      4  C   UNL     1      49.138   4.070  17.891  0.00  0.00    +0.000 A 
ATOM      5  C   UNL     1      50.528   3.990  17.762  0.00  0.00    +0.000 A 
ATOM      6  C   UNL     1      51.360   4.774  18.556  0.00  0.00    +0.000 A 
ATOM      7  C   UNL     1      50.820   5.677  19.476  0.00  0.00    +0.000 A 
ATOM      8  C   UNL     1      49.433   5.823  19.631  0.00  0.00    +0.000 A 
ATOM      9  C   UNL     1      48.623   4.970  18.855  0.00  0.00    +0.000 A 
BRANCH   8  10
ATOM     10  C   UNL     1      48.820   6.906  20.545  0.00  0.00    +0.000 C 
ATOM     11  C   UNL     1      47.449   6.456  21.110  0.00  0.00    +0.000 C 
ATOM     12  C   UNL     1      49.715   7.186  21.782  0.00  0.00    +0.000 C 
BRANCH  10  13
ATOM     13  C   UNL     1      48.604   8.258  19.827  0.00  0.00    +0.000 C 
ATOM     14  C   UNL     1      48.283   9.539  20.618  0.00  0.00    +0.000 C 
ATOM     15  N   UNL     1      47.276   9.911  19.614  0.00  0.00    +0.000 NA
ATOM     16  C   UNL     1      47.339   8.575  19.003  0.00  0.00    +0.000 C 
ATOM     17  H   UNL     1      47.569  10.666  18.995  0.00  0.00    +0.000 HD
ENDBRANCH  10  13
ENDBRANCH   8  10
ENDBRANCH   2   4
BRANCH   2  18
ATOM     18  C   UNL     1      47.590   4.224  15.915  0.00  0.00    +0.000 C 
BRANCH  18  19
ATOM     19  N   UNL     1      47.300   3.547  14.657  0.00  0.00    +0.000 N 
ATOM     20  C   UNL     1      46.359   4.068  13.793  0.00  0.00    +0.000 A 
ATOM     21  C   UNL     1      46.117   5.430  13.643  0.00  0.00    +0.000 A 
ATOM     22  C   UNL     1      45.190   5.862  12.691  0.00  0.00    +0.000 A 
ATOM     23  C   UNL     1      44.535   4.931  11.891  0.00  0.00    +0.000 A 
ATOM     24  C   UNL     1      44.840   3.598  12.103  0.00  0.00    +0.000 A 
ATOM     25  N   UNL     1      45.720   3.153  13.035  0.00  0.00    +0.000 NA
ATOM     26  H   UNL     1      47.131   2.544  14.706  0.00  0.00    +0.000 HD
BRANCH  23  27
ATOM     27  C   UNL     1      43.572   5.411  10.868  0.00  0.00    +0.000 C 
ATOM     28  N   UNL     1      42.841   6.536  11.124  0.00  0.00    +0.000 N 
ATOM     29  O   UNL     1      43.431   4.812   9.807  0.00  0.00    +0.000 OA
ATOM     30  H   UNL     1      42.855   7.081  11.964  0.00  0.00    +0.000 HD
ATOM     31  H   UNL     1      42.188   6.811  10.396  0.00  0.00    +0.000 HD
ENDBRANCH  23  27
ENDBRANCH  18  19
ENDBRANCH   2  18
TORSDOF 6
ENDMDL
