MODEL 1
REMARK VINA RESULT:    -8.283      0.000      0.000
REMARK INTER + INTRA:         -12.928
REMARK INTER:                 -11.915
REMARK INTRA:                  -1.014
REMARK UNBOUND:                -1.014
REMARK  Name = 
REMARK  9 active torsions:
REMARK  status: ('A' for Active; 'I' for Inactive)
REMARK    1  A    between atoms: C_1  and  C_2
REMARK    2  A    between atoms: C_5  and  C_6
REMARK    3  A    between atoms: C_6  and  N_7
REMARK    4  A    between atoms: N_7  and  C_8
REMARK    5  A    between atoms: C_8  and  C_9
REMARK    6  A    between atoms: C_12  and  C_13
REMARK    7  A    between atoms: C_13  and  N_14
REMARK    8  A    between atoms: C_15  and  C_17
REMARK    9  A    between atoms: C_24  and  O_25
REMARK                            x       y       z     vdW  Elec       q    Type
REMARK                         _______ _______ _______ _____ _____    ______ ____
ROOT
ATOM      1  C   UNL     1      44.688   6.309  11.595  0.00  0.00    +0.000 A 
ATOM      2  C   UNL     1      44.933   7.683  11.728  0.00  0.00    +0.000 A 
ATOM      3  C   UNL     1      46.140   8.147  12.260  0.00  0.00    +0.000 A 
ATOM      4  C   UNL     1      47.145   7.246  12.650  0.00  0.00    +0.000 A 
ATOM      5  C   UNL     1      46.900   5.873  12.503  0.00  0.00    +0.000 A 
ATOM      6  C   UNL     1      45.687   5.409  11.980  0.00  0.00    +0.000 A 
ENDROOT
BRANCH   1   7
ATOM      7  C   UNL     1      43.380   5.811  11.021  0.00  0.00    +0.000 C 
BRANCH   7   8
ATOM      8  N   UNL     1      43.546   5.051   9.781  0.00  0.00    +0.000 NA
ATOM      9  H   UNL     1      42.670   5.070   9.261  0.00  0.00    +0.000 HD
BRANCH   8  10
ATOM     10  C   UNL     1      43.907   3.650  10.014  0.00  0.00    +0.000 C 
BRANCH  10  15
ATOM     11  C   UNL     1      48.017   1.968   6.225  0.00  0.00    +0.000 C 
ATOM     12  C   UNL     1      46.946   2.383   7.189  0.00  0.00    +0.000 A 
ATOM     13  C   UNL     1      46.319   1.443   8.014  0.00  0.00    +0.000 A 
ATOM     14  C   UNL     1      45.328   1.842   8.917  0.00  0.00    +0.000 A 
ATOM     15  C   UNL     1      44.957   3.192   9.025  0.00  0.00    +0.000 A 
ATOM     16  C   UNL     1      45.576   4.123   8.182  0.00  0.00    +0.000 A 
ATOM     17  C   UNL     1      46.558   3.724   7.274  0.00  0.00    +0.000 A 
ENDBRANCH  10  15
ENDBRANCH   8  10
ENDBRANCH   7   8
ENDBRANCH   1   7
BRANCH   4  18
ATOM     18  C   UNL     1      48.476   7.723  13.193  0.00  0.00    +0.000 C 
BRANCH  18  19
ATOM     19  N   UNL     1      48.937   6.943  14.309  0.00  0.00    +0.000 N 
ATOM     20  C   UNL     1      48.823   7.361  15.605  0.00  0.00    +0.000 C 
ATOM     21  O   UNL     1      48.377   8.470  15.921  0.00  0.00    +0.000 OA
ATOM     22  H   UNL     1      49.012   5.947  14.146  0.00  0.00    +0.000 HD
BRANCH  20  23
ATOM     23  C   UNL     1      49.283   6.401  16.611  0.00  0.00    +0.000 A 
ATOM     24  C   UNL     1      50.416   6.624  17.380  0.00  0.00    +0.000 A 
ATOM     25  S   UNL     1      50.732   5.354  18.483  0.00  0.00    +0.000 S 
ATOM     26  C   UNL     1      49.364   4.491  17.964  0.00  0.00    +0.000 A 
ATOM     27  N   UNL     1      49.039   3.309  18.521  0.00  0.00    +0.000 NA
ATOM     28  C   UNL     1      47.942   2.768  17.975  0.00  0.00    +0.000 A 
ATOM     29  N   UNL     1      47.191   3.255  16.982  0.00  0.00    +0.000 NA
ATOM     30  C   UNL     1      47.568   4.424  16.479  0.00  0.00    +0.000 A 
ATOM     31  C   UNL     1      48.677   5.128  16.945  0.00  0.00    +0.000 A 
BRANCH  30  32
ATOM     32  O   UNL     1      46.792   4.852  15.445  0.00  0.00    +0.000 OA
ATOM     33  H   UNL     1      47.160   4.353  14.690  0.00  0.00    +0.000 HD
ENDBRANCH  30  32
ENDBRANCH  20  23
ENDBRANCH  18  19
ENDBRANCH   4  18
TORSDOF 8
ENDMDL
MODEL 2
REMARK VINA RESULT:    -8.244      2.117      2.778
REMARK INTER + INTRA:         -12.873
REMARK INTER:                 -11.721
REMARK INTRA:                  -1.152
REMARK UNBOUND:                -1.014
REMARK  Name = 
REMARK  9 active torsions:
REMARK  status: ('A' for Active; 'I' for Inactive)
REMARK    1  A    between atoms: C_1  and  C_2
REMARK    2  A    between atoms: C_5  and  C_6
REMARK    3  A    between atoms: C_6  and  N_7
REMARK    4  A    between atoms: N_7  and  C_8
REMARK    5  A    between atoms: C_8  and  C_9
REMARK    6  A    between atoms: C_12  and  C_13
REMARK    7  A    between atoms: C_13  and  N_14
REMARK    8  A    between atoms: C_15  and  C_17
REMARK    9  A    between atoms: C_24  and  O_25
REMARK                            x       y       z     vdW  Elec       q    Type
REMARK                         _______ _______ _______ _____ _____    ______ ____
ROOT
ATOM      1  C   UNL     1      44.621   5.723  11.872  0.00  0.00    +0.000 A 
ATOM      2  C   UNL     1      44.975   4.965  12.997  0.00  0.00    +0.000 A 
ATOM      3  C   UNL     1      46.153   5.235  13.701  0.00  0.00    +0.000 A 
ATOM      4  C   UNL     1      46.996   6.290  13.310  0.00  0.00    +0.000 A 
ATOM      5  C   UNL     1      46.630   7.053  12.192  0.00  0.00    +0.000 A 
ATOM      6  C   UNL     1      45.456   6.776  11.482  0.00  0.00    +0.000 A 
ENDROOT
BRANCH   1   7
ATOM      7  C   UNL     1      43.347   5.427  11.112  0.00  0.00    +0.000 C 
BRANCH   7   8
ATOM      8  N   UNL     1      43.581   4.759   9.830  0.00  0.00    +0.000 NA
ATOM      9  H   UNL     1      42.707   4.732   9.307  0.00  0.00    +0.000 HD
BRANCH   8  10
ATOM     10  C   UNL     1      44.065   3.385   9.982  0.00  0.00    +0.000 C 
BRANCH  10  15
ATOM     11  C   UNL     1      47.941   2.001   5.843  0.00  0.00    +0.000 C 
ATOM     12  C   UNL     1      46.960   2.375   6.914  0.00  0.00    +0.000 A 
ATOM     13  C   UNL     1      46.506   3.691   7.044  0.00  0.00    +0.000 A 
ATOM     14  C   UNL     1      45.582   4.027   8.040  0.00  0.00    +0.000 A 
ATOM     15  C   UNL     1      45.083   3.050   8.915  0.00  0.00    +0.000 A 
ATOM     16  C   UNL     1      45.559   1.738   8.791  0.00  0.00    +0.000 A 
ATOM     17  C   UNL     1      46.487   1.404   7.803  0.00  0.00    +0.000 A 
ENDBRANCH  10  15
ENDBRANCH   8  10
ENDBRANCH   7   8
ENDBRANCH   1   7
BRANCH   4  18
ATOM     18  C   UNL     1      48.257   6.628  14.077  0.00  0.00    +0.000 C 
BRANCH  18  19
ATOM     19  N   UNL     1      48.151   6.345  15.482  0.00  0.00    +0.000 N 
ATOM     20  C   UNL     1      49.238   6.233  16.302  0.00  0.00    +0.000 C 
ATOM     21  O   UNL     1      50.402   6.296  15.892  0.00  0.00    +0.000 OA
ATOM     22  H   UNL     1      47.267   6.588  15.911  0.00  0.00    +0.000 HD
BRANCH  20  23
ATOM     23  C   UNL     1      48.930   6.014  17.717  0.00  0.00    +0.000 A 
ATOM     24  C   UNL     1      49.217   4.818  18.359  0.00  0.00    +0.000 A 
ATOM     25  S   UNL     1      48.764   4.822  20.009  0.00  0.00    +0.000 S 
ATOM     26  C   UNL     1      48.187   6.417  19.902  0.00  0.00    +0.000 A 
ATOM     27  N   UNL     1      47.674   7.042  20.979  0.00  0.00    +0.000 NA
ATOM     28  C   UNL     1      47.256   8.283  20.701  0.00  0.00    +0.000 A 
ATOM     29  N   UNL     1      47.286   8.919  19.525  0.00  0.00    +0.000 NA
ATOM     30  C   UNL     1      47.804   8.246  18.507  0.00  0.00    +0.000 A 
ATOM     31  C   UNL     1      48.301   6.949  18.628  0.00  0.00    +0.000 A 
BRANCH  30  32
ATOM     32  O   UNL     1      47.772   8.925  17.327  0.00  0.00    +0.000 OA
ATOM     33  H   UNL     1      48.587   9.464  17.377  0.00  0.00    +0.000 HD
ENDBRANCH  30  32
ENDBRANCH  20  23
ENDBRANCH  18  19
ENDBRANCH   4  18
TORSDOF 8
ENDMDL
MODEL 3
REMARK VINA RESULT:    -8.243      2.040      2.526
REMARK INTER + INTRA:         -12.871
REMARK INTER:                 -11.702
REMARK INTRA:                  -1.170
REMARK UNBOUND:                -1.014
REMARK  Name = 
REMARK  9 active torsions:
REMARK  status: ('A' for Active; 'I' for Inactive)
REMARK    1  A    between atoms: C_1  and  C_2
REMARK    2  A    between atoms: C_5  and  C_6
REMARK    3  A    between atoms: C_6  and  N_7
REMARK    4  A    between atoms: N_7  and  C_8
REMARK    5  A    between atoms: C_8  and  C_9
REMARK    6  A    between atoms: C_12  and  C_13
REMARK    7  A    between atoms: C_13  and  N_14
REMARK    8  A    between atoms: C_15  and  C_17
REMARK    9  A    between atoms: C_24  and  O_25
REMARK                            x       y       z     vdW  Elec       q    Type
REMARK                         _______ _______ _______ _____ _____    ______ ____
ROOT
ATOM      1  C   UNL     1      44.674   5.659  11.839  0.00  0.00    +0.000 A 
ATOM      2  C   UNL     1      44.910   5.005  13.057  0.00  0.00    +0.000 A 
ATOM      3  C   UNL     1      46.097   5.217  13.765  0.00  0.00    +0.000 A 
ATOM      4  C   UNL     1      47.070   6.110  13.283  0.00  0.00    +0.000 A 
ATOM      5  C   UNL     1      46.823   6.770  12.072  0.00  0.00    +0.000 A 
ATOM      6  C   UNL     1      45.639   6.550  11.358  0.00  0.00    +0.000 A 
ENDROOT
BRANCH   1   7
ATOM      7  C   UNL     1      43.390   5.426  11.074  0.00  0.00    +0.000 C 
BRANCH   7   8
ATOM      8  N   UNL     1      43.594   4.740   9.798  0.00  0.00    +0.000 NA
ATOM      9  H   UNL     1      42.708   4.704   9.296  0.00  0.00    +0.000 HD
BRANCH   8  10
ATOM     10  C   UNL     1      44.082   3.368   9.959  0.00  0.00    +0.000 C 
BRANCH  10  15
ATOM     11  C   UNL     1      47.951   1.964   5.820  0.00  0.00    +0.000 C 
ATOM     12  C   UNL     1      46.972   2.344   6.891  0.00  0.00    +0.000 A 
ATOM     13  C   UNL     1      46.524   3.662   7.020  0.00  0.00    +0.000 A 
ATOM     14  C   UNL     1      45.602   4.003   8.016  0.00  0.00    +0.000 A 
ATOM     15  C   UNL     1      45.099   3.028   8.892  0.00  0.00    +0.000 A 
ATOM     16  C   UNL     1      45.569   1.714   8.769  0.00  0.00    +0.000 A 
ATOM     17  C   UNL     1      46.494   1.376   7.780  0.00  0.00    +0.000 A 
ENDBRANCH  10  15
ENDBRANCH   8  10
ENDBRANCH   7   8
ENDBRANCH   1   7
BRANCH   4  18
ATOM     18  C   UNL     1      48.347   6.386  14.050  0.00  0.00    +0.000 C 
BRANCH  18  19
ATOM     19  N   UNL     1      48.111   6.729  15.426  0.00  0.00    +0.000 N 
ATOM     20  C   UNL     1      48.980   6.408  16.431  0.00  0.00    +0.000 C 
ATOM     21  O   UNL     1      50.003   5.739  16.251  0.00  0.00    +0.000 OA
ATOM     22  H   UNL     1      47.488   7.511  15.581  0.00  0.00    +0.000 HD
BRANCH  20  23
ATOM     23  C   UNL     1      48.607   6.904  17.757  0.00  0.00    +0.000 A 
ATOM     24  C   UNL     1      48.255   8.228  17.978  0.00  0.00    +0.000 A 
ATOM     25  S   UNL     1      47.857   8.547  19.611  0.00  0.00    +0.000 S 
ATOM     26  C   UNL     1      48.136   6.930  20.051  0.00  0.00    +0.000 A 
ATOM     27  N   UNL     1      47.957   6.517  21.320  0.00  0.00    +0.000 NA
ATOM     28  C   UNL     1      48.239   5.218  21.482  0.00  0.00    +0.000 A 
ATOM     29  N   UNL     1      48.667   4.347  20.562  0.00  0.00    +0.000 NA
ATOM     30  C   UNL     1      48.822   4.821  19.332  0.00  0.00    +0.000 A 
ATOM     31  C   UNL     1      48.555   6.146  18.990  0.00  0.00    +0.000 A 
BRANCH  30  32
ATOM     32  O   UNL     1      49.297   3.902  18.447  0.00  0.00    +0.000 OA
ATOM     33  H   UNL     1      48.475   3.547  18.056  0.00  0.00    +0.000 HD
ENDBRANCH  30  32
ENDBRANCH  20  23
ENDBRANCH  18  19
ENDBRANCH   4  18
TORSDOF 8
ENDMDL
MODEL 4
REMARK VINA RESULT:    -7.799      1.439      2.110
REMARK INTER + INTRA:         -12.232
REMARK INTER:                 -10.979
REMARK INTRA:                  -1.253
REMARK UNBOUND:                -1.014
REMARK  Name = 
REMARK  9 active torsions:
REMARK  status: ('A' for Active; 'I' for Inactive)
REMARK    1  A    between atoms: C_1  and  C_2
REMARK    2  A    between atoms: C_5  and  C_6
REMARK    3  A    between atoms: C_6  and  N_7
REMARK    4  A    between atoms: N_7  and  C_8
REMARK    5  A    between atoms: C_8  and  C_9
REMARK    6  A    between atoms: C_12  and  C_13
REMARK    7  A    between atoms: C_13  and  N_14
REMARK    8  A    between atoms: C_15  and  C_17
REMARK    9  A    between atoms: C_24  and  O_25
REMARK                            x       y       z     vdW  Elec       q    Type
REMARK                         _______ _______ _______ _____ _____    ______ ____
ROOT
ATOM      1  C   UNL     1      44.581   5.003  12.665  0.00  0.00    +0.000 A 
ATOM      2  C   UNL     1      45.832   4.491  13.036  0.00  0.00    +0.000 A 
ATOM      3  C   UNL     1      46.931   5.339  13.205  0.00  0.00    +0.000 A 
ATOM      4  C   UNL     1      46.799   6.727  13.030  0.00  0.00    +0.000 A 
ATOM      5  C   UNL     1      45.542   7.235  12.671  0.00  0.00    +0.000 A 
ATOM      6  C   UNL     1      44.445   6.385  12.492  0.00  0.00    +0.000 A 
ENDROOT
BRANCH   1   7
ATOM      7  C   UNL     1      43.394   4.083  12.481  0.00  0.00    +0.000 C 
BRANCH   7   8
ATOM      8  N   UNL     1      43.449   3.309  11.240  0.00  0.00    +0.000 NA
ATOM      9  H   UNL     1      44.204   2.628  11.307  0.00  0.00    +0.000 HD
BRANCH   8  10
ATOM     10  C   UNL     1      43.690   4.141  10.059  0.00  0.00    +0.000 C 
BRANCH  10  15
ATOM     11  C   UNL     1      47.699   1.674   6.607  0.00  0.00    +0.000 C 
ATOM     12  C   UNL     1      46.686   2.325   7.502  0.00  0.00    +0.000 A 
ATOM     13  C   UNL     1      46.452   3.702   7.438  0.00  0.00    +0.000 A 
ATOM     14  C   UNL     1      45.497   4.298   8.270  0.00  0.00    +0.000 A 
ATOM     15  C   UNL     1      44.746   3.524   9.169  0.00  0.00    +0.000 A 
ATOM     16  C   UNL     1      45.002   2.148   9.241  0.00  0.00    +0.000 A 
ATOM     17  C   UNL     1      45.960   1.556   8.417  0.00  0.00    +0.000 A 
ENDBRANCH  10  15
ENDBRANCH   8  10
ENDBRANCH   7   8
ENDBRANCH   1   7
BRANCH   4  18
ATOM     18  C   UNL     1      47.963   7.671  13.243  0.00  0.00    +0.000 C 
BRANCH  18  19
ATOM     19  N   UNL     1      48.994   7.110  14.074  0.00  0.00    +0.000 N 
ATOM     20  C   UNL     1      49.766   7.865  14.911  0.00  0.00    +0.000 C 
ATOM     21  O   UNL     1      49.690   9.097  14.974  0.00  0.00    +0.000 OA
ATOM     22  H   UNL     1      48.893   6.128  14.292  0.00  0.00    +0.000 HD
BRANCH  20  23
ATOM     23  C   UNL     1      50.715   7.109  15.732  0.00  0.00    +0.000 A 
ATOM     24  C   UNL     1      52.087   7.291  15.631  0.00  0.00    +0.000 A 
ATOM     25  S   UNL     1      52.972   6.292  16.702  0.00  0.00    +0.000 S 
ATOM     26  C   UNL     1      51.547   5.607  17.325  0.00  0.00    +0.000 A 
ATOM     27  N   UNL     1      51.594   4.681  18.301  0.00  0.00    +0.000 NA
ATOM     28  C   UNL     1      50.378   4.244  18.653  0.00  0.00    +0.000 A 
ATOM     29  N   UNL     1      49.194   4.609  18.149  0.00  0.00    +0.000 NA
ATOM     30  C   UNL     1      49.221   5.525  17.190  0.00  0.00    +0.000 A 
ATOM     31  C   UNL     1      50.402   6.096  16.719  0.00  0.00    +0.000 A 
BRANCH  30  32
ATOM     32  O   UNL     1      47.992   5.829  16.687  0.00  0.00    +0.000 OA
ATOM     33  H   UNL     1      47.767   5.019  16.189  0.00  0.00    +0.000 HD
ENDBRANCH  30  32
ENDBRANCH  20  23
ENDBRANCH  18  19
ENDBRANCH   4  18
TORSDOF 8
ENDMDL
MODEL 5
REMARK VINA RESULT:    -7.701      3.419      6.327
REMARK INTER + INTRA:         -12.091
REMARK INTER:                 -11.258
REMARK INTRA:                  -0.834
REMARK UNBOUND:                -1.014
REMARK  Name = 
REMARK  9 active torsions:
REMARK  status: ('A' for Active; 'I' for Inactive)
REMARK    1  A    between atoms: C_1  and  C_2
REMARK    2  A    between atoms: C_5  and  C_6
REMARK    3  A    between atoms: C_6  and  N_7
REMARK    4  A    between atoms: N_7  and  C_8
REMARK    5  A    between atoms: C_8  and  C_9
REMARK    6  A    between atoms: C_12  and  C_13
REMARK    7  A    between atoms: C_13  and  N_14
REMARK    8  A    between atoms: C_15  and  C_17
REMARK    9  A    between atoms: C_24  and  O_25
REMARK                            x       y       z     vdW  Elec       q    Type
REMARK                         _______ _______ _______ _____ _____    ______ ____
ROOT
ATOM      1  C   UNL     1      47.013   2.090   7.284  0.00  0.00    +0.000 A 
ATOM      2  C   UNL     1      46.137   1.395   8.130  0.00  0.00    +0.000 A 
ATOM      3  C   UNL     1      45.167   2.077   8.872  0.00  0.00    +0.000 A 
ATOM      4  C   UNL     1      45.033   3.472   8.766  0.00  0.00    +0.000 A 
ATOM      5  C   UNL     1      45.903   4.160   7.909  0.00  0.00    +0.000 A 
ATOM      6  C   UNL     1      46.881   3.478   7.175  0.00  0.00    +0.000 A 
ENDROOT
BRANCH   1   7
ATOM      7  C   UNL     1      48.063   1.350   6.485  0.00  0.00    +0.000 C 
BRANCH   7   8
ATOM      8  N   UNL     1      48.090   1.733   5.072  0.00  0.00    +0.000 NA
ATOM      9  H   UNL     1      48.280   2.732   5.004  0.00  0.00    +0.000 HD
BRANCH   8  10
ATOM     10  C   UNL     1      46.825   1.462   4.383  0.00  0.00    +0.000 C 
BRANCH  10  15
ATOM     11  C   UNL     1      46.714  -4.026   2.398  0.00  0.00    +0.000 C 
ATOM     12  C   UNL     1      46.721  -2.621   2.921  0.00  0.00    +0.000 A 
ATOM     13  C   UNL     1      46.655  -2.365   4.295  0.00  0.00    +0.000 A 
ATOM     14  C   UNL     1      46.674  -1.051   4.773  0.00  0.00    +0.000 A 
ATOM     15  C   UNL     1      46.776   0.034   3.888  0.00  0.00    +0.000 A 
ATOM     16  C   UNL     1      46.822  -0.230   2.512  0.00  0.00    +0.000 A 
ATOM     17  C   UNL     1      46.795  -1.541   2.035  0.00  0.00    +0.000 A 
ENDBRANCH  10  15
ENDBRANCH   8  10
ENDBRANCH   7   8
ENDBRANCH   1   7
BRANCH   4  18
ATOM     18  C   UNL     1      43.966   4.229   9.529  0.00  0.00    +0.000 C 
BRANCH  18  19
ATOM     19  N   UNL     1      44.487   5.363  10.244  0.00  0.00    +0.000 N 
ATOM     20  C   UNL     1      45.010   5.272  11.503  0.00  0.00    +0.000 C 
ATOM     21  O   UNL     1      45.016   4.223  12.158  0.00  0.00    +0.000 OA
ATOM     22  H   UNL     1      44.786   6.141   9.670  0.00  0.00    +0.000 HD
BRANCH  20  23
ATOM     23  C   UNL     1      45.557   6.519  12.041  0.00  0.00    +0.000 A 
ATOM     24  C   UNL     1      45.057   7.761  11.679  0.00  0.00    +0.000 A 
ATOM     25  S   UNL     1      45.866   9.056  12.451  0.00  0.00    +0.000 S 
ATOM     26  C   UNL     1      46.889   7.988  13.287  0.00  0.00    +0.000 A 
ATOM     27  N   UNL     1      47.819   8.449  14.145  0.00  0.00    +0.000 NA
ATOM     28  C   UNL     1      48.541   7.466  14.697  0.00  0.00    +0.000 A 
ATOM     29  N   UNL     1      48.442   6.150  14.480  0.00  0.00    +0.000 NA
ATOM     30  C   UNL     1      47.505   5.764  13.624  0.00  0.00    +0.000 A 
ATOM     31  C   UNL     1      46.656   6.660  12.975  0.00  0.00    +0.000 A 
BRANCH  30  32
ATOM     32  O   UNL     1      47.475   4.420  13.412  0.00  0.00    +0.000 OA
ATOM     33  H   UNL     1      48.266   4.281  12.854  0.00  0.00    +0.000 HD
ENDBRANCH  30  32
ENDBRANCH  20  23
ENDBRANCH  18  19
ENDBRANCH   4  18
TORSDOF 8
ENDMDL
MODEL 6
REMARK VINA RESULT:    -7.166      4.493      6.509
REMARK INTER + INTRA:         -11.321
REMARK INTER:                 -10.018
REMARK INTRA:                  -1.303
REMARK UNBOUND:                -1.014
REMARK  Name = 
REMARK  9 active torsions:
REMARK  status: ('A' for Active; 'I' for Inactive)
REMARK    1  A    between atoms: C_1  and  C_2
REMARK    2  A    between atoms: C_5  and  C_6
REMARK    3  A    between atoms: C_6  and  N_7
REMARK    4  A    between atoms: N_7  and  C_8
REMARK    5  A    between atoms: C_8  and  C_9
REMARK    6  A    between atoms: C_12  and  C_13
REMARK    7  A    between atoms: C_13  and  N_14
REMARK    8  A    between atoms: C_15  and  C_17
REMARK    9  A    between atoms: C_24  and  O_25
REMARK                            x       y       z     vdW  Elec       q    Type
REMARK                         _______ _______ _______ _____ _____    ______ ____
ROOT
ATOM      1  C   UNL     1      45.743   5.417  12.542  0.00  0.00    +0.000 A 
ATOM      2  C   UNL     1      46.216   6.254  11.522  0.00  0.00    +0.000 A 
ATOM      3  C   UNL     1      47.431   6.933  11.658  0.00  0.00    +0.000 A 
ATOM      4  C   UNL     1      48.217   6.770  12.812  0.00  0.00    +0.000 A 
ATOM      5  C   UNL     1      47.746   5.921  13.823  0.00  0.00    +0.000 A 
ATOM      6  C   UNL     1      46.525   5.250  13.690  0.00  0.00    +0.000 A 
ENDROOT
BRANCH   1   7
ATOM      7  C   UNL     1      44.428   4.685  12.392  0.00  0.00    +0.000 C 
BRANCH   7   8
ATOM      8  N   UNL     1      44.549   3.420  11.664  0.00  0.00    +0.000 NA
ATOM      9  H   UNL     1      45.537   3.199  11.548  0.00  0.00    +0.000 HD
BRANCH   8  10
ATOM     10  C   UNL     1      43.932   3.464  10.337  0.00  0.00    +0.000 C 
BRANCH  10  15
ATOM     11  C   UNL     1      47.909   2.359   6.210  0.00  0.00    +0.000 C 
ATOM     12  C   UNL     1      46.872   2.626   7.259  0.00  0.00    +0.000 A 
ATOM     13  C   UNL     1      46.315   1.580   8.001  0.00  0.00    +0.000 A 
ATOM     14  C   UNL     1      45.356   1.841   8.986  0.00  0.00    +0.000 A 
ATOM     15  C   UNL     1      44.948   3.156   9.259  0.00  0.00    +0.000 A 
ATOM     16  C   UNL     1      45.496   4.196   8.497  0.00  0.00    +0.000 A 
ATOM     17  C   UNL     1      46.446   3.935   7.509  0.00  0.00    +0.000 A 
ENDBRANCH  10  15
ENDBRANCH   8  10
ENDBRANCH   7   8
ENDBRANCH   1   7
BRANCH   4  18
ATOM     18  C   UNL     1      49.555   7.464  12.969  0.00  0.00    +0.000 C 
BRANCH  18  19
ATOM     19  N   UNL     1      50.349   7.426  11.771  0.00  0.00    +0.000 N 
ATOM     20  C   UNL     1      51.502   8.144  11.621  0.00  0.00    +0.000 C 
ATOM     21  O   UNL     1      51.921   8.935  12.473  0.00  0.00    +0.000 OA
ATOM     22  H   UNL     1      50.237   6.600  11.198  0.00  0.00    +0.000 HD
BRANCH  20  23
ATOM     23  C   UNL     1      52.213   7.922  10.360  0.00  0.00    +0.000 A 
ATOM     24  C   UNL     1      52.641   6.663   9.965  0.00  0.00    +0.000 A 
ATOM     25  S   UNL     1      53.439   6.675   8.452  0.00  0.00    +0.000 S 
ATOM     26  C   UNL     1      53.222   8.353   8.291  0.00  0.00    +0.000 A 
ATOM     27  N   UNL     1      53.661   9.006   7.198  0.00  0.00    +0.000 NA
ATOM     28  C   UNL     1      53.418  10.321   7.254  0.00  0.00    +0.000 A 
ATOM     29  N   UNL     1      52.826  11.008   8.237  0.00  0.00    +0.000 NA
ATOM     30  C   UNL     1      52.418  10.303   9.283  0.00  0.00    +0.000 A 
ATOM     31  C   UNL     1      52.579   8.921   9.377  0.00  0.00    +0.000 A 
BRANCH  30  32
ATOM     32  O   UNL     1      51.859  11.058  10.270  0.00  0.00    +0.000 OA
ATOM     33  H   UNL     1      51.340  10.396  10.768  0.00  0.00    +0.000 HD
ENDBRANCH  30  32
ENDBRANCH  20  23
ENDBRANCH  18  19
ENDBRANCH   4  18
TORSDOF 8
ENDMDL
MODEL 7
REMARK VINA RESULT:    -7.107      2.378      3.244
REMARK INTER + INTRA:         -11.236
REMARK INTER:                 -10.141
REMARK INTRA:                  -1.096
REMARK UNBOUND:                -1.014
REMARK  Name = 
REMARK  9 active torsions:
REMARK  status: ('A' for Active; 'I' for Inactive)
REMARK    1  A    between atoms: C_1  and  C_2
REMARK    2  A    between atoms: C_5  and  C_6
REMARK    3  A    between atoms: C_6  and  N_7
REMARK    4  A    between atoms: N_7  and  C_8
REMARK    5  A    between atoms: C_8  and  C_9
REMARK    6  A    between atoms: C_12  and  C_13
REMARK    7  A    between atoms: C_13  and  N_14
REMARK    8  A    between atoms: C_15  and  C_17
REMARK    9  A    between atoms: C_24  and  O_25
REMARK                            x       y       z     vdW  Elec       q    Type
REMARK                         _______ _______ _______ _____ _____    ______ ____
ROOT
ATOM      1  C   UNL     1      45.457   6.686  12.255  0.00  0.00    +0.000 A 
ATOM      2  C   UNL     1      46.446   5.721  12.493  0.00  0.00    +0.000 A 
ATOM      3  C   UNL     1      47.576   6.028  13.259  0.00  0.00    +0.000 A 
ATOM      4  C   UNL     1      47.732   7.304  13.827  0.00  0.00    +0.000 A 
ATOM      5  C   UNL     1      46.734   8.261  13.595  0.00  0.00    +0.000 A 
ATOM      6  C   UNL     1      45.608   7.957  12.821  0.00  0.00    +0.000 A 
ENDROOT
BRANCH   1   7
ATOM      7  C   UNL     1      44.237   6.352  11.425  0.00  0.00    +0.000 C 
BRANCH   7   8
ATOM      8  N   UNL     1      44.565   5.744  10.134  0.00  0.00    +0.000 NA
ATOM      9  H   UNL     1      44.143   6.298   9.391  0.00  0.00    +0.000 HD
BRANCH   8  10
ATOM     10  C   UNL     1      44.077   4.369  10.011  0.00  0.00    +0.000 C 
BRANCH  10  15
ATOM     11  C   UNL     1      47.606   1.314   6.507  0.00  0.00    +0.000 C 
ATOM     12  C   UNL     1      46.680   2.083   7.400  0.00  0.00    +0.000 A 
ATOM     13  C   UNL     1      45.905   1.431   8.364  0.00  0.00    +0.000 A 
ATOM     14  C   UNL     1      45.052   2.160   9.200  0.00  0.00    +0.000 A 
ATOM     15  C   UNL     1      44.971   3.558   9.100  0.00  0.00    +0.000 A 
ATOM     16  C   UNL     1      45.736   4.201   8.119  0.00  0.00    +0.000 A 
ATOM     17  C   UNL     1      46.580   3.473   7.279  0.00  0.00    +0.000 A 
ENDBRANCH  10  15
ENDBRANCH   8  10
ENDBRANCH   7   8
ENDBRANCH   1   7
BRANCH   4  18
ATOM     18  C   UNL     1      48.927   7.650  14.691  0.00  0.00    +0.000 C 
BRANCH  18  19
ATOM     19  N   UNL     1      48.645   7.562  16.098  0.00  0.00    +0.000 N 
ATOM     20  C   UNL     1      48.860   6.427  16.829  0.00  0.00    +0.000 C 
ATOM     21  O   UNL     1      49.248   5.366  16.329  0.00  0.00    +0.000 OA
ATOM     22  H   UNL     1      48.631   8.442  16.597  0.00  0.00    +0.000 HD
BRANCH  20  23
ATOM     23  C   UNL     1      48.583   6.549  18.261  0.00  0.00    +0.000 A 
ATOM     24  C   UNL     1      47.575   5.825  18.882  0.00  0.00    +0.000 A 
ATOM     25  S   UNL     1      47.462   6.145  20.559  0.00  0.00    +0.000 S 
ATOM     26  C   UNL     1      48.756   7.244  20.491  0.00  0.00    +0.000 A 
ATOM     27  N   UNL     1      49.191   7.870  21.601  0.00  0.00    +0.000 NA
ATOM     28  C   UNL     1      50.205   8.709  21.353  0.00  0.00    +0.000 A 
ATOM     29  N   UNL     1      50.783   8.977  20.177  0.00  0.00    +0.000 NA
ATOM     30  C   UNL     1      50.306   8.325  19.125  0.00  0.00    +0.000 A 
ATOM     31  C   UNL     1      49.264   7.403  19.213  0.00  0.00    +0.000 A 
BRANCH  30  32
ATOM     32  O   UNL     1      50.904   8.666  17.951  0.00  0.00    +0.000 OA
ATOM     33  H   UNL     1      51.717   9.116  18.256  0.00  0.00    +0.000 HD
ENDBRANCH  30  32
ENDBRANCH  20  23
ENDBRANCH  18  19
ENDBRANCH   4  18
TORSDOF 8
ENDMDL
MODEL 8
REMARK VINA RESULT:    -7.064      3.220      8.187
REMARK INTER + INTRA:         -11.175
REMARK INTER:                  -9.515
REMARK INTRA:                  -1.660
REMARK UNBOUND:                -1.014
REMARK  Name = 
REMARK  9 active torsions:
REMARK  status: ('A' for Active; 'I' for Inactive)
REMARK    1  A    between atoms: C_1  and  C_2
REMARK    2  A    between atoms: C_5  and  C_6
REMARK    3  A    between atoms: C_6  and  N_7
REMARK    4  A    between atoms: N_7  and  C_8
REMARK    5  A    between atoms: C_8  and  C_9
REMARK    6  A    between atoms: C_12  and  C_13
REMARK    7  A    between atoms: C_13  and  N_14
REMARK    8  A    between atoms: C_15  and  C_17
REMARK    9  A    between atoms: C_24  and  O_25
REMARK                            x       y       z     vdW  Elec       q    Type
REMARK                         _______ _______ _______ _____ _____    ______ ____
ROOT
ATOM      1  C   UNL     1      50.398   8.215  14.683  0.00  0.00    +0.000 A 
ATOM      2  C   UNL     1      49.476   9.086  15.281  0.00  0.00    +0.000 A 
ATOM      3  C   UNL     1      48.170   9.192  14.792  0.00  0.00    +0.000 A 
ATOM      4  C   UNL     1      47.746   8.409  13.705  0.00  0.00    +0.000 A 
ATOM      5  C   UNL     1      48.668   7.530  13.119  0.00  0.00    +0.000 A 
ATOM      6  C   UNL     1      49.978   7.432  13.603  0.00  0.00    +0.000 A 
ENDROOT
BRANCH   1   7
ATOM      7  C   UNL     1      51.810   8.104  15.214  0.00  0.00    +0.000 C 
BRANCH   7   8
ATOM      8  N   UNL     1      52.117   6.784  15.768  0.00  0.00    +0.000 NA
ATOM      9  H   UNL     1      51.663   6.072  15.198  0.00  0.00    +0.000 HD
BRANCH   8  10
ATOM     10  C   UNL     1      51.656   6.625  17.150  0.00  0.00    +0.000 C 
BRANCH  10  15
ATOM     11  C   UNL     1      47.239   2.827  17.519  0.00  0.00    +0.000 C 
ATOM     12  C   UNL     1      48.364   3.811  17.402  0.00  0.00    +0.000 A 
ATOM     13  C   UNL     1      48.111   5.168  17.183  0.00  0.00    +0.000 A 
ATOM     14  C   UNL     1      49.168   6.080  17.086  0.00  0.00    +0.000 A 
ATOM     15  C   UNL     1      50.499   5.653  17.224  0.00  0.00    +0.000 A 
ATOM     16  C   UNL     1      50.744   4.289  17.424  0.00  0.00    +0.000 A 
ATOM     17  C   UNL     1      49.690   3.378  17.512  0.00  0.00    +0.000 A 
ENDBRANCH  10  15
ENDBRANCH   8  10
ENDBRANCH   7   8
ENDBRANCH   1   7
BRANCH   4  18
ATOM     18  C   UNL     1      46.327   8.477  13.181  0.00  0.00    +0.000 C 
BRANCH  18  19
ATOM     19  N   UNL     1      45.748   7.180  12.961  0.00  0.00    +0.000 N 
ATOM     20  C   UNL     1      44.931   6.900  11.902  0.00  0.00    +0.000 C 
ATOM     21  O   UNL     1      44.567   7.754  11.085  0.00  0.00    +0.000 OA
ATOM     22  H   UNL     1      46.237   6.404  13.389  0.00  0.00    +0.000 HD
BRANCH  20  23
ATOM     23  C   UNL     1      44.495   5.506  11.803  0.00  0.00    +0.000 A 
ATOM     24  C   UNL     1      43.833   4.864  12.840  0.00  0.00    +0.000 A 
ATOM     25  S   UNL     1      43.429   3.243  12.471  0.00  0.00    +0.000 S 
ATOM     26  C   UNL     1      44.118   3.368  10.923  0.00  0.00    +0.000 A 
ATOM     27  N   UNL     1      44.096   2.328  10.069  0.00  0.00    +0.000 NA
ATOM     28  C   UNL     1      44.699   2.605   8.906  0.00  0.00    +0.000 A 
ATOM     29  N   UNL     1      45.296   3.743   8.538  0.00  0.00    +0.000 NA
ATOM     30  C   UNL     1      45.282   4.727   9.428  0.00  0.00    +0.000 A 
ATOM     31  C   UNL     1      44.681   4.610  10.680  0.00  0.00    +0.000 A 
BRANCH  30  32
ATOM     32  O   UNL     1      45.938   5.848   9.017  0.00  0.00    +0.000 OA
ATOM     33  H   UNL     1      45.312   6.228   8.369  0.00  0.00    +0.000 HD
ENDBRANCH  30  32
ENDBRANCH  20  23
ENDBRANCH  18  19
ENDBRANCH   4  18
TORSDOF 8
ENDMDL
MODEL 9
REMARK VINA RESULT:    -7.015      3.436      9.029
REMARK INTER + INTRA:         -11.105
REMARK INTER:                  -9.134
REMARK INTRA:                  -1.971
REMARK UNBOUND:                -1.014
REMARK  Name = 
REMARK  9 active torsions:
REMARK  status: ('A' for Active; 'I' for Inactive)
REMARK    1  A    between atoms: C_1  and  C_2
REMARK    2  A    between atoms: C_5  and  C_6
REMARK    3  A    between atoms: C_6  and  N_7
REMARK    4  A    between atoms: N_7  and  C_8
REMARK    5  A    between atoms: C_8  and  C_9
REMARK    6  A    between atoms: C_12  and  C_13
REMARK    7  A    between atoms: C_13  and  N_14
REMARK    8  A    between atoms: C_15  and  C_17
REMARK    9  A    between atoms: C_24  and  O_25
REMARK                            x       y       z     vdW  Elec       q    Type
REMARK                         _______ _______ _______ _____ _____    ______ ____
ROOT
ATOM      1  C   UNL     1      48.440   5.776  20.390  0.00  0.00    +0.000 A 
ATOM      2  C   UNL     1      49.325   4.812  19.888  0.00  0.00    +0.000 A 
ATOM      3  C   UNL     1      49.034   4.116  18.710  0.00  0.00    +0.000 A 
ATOM      4  C   UNL     1      47.858   4.386  17.990  0.00  0.00    +0.000 A 
ATOM      5  C   UNL     1      46.982   5.360  18.490  0.00  0.00    +0.000 A 
ATOM      6  C   UNL     1      47.269   6.049  19.674  0.00  0.00    +0.000 A 
ENDROOT
BRANCH   1   7
ATOM      7  C   UNL     1      48.757   6.525  21.665  0.00  0.00    +0.000 C 
BRANCH   7   8
ATOM      8  N   UNL     1      48.727   7.980  21.503  0.00  0.00    +0.000 NA
ATOM      9  H   UNL     1      47.871   8.241  21.016  0.00  0.00    +0.000 HD
BRANCH   8  10
ATOM     10  C   UNL     1      49.863   8.492  20.733  0.00  0.00    +0.000 C 
BRANCH  10  15
ATOM     11  C   UNL     1      48.414   9.279  15.134  0.00  0.00    +0.000 C 
ATOM     12  C   UNL     1      48.787   9.052  16.568  0.00  0.00    +0.000 A 
ATOM     13  C   UNL     1      49.901   8.278  16.907  0.00  0.00    +0.000 A 
ATOM     14  C   UNL     1      50.247   8.081  18.249  0.00  0.00    +0.000 A 
ATOM     15  C   UNL     1      49.493   8.669  19.277  0.00  0.00    +0.000 A 
ATOM     16  C   UNL     1      48.367   9.426  18.930  0.00  0.00    +0.000 A 
ATOM     17  C   UNL     1      48.017   9.615  17.592  0.00  0.00    +0.000 A 
ENDBRANCH  10  15
ENDBRANCH   8  10
ENDBRANCH   7   8
ENDBRANCH   1   7
BRANCH   4  18
ATOM     18  C   UNL     1      47.537   3.674  16.693  0.00  0.00    +0.000 C 
BRANCH  18  19
ATOM     19  N   UNL     1      46.989   4.551  15.693  0.00  0.00    +0.000 N 
ATOM     20  C   UNL     1      46.892   4.206  14.375  0.00  0.00    +0.000 C 
ATOM     21  O   UNL     1      47.330   3.143  13.921  0.00  0.00    +0.000 OA
ATOM     22  H   UNL     1      46.358   5.263  16.036  0.00  0.00    +0.000 HD
BRANCH  20  23
ATOM     23  C   UNL     1      46.241   5.199  13.518  0.00  0.00    +0.000 A 
ATOM     24  C   UNL     1      46.633   6.529  13.500  0.00  0.00    +0.000 A 
ATOM     25  S   UNL     1      45.717   7.479  12.412  0.00  0.00    +0.000 S 
ATOM     26  C   UNL     1      44.788   6.137  11.938  0.00  0.00    +0.000 A 
ATOM     27  N   UNL     1      43.823   6.257  11.008  0.00  0.00    +0.000 NA
ATOM     28  C   UNL     1      43.187   5.101  10.776  0.00  0.00    +0.000 A 
ATOM     29  N   UNL     1      43.399   3.914  11.354  0.00  0.00    +0.000 NA
ATOM     30  C   UNL     1      44.365   3.867  12.262  0.00  0.00    +0.000 A 
ATOM     31  C   UNL     1      45.135   4.977  12.609  0.00  0.00    +0.000 A 
BRANCH  30  32
ATOM     32  O   UNL     1      44.510   2.646  12.847  0.00  0.00    +0.000 OA
ATOM     33  H   UNL     1      43.652   2.219  12.649  0.00  0.00    +0.000 HD
ENDBRANCH  30  32
ENDBRANCH  20  23
ENDBRANCH  18  19
ENDBRANCH   4  18
TORSDOF 8
ENDMDL
