MODEL 1
REMARK VINA RESULT:    -8.912      0.000      0.000
REMARK INTER + INTRA:         -13.722
REMARK INTER:                 -12.559
REMARK INTRA:                  -1.163
REMARK UNBOUND:                -1.163
REMARK  Name = 
REMARK  7 active torsions:
REMARK  status: ('A' for Active; 'I' for Inactive)
REMARK    1  A    between atoms: C_2  and  C_4
REMARK    2  A    between atoms: C_7  and  N_8
REMARK    3  A    between atoms: N_8  and  C_9
REMARK    4  A    between atoms: C_9  and  C_10
REMARK    5  A    between atoms: C_13  and  C_14
REMARK    6  A    between atoms: C_14  and  N_15
REMARK    7  A    between atoms: C_16  and  C_18
REMARK                            x       y       z     vdW  Elec       q    Type
REMARK                         _______ _______ _______ _____ _____    ______ ____
ROOT
ATOM      1  C   UNL     1      44.679   5.387  11.950  0.00  0.00    +0.000 A 
ATOM      2  C   UNL     1      45.288   4.507  12.855  0.00  0.00    +0.000 A 
ATOM      3  C   UNL     1      46.472   4.863  13.508  0.00  0.00    +0.000 A 
ATOM      4  C   UNL     1      47.059   6.115  13.288  0.00  0.00    +0.000 A 
ATOM      5  C   UNL     1      46.457   6.990  12.373  0.00  0.00    +0.000 A 
ATOM      6  C   UNL     1      45.272   6.635  11.720  0.00  0.00    +0.000 A 
ENDROOT
BRANCH   1   7
ATOM      7  C   UNL     1      43.433   4.971  11.206  0.00  0.00    +0.000 C 
BRANCH   7   8
ATOM      8  N   UNL     1      43.651   4.930   9.769  0.00  0.00    +0.000 N 
ATOM      9  H   UNL     1      42.804   5.028   9.213  0.00  0.00    +0.000 HD
BRANCH   8  13
ATOM     10  C   UNL     1      46.206   2.027   8.052  0.00  0.00    +0.000 A 
ATOM     11  C   UNL     1      46.377   3.374   7.732  0.00  0.00    +0.000 A 
ATOM     12  C   UNL     1      45.545   4.342   8.306  0.00  0.00    +0.000 A 
ATOM     13  C   UNL     1      44.550   4.001   9.232  0.00  0.00    +0.000 A 
ATOM     14  C   UNL     1      44.378   2.640   9.526  0.00  0.00    +0.000 A 
ATOM     15  C   UNL     1      45.192   1.658   8.939  0.00  0.00    +0.000 A 
BRANCH  10  17
ATOM     16  N   UNL     1      47.996   1.389   6.530  0.00  0.00    +0.000 N 
ATOM     17  C   UNL     1      47.053   0.975   7.432  0.00  0.00    +0.000 C 
ATOM     18  O   UNL     1      46.938  -0.207   7.729  0.00  0.00    +0.000 OA
ATOM     19  H   UNL     1      48.628   0.679   6.182  0.00  0.00    +0.000 HD
ATOM     20  H   UNL     1      48.282   2.353   6.450  0.00  0.00    +0.000 HD
ENDBRANCH  10  17
ENDBRANCH   8  13
ENDBRANCH   7   8
ENDBRANCH   1   7
BRANCH   4  21
ATOM     21  C   UNL     1      48.325   6.511  14.002  0.00  0.00    +0.000 C 
BRANCH  21  22
ATOM     22  N   UNL     1      48.097   6.730  15.408  0.00  0.00    +0.000 N 
ATOM     23  C   UNL     1      49.091   6.506  16.326  0.00  0.00    +0.000 C 
ATOM     24  O   UNL     1      50.221   6.163  15.989  0.00  0.00    +0.000 OA
ATOM     25  H   UNL     1      47.131   6.781  15.718  0.00  0.00    +0.000 HD
BRANCH  23  26
ATOM     26  C   UNL     1      48.758   6.760  17.733  0.00  0.00    +0.000 A 
ATOM     27  C   UNL     1      48.505   8.059  18.155  0.00  0.00    +0.000 A 
ATOM     28  S   UNL     1      48.084   8.173  19.804  0.00  0.00    +0.000 S 
ATOM     29  C   UNL     1      48.279   6.498  20.025  0.00  0.00    +0.000 A 
ATOM     30  N   UNL     1      48.094   5.929  21.247  0.00  0.00    +0.000 NA
ATOM     31  C   UNL     1      48.307   4.655  21.280  0.00  0.00    +0.000 A 
ATOM     32  N   UNL     1      48.678   3.897  20.201  0.00  0.00    +0.000 N 
ATOM     33  C   UNL     1      48.849   4.424  18.942  0.00  0.00    +0.000 A 
ATOM     34  O   UNL     1      49.137   3.710  17.991  0.00  0.00    +0.000 OA
ATOM     35  C   UNL     1      48.640   5.855  18.852  0.00  0.00    +0.000 A 
ATOM     36  H   UNL     1      48.818   2.903  20.291  0.00  0.00    +0.000 HD
ENDBRANCH  23  26
ENDBRANCH  21  22
ENDBRANCH   4  21
TORSDOF 7
ENDMDL
MODEL 2
REMARK VINA RESULT:    -8.497      1.909      2.236
REMARK INTER + INTRA:         -13.137
REMARK INTER:                 -12.176
REMARK INTRA:                  -0.961
REMARK UNBOUND:                -1.163
REMARK  Name = 
REMARK  7 active torsions:
REMARK  status: ('A' for Active; 'I' for Inactive)
REMARK    1  A    between atoms: C_2  and  C_4
REMARK    2  A    between atoms: C_7  and  N_8
REMARK    3  A    between atoms: N_8  and  C_9
REMARK    4  A    between atoms: C_9  and  C_10
REMARK    5  A    between atoms: C_13  and  C_14
REMARK    6  A    between atoms: C_14  and  N_15
REMARK    7  A    between atoms: C_16  and  C_18
REMARK                            x       y       z     vdW  Elec       q    Type
REMARK                         _______ _______ _______ _____ _____    ______ ____
ROOT
ATOM      1  C   UNL     1      44.515   5.553  11.033  0.00  0.00    +0.000 A 
ATOM      2  C   UNL     1      45.818   5.826  10.595  0.00  0.00    +0.000 A 
ATOM      3  C   UNL     1      46.661   6.657  11.339  0.00  0.00    +0.000 A 
ATOM      4  C   UNL     1      46.227   7.214  12.548  0.00  0.00    +0.000 A 
ATOM      5  C   UNL     1      44.919   6.953  12.980  0.00  0.00    +0.000 A 
ATOM      6  C   UNL     1      44.076   6.120  12.237  0.00  0.00    +0.000 A 
ENDROOT
BRANCH   1   7
ATOM      7  C   UNL     1      43.593   4.702  10.194  0.00  0.00    +0.000 C 
BRANCH   7   8
ATOM      8  N   UNL     1      44.068   3.331  10.093  0.00  0.00    +0.000 N 
ATOM      9  H   UNL     1      44.305   2.902  10.986  0.00  0.00    +0.000 HD
BRANCH   8  13
ATOM     10  C   UNL     1      46.614   2.123   6.936  0.00  0.00    +0.000 A 
ATOM     11  C   UNL     1      46.108   3.423   6.958  0.00  0.00    +0.000 A 
ATOM     12  C   UNL     1      45.276   3.835   8.005  0.00  0.00    +0.000 A 
ATOM     13  C   UNL     1      44.955   2.980   9.069  0.00  0.00    +0.000 A 
ATOM     14  C   UNL     1      45.456   1.671   9.021  0.00  0.00    +0.000 A 
ATOM     15  C   UNL     1      46.273   1.240   7.963  0.00  0.00    +0.000 A 
BRANCH  10  17
ATOM     16  N   UNL     1      48.468   2.490   5.402  0.00  0.00    +0.000 N 
ATOM     17  C   UNL     1      47.471   1.649   5.820  0.00  0.00    +0.000 C 
ATOM     18  O   UNL     1      47.319   0.548   5.309  0.00  0.00    +0.000 OA
ATOM     19  H   UNL     1      49.104   2.123   4.705  0.00  0.00    +0.000 HD
ATOM     20  H   UNL     1      48.776   3.279   5.951  0.00  0.00    +0.000 HD
ENDBRANCH  10  17
ENDBRANCH   8  13
ENDBRANCH   7   8
ENDBRANCH   1   7
BRANCH   4  21
ATOM     21  C   UNL     1      47.138   8.097  13.362  0.00  0.00    +0.000 C 
BRANCH  21  22
ATOM     22  N   UNL     1      47.539   7.458  14.590  0.00  0.00    +0.000 N 
ATOM     23  C   UNL     1      48.761   6.844  14.697  0.00  0.00    +0.000 C 
ATOM     24  O   UNL     1      49.577   6.856  13.779  0.00  0.00    +0.000 OA
ATOM     25  H   UNL     1      46.807   7.237  15.258  0.00  0.00    +0.000 HD
BRANCH  23  26
ATOM     26  C   UNL     1      49.075   6.224  15.990  0.00  0.00    +0.000 A 
ATOM     27  C   UNL     1      50.115   6.730  16.760  0.00  0.00    +0.000 A 
ATOM     28  S   UNL     1      50.314   5.929  18.252  0.00  0.00    +0.000 S 
ATOM     29  C   UNL     1      49.054   4.843  17.898  0.00  0.00    +0.000 A 
ATOM     30  N   UNL     1      48.720   3.854  18.771  0.00  0.00    +0.000 NA
ATOM     31  C   UNL     1      47.769   3.081  18.363  0.00  0.00    +0.000 A 
ATOM     32  N   UNL     1      47.115   3.212  17.166  0.00  0.00    +0.000 N 
ATOM     33  C   UNL     1      47.401   4.213  16.265  0.00  0.00    +0.000 A 
ATOM     34  O   UNL     1      46.766   4.328  15.226  0.00  0.00    +0.000 OA
ATOM     35  C   UNL     1      48.474   5.099  16.667  0.00  0.00    +0.000 A 
ATOM     36  H   UNL     1      46.372   2.581  16.911  0.00  0.00    +0.000 HD
ENDBRANCH  23  26
ENDBRANCH  21  22
ENDBRANCH   4  21
TORSDOF 7
ENDMDL
MODEL 3
REMARK VINA RESULT:    -8.465      1.443      2.174
REMARK INTER + INTRA:         -13.092
REMARK INTER:                 -11.876
REMARK INTRA:                  -1.217
REMARK UNBOUND:                -1.163
REMARK  Name = 
REMARK  7 active torsions:
REMARK  status: ('A' for Active; 'I' for Inactive)
REMARK    1  A    between atoms: C_2  and  C_4
REMARK    2  A    between atoms: C_7  and  N_8
REMARK    3  A    between atoms: N_8  and  C_9
REMARK    4  A    between atoms: C_9  and  C_10
REMARK    5  A    between atoms: C_13  and  C_14
REMARK    6  A    between atoms: C_14  and  N_15
REMARK    7  A    between atoms: C_16  and  C_18
REMARK                            x       y       z     vdW  Elec       q    Type
REMARK                         _______ _______ _______ _____ _____    ______ ____
ROOT
ATOM      1  C   UNL     1      44.933   5.258  12.033  0.00  0.00    +0.000 A 
ATOM      2  C   UNL     1      45.617   4.414  12.918  0.00  0.00    +0.000 A 
ATOM      3  C   UNL     1      46.738   4.872  13.618  0.00  0.00    +0.000 A 
ATOM      4  C   UNL     1      47.184   6.191  13.464  0.00  0.00    +0.000 A 
ATOM      5  C   UNL     1      46.508   7.031  12.568  0.00  0.00    +0.000 A 
ATOM      6  C   UNL     1      45.386   6.573  11.869  0.00  0.00    +0.000 A 
ENDROOT
BRANCH   1   7
ATOM      7  C   UNL     1      43.759   4.737  11.239  0.00  0.00    +0.000 C 
BRANCH   7   8
ATOM      8  N   UNL     1      43.964   4.892   9.808  0.00  0.00    +0.000 N 
ATOM      9  H   UNL     1      43.113   5.070   9.279  0.00  0.00    +0.000 HD
BRANCH   8  13
ATOM     10  C   UNL     1      46.482   2.221   7.703  0.00  0.00    +0.000 A 
ATOM     11  C   UNL     1      46.565   3.590   7.452  0.00  0.00    +0.000 A 
ATOM     12  C   UNL     1      45.745   4.482   8.153  0.00  0.00    +0.000 A 
ATOM     13  C   UNL     1      44.852   4.040   9.140  0.00  0.00    +0.000 A 
ATOM     14  C   UNL     1      44.768   2.659   9.364  0.00  0.00    +0.000 A 
ATOM     15  C   UNL     1      45.569   1.753   8.651  0.00  0.00    +0.000 A 
BRANCH  10  17
ATOM     16  N   UNL     1      48.436   1.739   6.334  0.00  0.00    +0.000 N 
ATOM     17  C   UNL     1      47.316   1.249   6.950  0.00  0.00    +0.000 C 
ATOM     18  O   UNL     1      47.036   0.059   6.899  0.00  0.00    +0.000 OA
ATOM     19  H   UNL     1      49.047   1.057   5.902  0.00  0.00    +0.000 HD
ATOM     20  H   UNL     1      48.826   2.642   6.557  0.00  0.00    +0.000 HD
ENDBRANCH  10  17
ENDBRANCH   8  13
ENDBRANCH   7   8
ENDBRANCH   1   7
BRANCH   4  21
ATOM     21  C   UNL     1      48.381   6.695  14.228  0.00  0.00    +0.000 C 
BRANCH  21  22
ATOM     22  N   UNL     1      48.098   6.824  15.635  0.00  0.00    +0.000 N 
ATOM     23  C   UNL     1      48.889   6.209  16.571  0.00  0.00    +0.000 C 
ATOM     24  O   UNL     1      49.891   5.571  16.258  0.00  0.00    +0.000 OA
ATOM     25  H   UNL     1      47.167   7.137  15.893  0.00  0.00    +0.000 HD
BRANCH  23  26
ATOM     26  C   UNL     1      48.517   6.403  17.978  0.00  0.00    +0.000 A 
ATOM     27  C   UNL     1      48.564   5.327  18.855  0.00  0.00    +0.000 A 
ATOM     28  S   UNL     1      48.150   5.733  20.459  0.00  0.00    +0.000 S 
ATOM     29  C   UNL     1      47.841   7.349  20.027  0.00  0.00    +0.000 A 
ATOM     30  N   UNL     1      47.410   8.249  20.952  0.00  0.00    +0.000 NA
ATOM     31  C   UNL     1      47.182   9.430  20.482  0.00  0.00    +0.000 A 
ATOM     32  N   UNL     1      47.355   9.796  19.174  0.00  0.00    +0.000 N 
ATOM     33  C   UNL     1      47.814   8.928  18.210  0.00  0.00    +0.000 A 
ATOM     34  O   UNL     1      48.000   9.301  17.059  0.00  0.00    +0.000 OA
ATOM     35  C   UNL     1      48.069   7.582  18.681  0.00  0.00    +0.000 A 
ATOM     36  H   UNL     1      47.169  10.740  18.872  0.00  0.00    +0.000 HD
ENDBRANCH  23  26
ENDBRANCH  21  22
ENDBRANCH   4  21
TORSDOF 7
ENDMDL
MODEL 4
REMARK VINA RESULT:    -7.701      1.701      2.013
REMARK INTER + INTRA:         -12.015
REMARK INTER:                 -10.753
REMARK INTRA:                  -1.263
REMARK UNBOUND:                -1.163
REMARK  Name = 
REMARK  7 active torsions:
REMARK  status: ('A' for Active; 'I' for Inactive)
REMARK    1  A    between atoms: C_2  and  C_4
REMARK    2  A    between atoms: C_7  and  N_8
REMARK    3  A    between atoms: N_8  and  C_9
REMARK    4  A    between atoms: C_9  and  C_10
REMARK    5  A    between atoms: C_13  and  C_14
REMARK    6  A    between atoms: C_14  and  N_15
REMARK    7  A    between atoms: C_16  and  C_18
REMARK                            x       y       z     vdW  Elec       q    Type
REMARK                         _______ _______ _______ _____ _____    ______ ____
ROOT
ATOM      1  C   UNL     1      44.849   4.692  12.314  0.00  0.00    +0.000 A 
ATOM      2  C   UNL     1      45.770   4.133  13.209  0.00  0.00    +0.000 A 
ATOM      3  C   UNL     1      46.801   4.907  13.749  0.00  0.00    +0.000 A 
ATOM      4  C   UNL     1      46.920   6.264  13.423  0.00  0.00    +0.000 A 
ATOM      5  C   UNL     1      46.006   6.821  12.517  0.00  0.00    +0.000 A 
ATOM      6  C   UNL     1      44.973   6.047  11.977  0.00  0.00    +0.000 A 
ENDROOT
BRANCH   1   7
ATOM      7  C   UNL     1      43.774   3.834  11.692  0.00  0.00    +0.000 C 
BRANCH   7   8
ATOM      8  N   UNL     1      43.635   4.091  10.267  0.00  0.00    +0.000 N 
ATOM      9  H   UNL     1      42.693   3.956   9.906  0.00  0.00    +0.000 HD
BRANCH   8  13
ATOM     10  C   UNL     1      46.488   2.620   7.511  0.00  0.00    +0.000 A 
ATOM     11  C   UNL     1      46.164   3.977   7.512  0.00  0.00    +0.000 A 
ATOM     12  C   UNL     1      45.231   4.474   8.429  0.00  0.00    +0.000 A 
ATOM     13  C   UNL     1      44.626   3.646   9.385  0.00  0.00    +0.000 A 
ATOM     14  C   UNL     1      44.949   2.282   9.356  0.00  0.00    +0.000 A 
ATOM     15  C   UNL     1      45.866   1.768   8.425  0.00  0.00    +0.000 A 
BRANCH  10  17
ATOM     16  N   UNL     1      47.060   2.052   5.214  0.00  0.00    +0.000 N 
ATOM     17  C   UNL     1      47.449   2.059   6.526  0.00  0.00    +0.000 C 
ATOM     18  O   UNL     1      48.551   1.645   6.861  0.00  0.00    +0.000 OA
ATOM     19  H   UNL     1      47.754   1.753   4.540  0.00  0.00    +0.000 HD
ATOM     20  H   UNL     1      46.283   2.600   4.876  0.00  0.00    +0.000 HD
ENDBRANCH  10  17
ENDBRANCH   8  13
ENDBRANCH   7   8
ENDBRANCH   1   7
BRANCH   4  21
ATOM     21  C   UNL     1      48.019   7.107  14.015  0.00  0.00    +0.000 C 
BRANCH  21  22
ATOM     22  N   UNL     1      48.366   6.672  15.344  0.00  0.00    +0.000 N 
ATOM     23  C   UNL     1      49.657   6.761  15.799  0.00  0.00    +0.000 C 
ATOM     24  O   UNL     1      50.553   7.256  15.120  0.00  0.00    +0.000 OA
ATOM     25  H   UNL     1      47.709   6.059  15.817  0.00  0.00    +0.000 HD
BRANCH  23  26
ATOM     26  C   UNL     1      49.907   6.292  17.167  0.00  0.00    +0.000 A 
ATOM     27  C   UNL     1      50.759   5.216  17.380  0.00  0.00    +0.000 A 
ATOM     28  S   UNL     1      50.980   4.832  19.027  0.00  0.00    +0.000 S 
ATOM     29  C   UNL     1      49.901   6.055  19.512  0.00  0.00    +0.000 A 
ATOM     30  N   UNL     1      49.611   6.248  20.827  0.00  0.00    +0.000 NA
ATOM     31  C   UNL     1      48.753   7.187  21.052  0.00  0.00    +0.000 A 
ATOM     32  N   UNL     1      48.166   7.957  20.082  0.00  0.00    +0.000 N 
ATOM     33  C   UNL     1      48.449   7.815  18.743  0.00  0.00    +0.000 A 
ATOM     34  O   UNL     1      47.940   8.549  17.907  0.00  0.00    +0.000 OA
ATOM     35  C   UNL     1      49.394   6.762  18.433  0.00  0.00    +0.000 A 
ATOM     36  H   UNL     1      47.510   8.683  20.325  0.00  0.00    +0.000 HD
ENDBRANCH  23  26
ENDBRANCH  21  22
ENDBRANCH   4  21
TORSDOF 7
ENDMDL
MODEL 5
REMARK VINA RESULT:    -7.695      3.201      8.970
REMARK INTER + INTRA:         -12.008
REMARK INTER:                 -10.442
REMARK INTRA:                  -1.565
REMARK UNBOUND:                -1.163
REMARK  Name = 
REMARK  7 active torsions:
REMARK  status: ('A' for Active; 'I' for Inactive)
REMARK    1  A    between atoms: C_2  and  C_4
REMARK    2  A    between atoms: C_7  and  N_8
REMARK    3  A    between atoms: N_8  and  C_9
REMARK    4  A    between atoms: C_9  and  C_10
REMARK    5  A    between atoms: C_13  and  C_14
REMARK    6  A    between atoms: C_14  and  N_15
REMARK    7  A    between atoms: C_16  and  C_18
REMARK                            x       y       z     vdW  Elec       q    Type
REMARK                         _______ _______ _______ _____ _____    ______ ____
ROOT
ATOM      1  C   UNL     1      49.398   8.499  15.833  0.00  0.00    +0.000 A 
ATOM      2  C   UNL     1      50.155   7.847  14.850  0.00  0.00    +0.000 A 
ATOM      3  C   UNL     1      49.643   7.659  13.563  0.00  0.00    +0.000 A 
ATOM      4  C   UNL     1      48.372   8.140  13.225  0.00  0.00    +0.000 A 
ATOM      5  C   UNL     1      47.609   8.781  14.211  0.00  0.00    +0.000 A 
ATOM      6  C   UNL     1      48.121   8.970  15.499  0.00  0.00    +0.000 A 
ENDROOT
BRANCH   1   7
ATOM      7  C   UNL     1      49.937   8.646  17.236  0.00  0.00    +0.000 C 
BRANCH   7   8
ATOM      8  N   UNL     1      49.339   7.683  18.147  0.00  0.00    +0.000 N 
ATOM      9  H   UNL     1      49.372   7.956  19.127  0.00  0.00    +0.000 HD
BRANCH   8  13
ATOM     10  C   UNL     1      49.985   3.576  17.361  0.00  0.00    +0.000 A 
ATOM     11  C   UNL     1      51.026   4.355  17.863  0.00  0.00    +0.000 A 
ATOM     12  C   UNL     1      50.818   5.712  18.138  0.00  0.00    +0.000 A 
ATOM     13  C   UNL     1      49.566   6.315  17.954  0.00  0.00    +0.000 A 
ATOM     14  C   UNL     1      48.536   5.522  17.430  0.00  0.00    +0.000 A 
ATOM     15  C   UNL     1      48.740   4.166  17.128  0.00  0.00    +0.000 A 
BRANCH  10  17
ATOM     16  N   UNL     1      51.082   1.447  17.796  0.00  0.00    +0.000 N 
ATOM     17  C   UNL     1      50.187   2.142  17.028  0.00  0.00    +0.000 C 
ATOM     18  O   UNL     1      49.566   1.593  16.129  0.00  0.00    +0.000 OA
ATOM     19  H   UNL     1      51.147   0.452  17.623  0.00  0.00    +0.000 HD
ATOM     20  H   UNL     1      51.418   1.792  18.683  0.00  0.00    +0.000 HD
ENDBRANCH  10  17
ENDBRANCH   8  13
ENDBRANCH   7   8
ENDBRANCH   1   7
BRANCH   4  21
ATOM     21  C   UNL     1      47.821   7.955  11.834  0.00  0.00    +0.000 C 
BRANCH  21  22
ATOM     22  N   UNL     1      47.080   6.725  11.714  0.00  0.00    +0.000 N 
ATOM     23  C   UNL     1      45.709   6.722  11.767  0.00  0.00    +0.000 C 
ATOM     24  O   UNL     1      45.060   7.761  11.866  0.00  0.00    +0.000 OA
ATOM     25  H   UNL     1      47.589   5.861  11.868  0.00  0.00    +0.000 HD
BRANCH  23  26
ATOM     26  C   UNL     1      45.048   5.419  11.634  0.00  0.00    +0.000 A 
ATOM     27  C   UNL     1      44.364   4.882  12.718  0.00  0.00    +0.000 A 
ATOM     28  S   UNL     1      43.612   3.389  12.381  0.00  0.00    +0.000 S 
ATOM     29  C   UNL     1      44.219   3.380  10.792  0.00  0.00    +0.000 A 
ATOM     30  N   UNL     1      43.964   2.340   9.953  0.00  0.00    +0.000 NA
ATOM     31  C   UNL     1      44.513   2.446   8.789  0.00  0.00    +0.000 A 
ATOM     32  N   UNL     1      45.286   3.503   8.383  0.00  0.00    +0.000 N 
ATOM     33  C   UNL     1      45.548   4.588   9.188  0.00  0.00    +0.000 A 
ATOM     34  O   UNL     1      46.205   5.535   8.778  0.00  0.00    +0.000 OA
ATOM     35  C   UNL     1      44.969   4.511  10.514  0.00  0.00    +0.000 A 
ATOM     36  H   UNL     1      45.677   3.531   7.455  0.00  0.00    +0.000 HD
ENDBRANCH  23  26
ENDBRANCH  21  22
ENDBRANCH   4  21
TORSDOF 7
ENDMDL
MODEL 6
REMARK VINA RESULT:    -7.526      4.890      5.962
REMARK INTER + INTRA:         -11.768
REMARK INTER:                 -10.454
REMARK INTRA:                  -1.314
REMARK UNBOUND:                -1.163
REMARK  Name = 
REMARK  7 active torsions:
REMARK  status: ('A' for Active; 'I' for Inactive)
REMARK    1  A    between atoms: C_2  and  C_4
REMARK    2  A    between atoms: C_7  and  N_8
REMARK    3  A    between atoms: N_8  and  C_9
REMARK    4  A    between atoms: C_9  and  C_10
REMARK    5  A    between atoms: C_13  and  C_14
REMARK    6  A    between atoms: C_14  and  N_15
REMARK    7  A    between atoms: C_16  and  C_18
REMARK                            x       y       z     vdW  Elec       q    Type
REMARK                         _______ _______ _______ _____ _____    ______ ____
ROOT
ATOM      1  C   UNL     1      44.975   5.301  12.143  0.00  0.00    +0.000 A 
ATOM      2  C   UNL     1      46.176   5.614  12.794  0.00  0.00    +0.000 A 
ATOM      3  C   UNL     1      46.623   6.937  12.871  0.00  0.00    +0.000 A 
ATOM      4  C   UNL     1      45.866   7.977  12.318  0.00  0.00    +0.000 A 
ATOM      5  C   UNL     1      44.672   7.663  11.654  0.00  0.00    +0.000 A 
ATOM      6  C   UNL     1      44.224   6.340  11.578  0.00  0.00    +0.000 A 
ENDROOT
BRANCH   1   7
ATOM      7  C   UNL     1      44.531   3.864  12.015  0.00  0.00    +0.000 C 
BRANCH   7   8
ATOM      8  N   UNL     1      43.991   3.582  10.694  0.00  0.00    +0.000 N 
ATOM      9  H   UNL     1      43.186   2.959  10.694  0.00  0.00    +0.000 HD
BRANCH   8  13
ATOM     10  C   UNL     1      46.479   2.749   7.374  0.00  0.00    +0.000 A 
ATOM     11  C   UNL     1      46.147   4.070   7.675  0.00  0.00    +0.000 A 
ATOM     12  C   UNL     1      45.335   4.355   8.779  0.00  0.00    +0.000 A 
ATOM     13  C   UNL     1      44.864   3.343   9.627  0.00  0.00    +0.000 A 
ATOM     14  C   UNL     1      45.191   2.020   9.298  0.00  0.00    +0.000 A 
ATOM     15  C   UNL     1      45.986   1.720   8.180  0.00  0.00    +0.000 A 
BRANCH  10  17
ATOM     16  N   UNL     1      48.630   2.130   6.418  0.00  0.00    +0.000 N 
ATOM     17  C   UNL     1      47.310   2.414   6.190  0.00  0.00    +0.000 C 
ATOM     18  O   UNL     1      46.840   2.366   5.061  0.00  0.00    +0.000 OA
ATOM     19  H   UNL     1      49.167   1.814   5.620  0.00  0.00    +0.000 HD
ATOM     20  H   UNL     1      48.987   1.919   7.338  0.00  0.00    +0.000 HD
ENDBRANCH  10  17
ENDBRANCH   8  13
ENDBRANCH   7   8
ENDBRANCH   1   7
BRANCH   4  21
ATOM     21  C   UNL     1      46.334   9.406  12.412  0.00  0.00    +0.000 C 
BRANCH  21  22
ATOM     22  N   UNL     1      47.623   9.586  11.794  0.00  0.00    +0.000 N 
ATOM     23  C   UNL     1      48.643  10.216  12.461  0.00  0.00    +0.000 C 
ATOM     24  O   UNL     1      48.518  10.605  13.619  0.00  0.00    +0.000 OA
ATOM     25  H   UNL     1      47.670   9.489  10.784  0.00  0.00    +0.000 HD
BRANCH  23  26
ATOM     26  C   UNL     1      49.916  10.348  11.744  0.00  0.00    +0.000 A 
ATOM     27  C   UNL     1      50.398  11.612  11.426  0.00  0.00    +0.000 A 
ATOM     28  S   UNL     1      51.912  11.590  10.641  0.00  0.00    +0.000 S 
ATOM     29  C   UNL     1      51.951   9.890  10.647  0.00  0.00    +0.000 A 
ATOM     30  N   UNL     1      52.990   9.213  10.086  0.00  0.00    +0.000 NA
ATOM     31  C   UNL     1      52.876   7.927  10.132  0.00  0.00    +0.000 A 
ATOM     32  N   UNL     1      51.823   7.256  10.696  0.00  0.00    +0.000 N 
ATOM     33  C   UNL     1      50.766   7.898  11.298  0.00  0.00    +0.000 A 
ATOM     34  O   UNL     1      49.864   7.266  11.833  0.00  0.00    +0.000 OA
ATOM     35  C   UNL     1      50.834   9.344  11.260  0.00  0.00    +0.000 A 
ATOM     36  H   UNL     1      51.800   6.248  10.708  0.00  0.00    +0.000 HD
ENDBRANCH  23  26
ENDBRANCH  21  22
ENDBRANCH   4  21
TORSDOF 7
ENDMDL
MODEL 7
REMARK VINA RESULT:    -7.257      4.124      9.161
REMARK INTER + INTRA:         -11.390
REMARK INTER:                 -10.345
REMARK INTRA:                  -1.044
REMARK UNBOUND:                -1.163
REMARK  Name = 
REMARK  7 active torsions:
REMARK  status: ('A' for Active; 'I' for Inactive)
REMARK    1  A    between atoms: C_2  and  C_4
REMARK    2  A    between atoms: C_7  and  N_8
REMARK    3  A    between atoms: N_8  and  C_9
REMARK    4  A    between atoms: C_9  and  C_10
REMARK    5  A    between atoms: C_13  and  C_14
REMARK    6  A    between atoms: C_14  and  N_15
REMARK    7  A    between atoms: C_16  and  C_18
REMARK                            x       y       z     vdW  Elec       q    Type
REMARK                         _______ _______ _______ _____ _____    ______ ____
ROOT
ATOM      1  C   UNL     1      50.120   6.764  16.074  0.00  0.00    +0.000 A 
ATOM      2  C   UNL     1      50.795   7.614  15.189  0.00  0.00    +0.000 A 
ATOM      3  C   UNL     1      50.216   7.982  13.970  0.00  0.00    +0.000 A 
ATOM      4  C   UNL     1      48.939   7.524  13.621  0.00  0.00    +0.000 A 
ATOM      5  C   UNL     1      48.269   6.662  14.501  0.00  0.00    +0.000 A 
ATOM      6  C   UNL     1      48.847   6.296  15.721  0.00  0.00    +0.000 A 
ENDROOT
BRANCH   1   7
ATOM      7  C   UNL     1      50.777   6.327  17.361  0.00  0.00    +0.000 C 
BRANCH   7   8
ATOM      8  N   UNL     1      50.232   5.069  17.845  0.00  0.00    +0.000 N 
ATOM      9  H   UNL     1      49.727   5.141  18.726  0.00  0.00    +0.000 HD
BRANCH   8  13
ATOM     10  C   UNL     1      52.579   1.548  17.770  0.00  0.00    +0.000 A 
ATOM     11  C   UNL     1      51.249   1.501  17.351  0.00  0.00    +0.000 A 
ATOM     12  C   UNL     1      50.470   2.664  17.360  0.00  0.00    +0.000 A 
ATOM     13  C   UNL     1      50.999   3.901  17.752  0.00  0.00    +0.000 A 
ATOM     14  C   UNL     1      52.331   3.926  18.189  0.00  0.00    +0.000 A 
ATOM     15  C   UNL     1      53.116   2.762  18.206  0.00  0.00    +0.000 A 
BRANCH  10  17
ATOM     16  N   UNL     1      53.767  -0.223  16.597  0.00  0.00    +0.000 N 
ATOM     17  C   UNL     1      53.419   0.323  17.803  0.00  0.00    +0.000 C 
ATOM     18  O   UNL     1      53.810  -0.165  18.855  0.00  0.00    +0.000 OA
ATOM     19  H   UNL     1      54.413  -1.001  16.625  0.00  0.00    +0.000 HD
ATOM     20  H   UNL     1      53.676   0.281  15.728  0.00  0.00    +0.000 HD
ENDBRANCH  10  17
ENDBRANCH   8  13
ENDBRANCH   7   8
ENDBRANCH   1   7
BRANCH   4  21
ATOM     21  C   UNL     1      48.303   7.930  12.317  0.00  0.00    +0.000 C 
BRANCH  21  22
ATOM     22  N   UNL     1      47.608   6.830  11.699  0.00  0.00    +0.000 N 
ATOM     23  C   UNL     1      46.263   6.902  11.442  0.00  0.00    +0.000 C 
ATOM     24  O   UNL     1      45.610   7.915  11.678  0.00  0.00    +0.000 OA
ATOM     25  H   UNL     1      48.067   5.924  11.716  0.00  0.00    +0.000 HD
BRANCH  23  26
ATOM     26  C   UNL     1      45.649   5.729  10.809  0.00  0.00    +0.000 A 
ATOM     27  C   UNL     1      45.804   5.526   9.443  0.00  0.00    +0.000 A 
ATOM     28  S   UNL     1      45.073   4.093   8.877  0.00  0.00    +0.000 S 
ATOM     29  C   UNL     1      44.477   3.721  10.426  0.00  0.00    +0.000 A 
ATOM     30  N   UNL     1      43.721   2.609  10.635  0.00  0.00    +0.000 NA
ATOM     31  C   UNL     1      43.307   2.465  11.850  0.00  0.00    +0.000 A 
ATOM     32  N   UNL     1      43.589   3.327  12.878  0.00  0.00    +0.000 N 
ATOM     33  C   UNL     1      44.371   4.447  12.719  0.00  0.00    +0.000 A 
ATOM     34  O   UNL     1      44.640   5.171  13.669  0.00  0.00    +0.000 OA
ATOM     35  C   UNL     1      44.848   4.666  11.369  0.00  0.00    +0.000 A 
ATOM     36  H   UNL     1      43.244   3.151  13.808  0.00  0.00    +0.000 HD
ENDBRANCH  23  26
ENDBRANCH  21  22
ENDBRANCH   4  21
TORSDOF 7
ENDMDL
MODEL 8
REMARK VINA RESULT:    -7.210      3.188      4.255
REMARK INTER + INTRA:         -11.323
REMARK INTER:                 -10.043
REMARK INTRA:                  -1.281
REMARK UNBOUND:                -1.163
REMARK  Name = 
REMARK  7 active torsions:
REMARK  status: ('A' for Active; 'I' for Inactive)
REMARK    1  A    between atoms: C_2  and  C_4
REMARK    2  A    between atoms: C_7  and  N_8
REMARK    3  A    between atoms: N_8  and  C_9
REMARK    4  A    between atoms: C_9  and  C_10
REMARK    5  A    between atoms: C_13  and  C_14
REMARK    6  A    between atoms: C_14  and  N_15
REMARK    7  A    between atoms: C_16  and  C_18
REMARK                            x       y       z     vdW  Elec       q    Type
REMARK                         _______ _______ _______ _____ _____    ______ ____
ROOT
ATOM      1  C   UNL     1      44.639   5.065  11.991  0.00  0.00    +0.000 A 
ATOM      2  C   UNL     1      45.696   4.881  12.892  0.00  0.00    +0.000 A 
ATOM      3  C   UNL     1      46.486   5.962  13.297  0.00  0.00    +0.000 A 
ATOM      4  C   UNL     1      46.220   7.254  12.826  0.00  0.00    +0.000 A 
ATOM      5  C   UNL     1      45.170   7.436  11.914  0.00  0.00    +0.000 A 
ATOM      6  C   UNL     1      44.380   6.355  11.510  0.00  0.00    +0.000 A 
ENDROOT
BRANCH   1   7
ATOM      7  C   UNL     1      43.830   3.882  11.516  0.00  0.00    +0.000 C 
BRANCH   7   8
ATOM      8  N   UNL     1      43.664   3.888  10.071  0.00  0.00    +0.000 N 
ATOM      9  H   UNL     1      42.743   3.593   9.753  0.00  0.00    +0.000 HD
BRANCH   8  13
ATOM     10  C   UNL     1      46.650   2.346   7.500  0.00  0.00    +0.000 A 
ATOM     11  C   UNL     1      46.384   3.715   7.507  0.00  0.00    +0.000 A 
ATOM     12  C   UNL     1      45.408   4.235   8.364  0.00  0.00    +0.000 A 
ATOM     13  C   UNL     1      44.698   3.417   9.254  0.00  0.00    +0.000 A 
ATOM     14  C   UNL     1      44.964   2.040   9.219  0.00  0.00    +0.000 A 
ATOM     15  C   UNL     1      45.925   1.504   8.347  0.00  0.00    +0.000 A 
BRANCH  10  17
ATOM     16  N   UNL     1      47.239   0.738   5.770  0.00  0.00    +0.000 N 
ATOM     17  C   UNL     1      47.657   1.761   6.577  0.00  0.00    +0.000 C 
ATOM     18  O   UNL     1      48.802   2.188   6.515  0.00  0.00    +0.000 OA
ATOM     19  H   UNL     1      47.903   0.408   5.081  0.00  0.00    +0.000 HD
ATOM     20  H   UNL     1      46.263   0.533   5.617  0.00  0.00    +0.000 HD
ENDBRANCH  10  17
ENDBRANCH   8  13
ENDBRANCH   7   8
ENDBRANCH   1   7
BRANCH   4  21
ATOM     21  C   UNL     1      47.056   8.425  13.272  0.00  0.00    +0.000 C 
BRANCH  21  22
ATOM     22  N   UNL     1      48.367   8.009  13.701  0.00  0.00    +0.000 N 
ATOM     23  C   UNL     1      48.835   8.333  14.949  0.00  0.00    +0.000 C 
ATOM     24  O   UNL     1      48.145   8.940  15.764  0.00  0.00    +0.000 OA
ATOM     25  H   UNL     1      49.022   7.724  12.980  0.00  0.00    +0.000 HD
BRANCH  23  26
ATOM     26  C   UNL     1      50.182   7.862  15.290  0.00  0.00    +0.000 A 
ATOM     27  C   UNL     1      50.377   7.116  16.446  0.00  0.00    +0.000 A 
ATOM     28  S   UNL     1      51.989   6.605  16.668  0.00  0.00    +0.000 S 
ATOM     29  C   UNL     1      52.494   7.409  15.257  0.00  0.00    +0.000 A 
ATOM     30  N   UNL     1      53.800   7.395  14.876  0.00  0.00    +0.000 NA
ATOM     31  C   UNL     1      54.051   8.072  13.805  0.00  0.00    +0.000 A 
ATOM     32  N   UNL     1      53.113   8.753  13.074  0.00  0.00    +0.000 N 
ATOM     33  C   UNL     1      51.778   8.772  13.406  0.00  0.00    +0.000 A 
ATOM     34  O   UNL     1      50.960   9.354  12.706  0.00  0.00    +0.000 OA
ATOM     35  C   UNL     1      51.444   8.042  14.612  0.00  0.00    +0.000 A 
ATOM     36  H   UNL     1      53.372   9.255  12.239  0.00  0.00    +0.000 HD
ENDBRANCH  23  26
ENDBRANCH  21  22
ENDBRANCH   4  21
TORSDOF 7
ENDMDL
MODEL 9
REMARK VINA RESULT:    -7.182      4.550      6.386
REMARK INTER + INTRA:         -11.285
REMARK INTER:                 -10.015
REMARK INTRA:                  -1.270
REMARK UNBOUND:                -1.163
REMARK  Name = 
REMARK  7 active torsions:
REMARK  status: ('A' for Active; 'I' for Inactive)
REMARK    1  A    between atoms: C_2  and  C_4
REMARK    2  A    between atoms: C_7  and  N_8
REMARK    3  A    between atoms: N_8  and  C_9
REMARK    4  A    between atoms: C_9  and  C_10
REMARK    5  A    between atoms: C_13  and  C_14
REMARK    6  A    between atoms: C_14  and  N_15
REMARK    7  A    between atoms: C_16  and  C_18
REMARK                            x       y       z     vdW  Elec       q    Type
REMARK                         _______ _______ _______ _____ _____    ______ ____
ROOT
ATOM      1  C   UNL     1      44.483   5.086  11.923  0.00  0.00    +0.000 A 
ATOM      2  C   UNL     1      45.557   4.988  12.819  0.00  0.00    +0.000 A 
ATOM      3  C   UNL     1      46.267   6.127  13.210  0.00  0.00    +0.000 A 
ATOM      4  C   UNL     1      45.904   7.392  12.730  0.00  0.00    +0.000 A 
ATOM      5  C   UNL     1      44.839   7.489  11.824  0.00  0.00    +0.000 A 
ATOM      6  C   UNL     1      44.127   6.350  11.434  0.00  0.00    +0.000 A 
ENDROOT
BRANCH   1   7
ATOM      7  C   UNL     1      43.760   3.844  11.463  0.00  0.00    +0.000 C 
BRANCH   7   8
ATOM      8  N   UNL     1      43.603   3.815  10.018  0.00  0.00    +0.000 N 
ATOM      9  H   UNL     1      42.694   3.484   9.701  0.00  0.00    +0.000 HD
BRANCH   8  13
ATOM     10  C   UNL     1      46.652   2.328   7.488  0.00  0.00    +0.000 A 
ATOM     11  C   UNL     1      46.387   3.697   7.520  0.00  0.00    +0.000 A 
ATOM     12  C   UNL     1      45.389   4.199   8.363  0.00  0.00    +0.000 A 
ATOM     13  C   UNL     1      44.657   3.361   9.217  0.00  0.00    +0.000 A 
ATOM     14  C   UNL     1      44.924   1.986   9.157  0.00  0.00    +0.000 A 
ATOM     15  C   UNL     1      45.906   1.469   8.298  0.00  0.00    +0.000 A 
BRANCH  10  17
ATOM     16  N   UNL     1      47.285   0.757   5.740  0.00  0.00    +0.000 N 
ATOM     17  C   UNL     1      47.682   1.764   6.578  0.00  0.00    +0.000 C 
ATOM     18  O   UNL     1      48.828   2.193   6.552  0.00  0.00    +0.000 OA
ATOM     19  H   UNL     1      47.966   0.442   5.061  0.00  0.00    +0.000 HD
ATOM     20  H   UNL     1      46.313   0.554   5.560  0.00  0.00    +0.000 HD
ENDBRANCH  10  17
ENDBRANCH   8  13
ENDBRANCH   7   8
ENDBRANCH   1   7
BRANCH   4  21
ATOM     21  C   UNL     1      46.655   8.625  13.161  0.00  0.00    +0.000 C 
BRANCH  21  22
ATOM     22  N   UNL     1      47.829   8.842  12.354  0.00  0.00    +0.000 N 
ATOM     23  C   UNL     1      49.070   8.940  12.930  0.00  0.00    +0.000 C 
ATOM     24  O   UNL     1      49.239   8.799  14.139  0.00  0.00    +0.000 OA
ATOM     25  H   UNL     1      47.686   9.189  11.411  0.00  0.00    +0.000 HD
BRANCH  23  26
ATOM     26  C   UNL     1      50.202   9.160  12.022  0.00  0.00    +0.000 A 
ATOM     27  C   UNL     1      51.296   8.305  12.069  0.00  0.00    +0.000 A 
ATOM     28  S   UNL     1      52.499   8.668  10.916  0.00  0.00    +0.000 S 
ATOM     29  C   UNL     1      51.625  10.014  10.350  0.00  0.00    +0.000 A 
ATOM     30  N   UNL     1      52.123  10.803   9.359  0.00  0.00    +0.000 NA
ATOM     31  C   UNL     1      51.373  11.808   9.049  0.00  0.00    +0.000 A 
ATOM     32  N   UNL     1      50.166  12.090   9.633  0.00  0.00    +0.000 N 
ATOM     33  C   UNL     1      49.612  11.306  10.619  0.00  0.00    +0.000 A 
ATOM     34  O   UNL     1      48.511  11.563  11.087  0.00  0.00    +0.000 OA
ATOM     35  C   UNL     1      50.422  10.173  11.017  0.00  0.00    +0.000 A 
ATOM     36  H   UNL     1      49.623  12.886   9.338  0.00  0.00    +0.000 HD
ENDBRANCH  23  26
ENDBRANCH  21  22
ENDBRANCH   4  21
TORSDOF 7
ENDMDL
