MODEL 1
REMARK VINA RESULT:    -7.211      0.000      0.000
REMARK INTER + INTRA:         -11.285
REMARK INTER:                 -10.162
REMARK INTRA:                  -1.123
REMARK UNBOUND:                -1.123
REMARK  Name = 
REMARK  9 active torsions:
REMARK  status: ('A' for Active; 'I' for Inactive)
REMARK    1  A    between atoms: C_1  and  N_2
REMARK    2  A    between atoms: N_2  and  C_3
REMARK    3  A    between atoms: N_2  and  C_25
REMARK    4  A    between atoms: C_3  and  C_4
REMARK    5  A    between atoms: C_7  and  C_8
REMARK    6  A    between atoms: C_8  and  N_9
REMARK    7  A    between atoms: N_9  and  C_10
REMARK    8  A    between atoms: C_11  and  C_13
REMARK    9  A    between atoms: C_25  and  C_26
REMARK                            x       y       z     vdW  Elec       q    Type
REMARK                         _______ _______ _______ _____ _____    ______ ____
ROOT
ATOM      1  C   UNL     1      46.044   5.055  12.557  0.00  0.00    +0.000 A 
ATOM      2  C   UNL     1      46.628   6.177  11.956  0.00  0.00    +0.000 A 
ATOM      3  C   UNL     1      47.626   6.901  12.617  0.00  0.00    +0.000 A 
ATOM      4  C   UNL     1      48.077   6.516  13.891  0.00  0.00    +0.000 A 
ATOM      5  C   UNL     1      47.475   5.409  14.500  0.00  0.00    +0.000 A 
ATOM      6  C   UNL     1      46.473   4.686  13.843  0.00  0.00    +0.000 A 
ENDROOT
BRANCH   1   7
ATOM      7  C   UNL     1      44.978   4.256  11.831  0.00  0.00    +0.000 C 
BRANCH   7   9
ATOM      8  C   UNL     1      43.064   5.617  11.346  0.00  0.00    +0.000 C 
ATOM      9  N   UNL     1      44.261   4.990  10.772  0.00  0.00    +0.000 NA
BRANCH   9  10
ATOM     10  C   UNL     1      43.881   4.092   9.646  0.00  0.00    +0.000 C 
BRANCH  10  11
ATOM     11  C   UNL     1      45.042   3.525   8.829  0.00  0.00    +0.000 A 
ATOM     12  N   UNL     1      45.752   4.368   8.050  0.00  0.00    +0.000 NA
ATOM     13  C   UNL     1      46.705   3.820   7.278  0.00  0.00    +0.000 A 
ATOM     14  C   UNL     1      46.987   2.476   7.260  0.00  0.00    +0.000 A 
ATOM     15  C   UNL     1      46.228   1.700   8.102  0.00  0.00    +0.000 A 
ATOM     16  N   UNL     1      45.250   2.189   8.888  0.00  0.00    +0.000 NA
ENDBRANCH  10  11
ENDBRANCH   9  10
ENDBRANCH   7   9
ENDBRANCH   1   7
BRANCH   4  17
ATOM     17  C   UNL     1      49.239   7.235  14.547  0.00  0.00    +0.000 C 
BRANCH  17  18
ATOM     18  N   UNL     1      49.143   7.507  15.985  0.00  0.00    +0.000 N 
ATOM     19  C   UNL     1      48.499   8.741  16.420  0.00  0.00    +0.000 C 
ATOM     20  C   UNL     1      49.946   6.700  16.817  0.00  0.00    +0.000 C 
ATOM     21  O   UNL     1      50.621   5.787  16.354  0.00  0.00    +0.000 OA
BRANCH  20  22
ATOM     22  C   UNL     1      49.937   6.926  18.272  0.00  0.00    +0.000 A 
ATOM     23  C   UNL     1      50.851   7.733  18.935  0.00  0.00    +0.000 A 
ATOM     24  S   UNL     1      50.568   7.844  20.615  0.00  0.00    +0.000 S 
ATOM     25  C   UNL     1      49.136   6.935  20.491  0.00  0.00    +0.000 A 
ATOM     26  N   UNL     1      48.342   6.733  21.576  0.00  0.00    +0.000 NA
ATOM     27  C   UNL     1      47.253   6.087  21.320  0.00  0.00    +0.000 A 
ATOM     28  N   UNL     1      46.905   5.598  20.087  0.00  0.00    +0.000 N 
ATOM     29  C   UNL     1      47.739   5.662  18.990  0.00  0.00    +0.000 A 
ATOM     30  O   UNL     1      47.493   5.017  17.978  0.00  0.00    +0.000 OA
ATOM     31  C   UNL     1      48.922   6.480  19.202  0.00  0.00    +0.000 A 
ATOM     32  H   UNL     1      46.068   5.048  19.968  0.00  0.00    +0.000 HD
ENDBRANCH  20  22
ENDBRANCH  17  18
ENDBRANCH   4  17
TORSDOF 7
ENDMDL
MODEL 2
REMARK VINA RESULT:    -7.093      3.228      3.768
REMARK INTER + INTRA:         -11.119
REMARK INTER:                 -10.574
REMARK INTRA:                  -0.545
REMARK UNBOUND:                -1.123
REMARK  Name = 
REMARK  9 active torsions:
REMARK  status: ('A' for Active; 'I' for Inactive)
REMARK    1  A    between atoms: C_1  and  N_2
REMARK    2  A    between atoms: N_2  and  C_3
REMARK    3  A    between atoms: N_2  and  C_25
REMARK    4  A    between atoms: C_3  and  C_4
REMARK    5  A    between atoms: C_7  and  C_8
REMARK    6  A    between atoms: C_8  and  N_9
REMARK    7  A    between atoms: N_9  and  C_10
REMARK    8  A    between atoms: C_11  and  C_13
REMARK    9  A    between atoms: C_25  and  C_26
REMARK                            x       y       z     vdW  Elec       q    Type
REMARK                         _______ _______ _______ _____ _____    ______ ____
ROOT
ATOM      1  C   UNL     1      46.555   4.777  13.259  0.00  0.00    +0.000 A 
ATOM      2  C   UNL     1      46.549   4.151  14.511  0.00  0.00    +0.000 A 
ATOM      3  C   UNL     1      47.275   4.689  15.579  0.00  0.00    +0.000 A 
ATOM      4  C   UNL     1      48.016   5.873  15.429  0.00  0.00    +0.000 A 
ATOM      5  C   UNL     1      48.041   6.483  14.169  0.00  0.00    +0.000 A 
ATOM      6  C   UNL     1      47.320   5.944  13.098  0.00  0.00    +0.000 A 
ENDROOT
BRANCH   1   7
ATOM      7  C   UNL     1      45.750   4.206  12.106  0.00  0.00    +0.000 C 
BRANCH   7   9
ATOM      8  C   UNL     1      43.983   5.807  12.371  0.00  0.00    +0.000 C 
ATOM      9  N   UNL     1      44.891   5.178  11.403  0.00  0.00    +0.000 NA
BRANCH   9  10
ATOM     10  C   UNL     1      44.110   4.528  10.313  0.00  0.00    +0.000 C 
BRANCH  10  11
ATOM     11  C   UNL     1      44.932   3.777   9.266  0.00  0.00    +0.000 A 
ATOM     12  N   UNL     1      44.972   2.429   9.328  0.00  0.00    +0.000 NA
ATOM     13  C   UNL     1      45.776   1.808   8.449  0.00  0.00    +0.000 A 
ATOM     14  C   UNL     1      46.526   2.469   7.507  0.00  0.00    +0.000 A 
ATOM     15  C   UNL     1      46.402   3.837   7.506  0.00  0.00    +0.000 A 
ATOM     16  N   UNL     1      45.625   4.516   8.370  0.00  0.00    +0.000 NA
ENDBRANCH  10  11
ENDBRANCH   9  10
ENDBRANCH   7   9
ENDBRANCH   1   7
BRANCH   4  17
ATOM     17  C   UNL     1      48.701   6.511  16.620  0.00  0.00    +0.000 C 
BRANCH  17  18
ATOM     18  N   UNL     1      50.022   5.995  16.998  0.00  0.00    +0.000 N 
ATOM     19  C   UNL     1      51.185   6.429  16.232  0.00  0.00    +0.000 C 
ATOM     20  C   UNL     1      50.022   4.892  17.878  0.00  0.00    +0.000 C 
ATOM     21  O   UNL     1      48.976   4.452  18.341  0.00  0.00    +0.000 OA
BRANCH  20  22
ATOM     22  C   UNL     1      51.302   4.290  18.283  0.00  0.00    +0.000 A 
ATOM     23  C   UNL     1      52.217   4.908  19.124  0.00  0.00    +0.000 A 
ATOM     24  S   UNL     1      53.592   3.954  19.454  0.00  0.00    +0.000 S 
ATOM     25  C   UNL     1      52.949   2.631  18.601  0.00  0.00    +0.000 A 
ATOM     26  N   UNL     1      53.600   1.437  18.570  0.00  0.00    +0.000 NA
ATOM     27  C   UNL     1      52.961   0.504  17.946  0.00  0.00    +0.000 A 
ATOM     28  N   UNL     1      51.750   0.666  17.324  0.00  0.00    +0.000 N 
ATOM     29  C   UNL     1      51.118   1.888  17.215  0.00  0.00    +0.000 A 
ATOM     30  O   UNL     1      50.163   2.034  16.462  0.00  0.00    +0.000 OA
ATOM     31  C   UNL     1      51.742   2.941  18.000  0.00  0.00    +0.000 A 
ATOM     32  H   UNL     1      51.334  -0.090  16.801  0.00  0.00    +0.000 HD
ENDBRANCH  20  22
ENDBRANCH  17  18
ENDBRANCH   4  17
TORSDOF 7
ENDMDL
MODEL 3
REMARK VINA RESULT:    -6.285      3.638      8.244
REMARK INTER + INTRA:          -9.979
REMARK INTER:                  -8.563
REMARK INTRA:                  -1.417
REMARK UNBOUND:                -1.123
REMARK  Name = 
REMARK  9 active torsions:
REMARK  status: ('A' for Active; 'I' for Inactive)
REMARK    1  A    between atoms: C_1  and  N_2
REMARK    2  A    between atoms: N_2  and  C_3
REMARK    3  A    between atoms: N_2  and  C_25
REMARK    4  A    between atoms: C_3  and  C_4
REMARK    5  A    between atoms: C_7  and  C_8
REMARK    6  A    between atoms: C_8  and  N_9
REMARK    7  A    between atoms: N_9  and  C_10
REMARK    8  A    between atoms: C_11  and  C_13
REMARK    9  A    between atoms: C_25  and  C_26
REMARK                            x       y       z     vdW  Elec       q    Type
REMARK                         _______ _______ _______ _____ _____    ______ ____
ROOT
ATOM      1  C   UNL     1      52.300   6.493  16.503  0.00  0.00    +0.000 A 
ATOM      2  C   UNL     1      50.904   6.527  16.613  0.00  0.00    +0.000 A 
ATOM      3  C   UNL     1      50.140   7.309  15.740  0.00  0.00    +0.000 A 
ATOM      4  C   UNL     1      50.749   8.068  14.726  0.00  0.00    +0.000 A 
ATOM      5  C   UNL     1      52.146   8.052  14.634  0.00  0.00    +0.000 A 
ATOM      6  C   UNL     1      52.912   7.275  15.509  0.00  0.00    +0.000 A 
ENDROOT
BRANCH   1   7
ATOM      7  C   UNL     1      53.127   5.628  17.435  0.00  0.00    +0.000 C 
BRANCH   7   9
ATOM      8  C   UNL     1      53.129   4.758  19.670  0.00  0.00    +0.000 C 
ATOM      9  N   UNL     1      52.351   4.862  18.429  0.00  0.00    +0.000 NA
BRANCH   9  10
ATOM     10  C   UNL     1      52.005   3.504  17.924  0.00  0.00    +0.000 C 
BRANCH  10  11
ATOM     11  C   UNL     1      50.515   3.232  17.719  0.00  0.00    +0.000 A 
ATOM     12  N   UNL     1      50.144   2.415  16.711  0.00  0.00    +0.000 NA
ATOM     13  C   UNL     1      48.823   2.273  16.504  0.00  0.00    +0.000 A 
ATOM     14  C   UNL     1      47.864   2.895  17.265  0.00  0.00    +0.000 A 
ATOM     15  C   UNL     1      48.337   3.688  18.282  0.00  0.00    +0.000 A 
ATOM     16  N   UNL     1      49.647   3.882  18.528  0.00  0.00    +0.000 NA
ENDBRANCH  10  11
ENDBRANCH   9  10
ENDBRANCH   7   9
ENDBRANCH   1   7
BRANCH   4  17
ATOM     17  C   UNL     1      49.907   8.817  13.713  0.00  0.00    +0.000 C 
BRANCH  17  18
ATOM     18  N   UNL     1      48.860   8.063  13.012  0.00  0.00    +0.000 N 
ATOM     19  C   UNL     1      49.154   7.529  11.688  0.00  0.00    +0.000 C 
ATOM     20  C   UNL     1      47.560   8.176  13.548  0.00  0.00    +0.000 C 
ATOM     21  O   UNL     1      47.352   8.810  14.577  0.00  0.00    +0.000 OA
BRANCH  20  22
ATOM     22  C   UNL     1      46.443   7.480  12.889  0.00  0.00    +0.000 A 
ATOM     23  C   UNL     1      45.564   8.090  12.006  0.00  0.00    +0.000 A 
ATOM     24  S   UNL     1      44.395   7.026  11.362  0.00  0.00    +0.000 S 
ATOM     25  C   UNL     1      45.110   5.687  12.130  0.00  0.00    +0.000 A 
ATOM     26  N   UNL     1      44.641   4.429  11.918  0.00  0.00    +0.000 NA
ATOM     27  C   UNL     1      45.325   3.505  12.508  0.00  0.00    +0.000 A 
ATOM     28  N   UNL     1      46.410   3.729  13.316  0.00  0.00    +0.000 N 
ATOM     29  C   UNL     1      46.838   4.993  13.666  0.00  0.00    +0.000 A 
ATOM     30  O   UNL     1      47.656   5.151  14.564  0.00  0.00    +0.000 OA
ATOM     31  C   UNL     1      46.172   6.059  12.935  0.00  0.00    +0.000 A 
ATOM     32  H   UNL     1      46.861   2.965  13.797  0.00  0.00    +0.000 HD
ENDBRANCH  20  22
ENDBRANCH  17  18
ENDBRANCH   4  17
TORSDOF 7
ENDMDL
MODEL 4
REMARK VINA RESULT:    -6.276      2.159      2.667
REMARK INTER + INTRA:          -9.967
REMARK INTER:                  -8.954
REMARK INTRA:                  -1.013
REMARK UNBOUND:                -1.123
REMARK  Name = 
REMARK  9 active torsions:
REMARK  status: ('A' for Active; 'I' for Inactive)
REMARK    1  A    between atoms: C_1  and  N_2
REMARK    2  A    between atoms: N_2  and  C_3
REMARK    3  A    between atoms: N_2  and  C_25
REMARK    4  A    between atoms: C_3  and  C_4
REMARK    5  A    between atoms: C_7  and  C_8
REMARK    6  A    between atoms: C_8  and  N_9
REMARK    7  A    between atoms: N_9  and  C_10
REMARK    8  A    between atoms: C_11  and  C_13
REMARK    9  A    between atoms: C_25  and  C_26
REMARK                            x       y       z     vdW  Elec       q    Type
REMARK                         _______ _______ _______ _____ _____    ______ ____
ROOT
ATOM      1  C   UNL     1      46.317   5.543  12.310  0.00  0.00    +0.000 A 
ATOM      2  C   UNL     1      46.844   5.231  13.569  0.00  0.00    +0.000 A 
ATOM      3  C   UNL     1      47.594   6.174  14.280  0.00  0.00    +0.000 A 
ATOM      4  C   UNL     1      47.828   7.458  13.758  0.00  0.00    +0.000 A 
ATOM      5  C   UNL     1      47.321   7.758  12.488  0.00  0.00    +0.000 A 
ATOM      6  C   UNL     1      46.574   6.816  11.773  0.00  0.00    +0.000 A 
ENDROOT
BRANCH   1   7
ATOM      7  C   UNL     1      45.484   4.528  11.548  0.00  0.00    +0.000 C 
BRANCH   7   9
ATOM      8  C   UNL     1      43.355   5.628  11.435  0.00  0.00    +0.000 C 
ATOM      9  N   UNL     1      44.474   5.105  10.641  0.00  0.00    +0.000 NA
BRANCH   9  10
ATOM     10  C   UNL     1      43.983   4.097   9.660  0.00  0.00    +0.000 C 
BRANCH  10  11
ATOM     11  C   UNL     1      45.046   3.486   8.747  0.00  0.00    +0.000 A 
ATOM     12  N   UNL     1      45.289   2.161   8.842  0.00  0.00    +0.000 NA
ATOM     13  C   UNL     1      46.292   1.676   8.091  0.00  0.00    +0.000 A 
ATOM     14  C   UNL     1      47.048   2.448   7.244  0.00  0.00    +0.000 A 
ATOM     15  C   UNL     1      46.713   3.780   7.198  0.00  0.00    +0.000 A 
ATOM     16  N   UNL     1      45.729   4.326   7.937  0.00  0.00    +0.000 NA
ENDBRANCH  10  11
ENDBRANCH   9  10
ENDBRANCH   7   9
ENDBRANCH   1   7
BRANCH   4  17
ATOM     17  C   UNL     1      48.539   8.508  14.586  0.00  0.00    +0.000 C 
BRANCH  17  18
ATOM     18  N   UNL     1      49.798   8.123  15.234  0.00  0.00    +0.000 N 
ATOM     19  C   UNL     1      50.930   7.753  14.394  0.00  0.00    +0.000 C 
ATOM     20  C   UNL     1      49.718   7.852  16.617  0.00  0.00    +0.000 C 
ATOM     21  O   UNL     1      48.669   8.005  17.232  0.00  0.00    +0.000 OA
BRANCH  20  22
ATOM     22  C   UNL     1      50.926   7.426  17.341  0.00  0.00    +0.000 A 
ATOM     23  C   UNL     1      51.872   8.303  17.852  0.00  0.00    +0.000 A 
ATOM     24  S   UNL     1      53.145   7.525  18.682  0.00  0.00    +0.000 S 
ATOM     25  C   UNL     1      52.403   6.005  18.509  0.00  0.00    +0.000 A 
ATOM     26  N   UNL     1      52.942   4.897  19.084  0.00  0.00    +0.000 NA
ATOM     27  C   UNL     1      52.235   3.827  18.931  0.00  0.00    +0.000 A 
ATOM     28  N   UNL     1      51.060   3.759  18.227  0.00  0.00    +0.000 N 
ATOM     29  C   UNL     1      50.547   4.824  17.516  0.00  0.00    +0.000 A 
ATOM     30  O   UNL     1      49.630   4.663  16.720  0.00  0.00    +0.000 OA
ATOM     31  C   UNL     1      51.246   6.077  17.754  0.00  0.00    +0.000 A 
ATOM     32  H   UNL     1      50.590   2.876  18.093  0.00  0.00    +0.000 HD
ENDBRANCH  20  22
ENDBRANCH  17  18
ENDBRANCH   4  17
TORSDOF 7
ENDMDL
MODEL 5
REMARK VINA RESULT:    -6.273      1.633      2.086
REMARK INTER + INTRA:          -9.963
REMARK INTER:                  -9.467
REMARK INTRA:                  -0.495
REMARK UNBOUND:                -1.123
REMARK  Name = 
REMARK  9 active torsions:
REMARK  status: ('A' for Active; 'I' for Inactive)
REMARK    1  A    between atoms: C_1  and  N_2
REMARK    2  A    between atoms: N_2  and  C_3
REMARK    3  A    between atoms: N_2  and  C_25
REMARK    4  A    between atoms: C_3  and  C_4
REMARK    5  A    between atoms: C_7  and  C_8
REMARK    6  A    between atoms: C_8  and  N_9
REMARK    7  A    between atoms: N_9  and  C_10
REMARK    8  A    between atoms: C_11  and  C_13
REMARK    9  A    between atoms: C_25  and  C_26
REMARK                            x       y       z     vdW  Elec       q    Type
REMARK                         _______ _______ _______ _____ _____    ______ ____
ROOT
ATOM      1  C   UNL     1      46.483   6.899  11.543  0.00  0.00    +0.000 A 
ATOM      2  C   UNL     1      47.880   6.978  11.484  0.00  0.00    +0.000 A 
ATOM      3  C   UNL     1      48.587   7.772  12.392  0.00  0.00    +0.000 A 
ATOM      4  C   UNL     1      47.920   8.499  13.392  0.00  0.00    +0.000 A 
ATOM      5  C   UNL     1      46.522   8.439  13.434  0.00  0.00    +0.000 A 
ATOM      6  C   UNL     1      45.812   7.649  12.523  0.00  0.00    +0.000 A 
ENDROOT
BRANCH   1   7
ATOM      7  C   UNL     1      45.717   6.020  10.572  0.00  0.00    +0.000 C 
BRANCH   7   9
ATOM      8  C   UNL     1      45.370   4.237  12.138  0.00  0.00    +0.000 C 
ATOM      9  N   UNL     1      44.706   5.141  11.190  0.00  0.00    +0.000 NA
BRANCH   9  10
ATOM     10  C   UNL     1      43.965   4.356  10.164  0.00  0.00    +0.000 C 
BRANCH  10  11
ATOM     11  C   UNL     1      44.828   3.603   9.152  0.00  0.00    +0.000 A 
ATOM     12  N   UNL     1      45.031   2.282   9.338  0.00  0.00    +0.000 NA
ATOM     13  C   UNL     1      45.869   1.673   8.482  0.00  0.00    +0.000 A 
ATOM     14  C   UNL     1      46.497   2.319   7.445  0.00  0.00    +0.000 A 
ATOM     15  C   UNL     1      46.211   3.657   7.322  0.00  0.00    +0.000 A 
ATOM     16  N   UNL     1      45.393   4.325   8.157  0.00  0.00    +0.000 NA
ENDBRANCH  10  11
ENDBRANCH   9  10
ENDBRANCH   7   9
ENDBRANCH   1   7
BRANCH   4  17
ATOM     17  C   UNL     1      48.702   9.261  14.443  0.00  0.00    +0.000 C 
BRANCH  17  18
ATOM     18  N   UNL     1      48.839   8.642  15.767  0.00  0.00    +0.000 N 
ATOM     19  C   UNL     1      48.016   9.147  16.860  0.00  0.00    +0.000 C 
ATOM     20  C   UNL     1      49.968   7.816  15.944  0.00  0.00    +0.000 C 
ATOM     21  O   UNL     1      50.735   7.584  15.016  0.00  0.00    +0.000 OA
BRANCH  20  22
ATOM     22  C   UNL     1      50.201   7.181  17.252  0.00  0.00    +0.000 A 
ATOM     23  C   UNL     1      50.962   7.750  18.263  0.00  0.00    +0.000 A 
ATOM     24  S   UNL     1      51.021   6.806  19.684  0.00  0.00    +0.000 S 
ATOM     25  C   UNL     1      49.920   5.677  19.047  0.00  0.00    +0.000 A 
ATOM     26  N   UNL     1      49.467   4.642  19.804  0.00  0.00    +0.000 NA
ATOM     27  C   UNL     1      48.582   3.907  19.216  0.00  0.00    +0.000 A 
ATOM     28  N   UNL     1      48.138   4.094  17.932  0.00  0.00    +0.000 N 
ATOM     29  C   UNL     1      48.666   5.046  17.085  0.00  0.00    +0.000 A 
ATOM     30  O   UNL     1      48.409   5.030  15.887  0.00  0.00    +0.000 OA
ATOM     31  C   UNL     1      49.580   5.969  17.739  0.00  0.00    +0.000 A 
ATOM     32  H   UNL     1      47.490   3.445  17.511  0.00  0.00    +0.000 HD
ENDBRANCH  20  22
ENDBRANCH  17  18
ENDBRANCH   4  17
TORSDOF 7
ENDMDL
MODEL 6
REMARK VINA RESULT:    -6.101      4.754      7.126
REMARK INTER + INTRA:          -9.720
REMARK INTER:                  -8.944
REMARK INTRA:                  -0.776
REMARK UNBOUND:                -1.123
REMARK  Name = 
REMARK  9 active torsions:
REMARK  status: ('A' for Active; 'I' for Inactive)
REMARK    1  A    between atoms: C_1  and  N_2
REMARK    2  A    between atoms: N_2  and  C_3
REMARK    3  A    between atoms: N_2  and  C_25
REMARK    4  A    between atoms: C_3  and  C_4
REMARK    5  A    between atoms: C_7  and  C_8
REMARK    6  A    between atoms: C_8  and  N_9
REMARK    7  A    between atoms: N_9  and  C_10
REMARK    8  A    between atoms: C_11  and  C_13
REMARK    9  A    between atoms: C_25  and  C_26
REMARK                            x       y       z     vdW  Elec       q    Type
REMARK                         _______ _______ _______ _____ _____    ______ ____
ROOT
ATOM      1  C   UNL     1      46.034   5.017  12.503  0.00  0.00    +0.000 A 
ATOM      2  C   UNL     1      46.834   5.009  13.652  0.00  0.00    +0.000 A 
ATOM      3  C   UNL     1      47.720   6.060  13.910  0.00  0.00    +0.000 A 
ATOM      4  C   UNL     1      47.822   7.154  13.035  0.00  0.00    +0.000 A 
ATOM      5  C   UNL     1      47.039   7.149  11.874  0.00  0.00    +0.000 A 
ATOM      6  C   UNL     1      46.155   6.096  11.611  0.00  0.00    +0.000 A 
ENDROOT
BRANCH   1   7
ATOM      7  C   UNL     1      45.056   3.889  12.234  0.00  0.00    +0.000 C 
BRANCH   7   9
ATOM      8  C   UNL     1      42.870   4.497  11.458  0.00  0.00    +0.000 C 
ATOM      9  N   UNL     1      44.210   4.067  11.039  0.00  0.00    +0.000 NA
BRANCH   9  10
ATOM     10  C   UNL     1      44.122   2.813  10.239  0.00  0.00    +0.000 C 
BRANCH  10  11
ATOM     11  C   UNL     1      45.094   2.707   9.064  0.00  0.00    +0.000 A 
ATOM     12  N   UNL     1      45.661   1.509   8.807  0.00  0.00    +0.000 NA
ATOM     13  C   UNL     1      46.578   1.474   7.826  0.00  0.00    +0.000 A 
ATOM     14  C   UNL     1      46.940   2.572   7.085  0.00  0.00    +0.000 A 
ATOM     15  C   UNL     1      46.293   3.741   7.404  0.00  0.00    +0.000 A 
ATOM     16  N   UNL     1      45.377   3.842   8.386  0.00  0.00    +0.000 NA
ENDBRANCH  10  11
ENDBRANCH   9  10
ENDBRANCH   7   9
ENDBRANCH   1   7
BRANCH   4  17
ATOM     17  C   UNL     1      48.696   8.342  13.383  0.00  0.00    +0.000 C 
BRANCH  17  18
ATOM     18  N   UNL     1      49.509   8.924  12.309  0.00  0.00    +0.000 N 
ATOM     19  C   UNL     1      50.281   8.028  11.455  0.00  0.00    +0.000 C 
ATOM     20  C   UNL     1      49.713  10.318  12.380  0.00  0.00    +0.000 C 
ATOM     21  O   UNL     1      49.177  10.992  13.252  0.00  0.00    +0.000 OA
BRANCH  20  22
ATOM     22  C   UNL     1      50.544  10.980  11.361  0.00  0.00    +0.000 A 
ATOM     23  C   UNL     1      51.931  10.991  11.382  0.00  0.00    +0.000 A 
ATOM     24  S   UNL     1      52.626  11.797  10.048  0.00  0.00    +0.000 S 
ATOM     25  C   UNL     1      51.104  12.036   9.328  0.00  0.00    +0.000 A 
ATOM     26  N   UNL     1      50.996  12.602   8.096  0.00  0.00    +0.000 NA
ATOM     27  C   UNL     1      49.788  12.654   7.644  0.00  0.00    +0.000 A 
ATOM     28  N   UNL     1      48.678  12.225   8.325  0.00  0.00    +0.000 N 
ATOM     29  C   UNL     1      48.724  11.769   9.626  0.00  0.00    +0.000 A 
ATOM     30  O   UNL     1      47.695  11.615  10.273  0.00  0.00    +0.000 OA
ATOM     31  C   UNL     1      50.074  11.584  10.133  0.00  0.00    +0.000 A 
ATOM     32  H   UNL     1      47.754  12.352   7.939  0.00  0.00    +0.000 HD
ENDBRANCH  20  22
ENDBRANCH  17  18
ENDBRANCH   4  17
TORSDOF 7
ENDMDL
MODEL 7
REMARK VINA RESULT:    -5.868      4.337      6.128
REMARK INTER + INTRA:          -9.392
REMARK INTER:                  -8.657
REMARK INTRA:                  -0.735
REMARK UNBOUND:                -1.123
REMARK  Name = 
REMARK  9 active torsions:
REMARK  status: ('A' for Active; 'I' for Inactive)
REMARK    1  A    between atoms: C_1  and  N_2
REMARK    2  A    between atoms: N_2  and  C_3
REMARK    3  A    between atoms: N_2  and  C_25
REMARK    4  A    between atoms: C_3  and  C_4
REMARK    5  A    between atoms: C_7  and  C_8
REMARK    6  A    between atoms: C_8  and  N_9
REMARK    7  A    between atoms: N_9  and  C_10
REMARK    8  A    between atoms: C_11  and  C_13
REMARK    9  A    between atoms: C_25  and  C_26
REMARK                            x       y       z     vdW  Elec       q    Type
REMARK                         _______ _______ _______ _____ _____    ______ ____
ROOT
ATOM      1  C   UNL     1      45.929   5.444  12.510  0.00  0.00    +0.000 A 
ATOM      2  C   UNL     1      45.395   6.701  12.199  0.00  0.00    +0.000 A 
ATOM      3  C   UNL     1      46.018   7.870  12.650  0.00  0.00    +0.000 A 
ATOM      4  C   UNL     1      47.197   7.815  13.412  0.00  0.00    +0.000 A 
ATOM      5  C   UNL     1      47.715   6.557  13.742  0.00  0.00    +0.000 A 
ATOM      6  C   UNL     1      47.091   5.386  13.297  0.00  0.00    +0.000 A 
ENDROOT
BRANCH   1   7
ATOM      7  C   UNL     1      45.266   4.177  12.002  0.00  0.00    +0.000 C 
BRANCH   7   9
ATOM      8  C   UNL     1      43.419   4.866  10.637  0.00  0.00    +0.000 C 
ATOM      9  N   UNL     1      44.752   4.251  10.622  0.00  0.00    +0.000 NA
BRANCH   9  10
ATOM     10  C   UNL     1      44.690   2.904   9.988  0.00  0.00    +0.000 C 
BRANCH  10  11
ATOM     11  C   UNL     1      45.574   2.709   8.757  0.00  0.00    +0.000 A 
ATOM     12  N   UNL     1      46.079   1.480   8.517  0.00  0.00    +0.000 NA
ATOM     13  C   UNL     1      46.924   1.367   7.478  0.00  0.00    +0.000 A 
ATOM     14  C   UNL     1      47.273   2.417   6.665  0.00  0.00    +0.000 A 
ATOM     15  C   UNL     1      46.691   3.623   6.974  0.00  0.00    +0.000 A 
ATOM     16  N   UNL     1      45.850   3.802   8.009  0.00  0.00    +0.000 NA
ENDBRANCH  10  11
ENDBRANCH   9  10
ENDBRANCH   7   9
ENDBRANCH   1   7
BRANCH   4  17
ATOM     17  C   UNL     1      47.928   9.087  13.794  0.00  0.00    +0.000 C 
BRANCH  17  18
ATOM     18  N   UNL     1      48.985   9.558  12.892  0.00  0.00    +0.000 N 
ATOM     19  C   UNL     1      48.606  10.067  11.579  0.00  0.00    +0.000 C 
ATOM     20  C   UNL     1      50.302   9.201  13.251  0.00  0.00    +0.000 C 
ATOM     21  O   UNL     1      50.532   8.596  14.292  0.00  0.00    +0.000 OA
BRANCH  20  22
ATOM     22  C   UNL     1      51.422   9.603  12.385  0.00  0.00    +0.000 A 
ATOM     23  C   UNL     1      52.239  10.696  12.633  0.00  0.00    +0.000 A 
ATOM     24  S   UNL     1      53.483  10.894  11.482  0.00  0.00    +0.000 S 
ATOM     25  C   UNL     1      53.059   9.448  10.694  0.00  0.00    +0.000 A 
ATOM     26  N   UNL     1      53.799   8.977   9.655  0.00  0.00    +0.000 NA
ATOM     27  C   UNL     1      53.404   7.835   9.201  0.00  0.00    +0.000 A 
ATOM     28  N   UNL     1      52.318   7.139   9.668  0.00  0.00    +0.000 N 
ATOM     29  C   UNL     1      51.462   7.640  10.627  0.00  0.00    +0.000 A 
ATOM     30  O   UNL     1      50.386   7.098  10.850  0.00  0.00    +0.000 OA
ATOM     31  C   UNL     1      51.932   8.868  11.248  0.00  0.00    +0.000 A 
ATOM     32  H   UNL     1      52.027   6.280   9.227  0.00  0.00    +0.000 HD
ENDBRANCH  20  22
ENDBRANCH  17  18
ENDBRANCH   4  17
TORSDOF 7
ENDMDL
MODEL 8
REMARK VINA RESULT:    -5.695      3.383      9.148
REMARK INTER + INTRA:          -9.148
REMARK INTER:                  -8.178
REMARK INTRA:                  -0.970
REMARK UNBOUND:                -1.123
REMARK  Name = 
REMARK  9 active torsions:
REMARK  status: ('A' for Active; 'I' for Inactive)
REMARK    1  A    between atoms: C_1  and  N_2
REMARK    2  A    between atoms: N_2  and  C_3
REMARK    3  A    between atoms: N_2  and  C_25
REMARK    4  A    between atoms: C_3  and  C_4
REMARK    5  A    between atoms: C_7  and  C_8
REMARK    6  A    between atoms: C_8  and  N_9
REMARK    7  A    between atoms: N_9  and  C_10
REMARK    8  A    between atoms: C_11  and  C_13
REMARK    9  A    between atoms: C_25  and  C_26
REMARK                            x       y       z     vdW  Elec       q    Type
REMARK                         _______ _______ _______ _____ _____    ______ ____
ROOT
ATOM      1  C   UNL     1      50.265   8.152  16.589  0.00  0.00    +0.000 A 
ATOM      2  C   UNL     1      48.927   8.524  16.761  0.00  0.00    +0.000 A 
ATOM      3  C   UNL     1      48.040   8.514  15.679  0.00  0.00    +0.000 A 
ATOM      4  C   UNL     1      48.463   8.118  14.399  0.00  0.00    +0.000 A 
ATOM      5  C   UNL     1      49.808   7.770  14.224  0.00  0.00    +0.000 A 
ATOM      6  C   UNL     1      50.698   7.784  15.304  0.00  0.00    +0.000 A 
ENDROOT
BRANCH   1   7
ATOM      7  C   UNL     1      51.222   8.142  17.767  0.00  0.00    +0.000 C 
BRANCH   7   9
ATOM      8  C   UNL     1      51.739   7.450  20.005  0.00  0.00    +0.000 C 
ATOM      9  N   UNL     1      50.875   7.196  18.845  0.00  0.00    +0.000 NA
BRANCH   9  10
ATOM     10  C   UNL     1      51.018   5.782  18.397  0.00  0.00    +0.000 C 
BRANCH  10  11
ATOM     11  C   UNL     1      49.713   5.051  18.083  0.00  0.00    +0.000 A 
ATOM     12  N   UNL     1      49.760   3.972  17.273  0.00  0.00    +0.000 NA
ATOM     13  C   UNL     1      48.584   3.410  16.946  0.00  0.00    +0.000 A 
ATOM     14  C   UNL     1      47.371   3.867  17.401  0.00  0.00    +0.000 A 
ATOM     15  C   UNL     1      47.425   4.956  18.238  0.00  0.00    +0.000 A 
ATOM     16  N   UNL     1      48.571   5.570  18.590  0.00  0.00    +0.000 NA
ENDBRANCH  10  11
ENDBRANCH   9  10
ENDBRANCH   7   9
ENDBRANCH   1   7
BRANCH   4  17
ATOM     17  C   UNL     1      47.470   7.996  13.262  0.00  0.00    +0.000 C 
BRANCH  17  18
ATOM     18  N   UNL     1      46.883   6.674  13.013  0.00  0.00    +0.000 N 
ATOM     19  C   UNL     1      47.707   5.492  13.240  0.00  0.00    +0.000 C 
ATOM     20  C   UNL     1      45.673   6.667  12.288  0.00  0.00    +0.000 C 
ATOM     21  O   UNL     1      45.125   7.713  11.959  0.00  0.00    +0.000 OA
BRANCH  20  22
ATOM     22  C   UNL     1      45.032   5.382  11.964  0.00  0.00    +0.000 A 
ATOM     23  C   UNL     1      44.230   4.672  12.846  0.00  0.00    +0.000 A 
ATOM     24  S   UNL     1      43.587   3.238  12.182  0.00  0.00    +0.000 S 
ATOM     25  C   UNL     1      44.243   3.587  10.652  0.00  0.00    +0.000 A 
ATOM     26  N   UNL     1      43.985   2.787   9.583  0.00  0.00    +0.000 NA
ATOM     27  C   UNL     1      44.488   3.212   8.472  0.00  0.00    +0.000 A 
ATOM     28  N   UNL     1      45.251   4.344   8.341  0.00  0.00    +0.000 N 
ATOM     29  C   UNL     1      45.650   5.110   9.417  0.00  0.00    +0.000 A 
ATOM     30  O   UNL     1      46.513   5.970   9.288  0.00  0.00    +0.000 OA
ATOM     31  C   UNL     1      45.013   4.736  10.669  0.00  0.00    +0.000 A 
ATOM     32  H   UNL     1      45.666   4.586   7.454  0.00  0.00    +0.000 HD
ENDBRANCH  20  22
ENDBRANCH  17  18
ENDBRANCH   4  17
TORSDOF 7
ENDMDL
MODEL 9
REMARK VINA RESULT:    -5.425      4.391      6.370
REMARK INTER + INTRA:          -8.767
REMARK INTER:                  -7.855
REMARK INTRA:                  -0.912
REMARK UNBOUND:                -1.123
REMARK  Name = 
REMARK  9 active torsions:
REMARK  status: ('A' for Active; 'I' for Inactive)
REMARK    1  A    between atoms: C_1  and  N_2
REMARK    2  A    between atoms: N_2  and  C_3
REMARK    3  A    between atoms: N_2  and  C_25
REMARK    4  A    between atoms: C_3  and  C_4
REMARK    5  A    between atoms: C_7  and  C_8
REMARK    6  A    between atoms: C_8  and  N_9
REMARK    7  A    between atoms: N_9  and  C_10
REMARK    8  A    between atoms: C_11  and  C_13
REMARK    9  A    between atoms: C_25  and  C_26
REMARK                            x       y       z     vdW  Elec       q    Type
REMARK                         _______ _______ _______ _____ _____    ______ ____
ROOT
ATOM      1  C   UNL     1      46.289   5.567  12.567  0.00  0.00    +0.000 A 
ATOM      2  C   UNL     1      47.188   5.527  13.640  0.00  0.00    +0.000 A 
ATOM      3  C   UNL     1      48.030   6.612  13.905  0.00  0.00    +0.000 A 
ATOM      4  C   UNL     1      47.988   7.772  13.114  0.00  0.00    +0.000 A 
ATOM      5  C   UNL     1      47.106   7.801  12.027  0.00  0.00    +0.000 A 
ATOM      6  C   UNL     1      46.266   6.714  11.756  0.00  0.00    +0.000 A 
ENDROOT
BRANCH   1   7
ATOM      7  C   UNL     1      45.360   4.399  12.293  0.00  0.00    +0.000 C 
BRANCH   7   9
ATOM      8  C   UNL     1      43.127   4.937  12.982  0.00  0.00    +0.000 C 
ATOM      9  N   UNL     1      44.012   4.770  11.823  0.00  0.00    +0.000 NA
BRANCH   9  10
ATOM     10  C   UNL     1      43.457   3.747  10.894  0.00  0.00    +0.000 C 
BRANCH  10  11
ATOM     11  C   UNL     1      44.365   3.340   9.734  0.00  0.00    +0.000 A 
ATOM     12  N   UNL     1      44.711   2.040   9.615  0.00  0.00    +0.000 NA
ATOM     13  C   UNL     1      45.583   1.735   8.639  0.00  0.00    +0.000 A 
ATOM     14  C   UNL     1      46.111   2.663   7.774  0.00  0.00    +0.000 A 
ATOM     15  C   UNL     1      45.683   3.955   7.959  0.00  0.00    +0.000 A 
ATOM     16  N   UNL     1      44.823   4.324   8.927  0.00  0.00    +0.000 NA
ENDBRANCH  10  11
ENDBRANCH   9  10
ENDBRANCH   7   9
ENDBRANCH   1   7
BRANCH   4  17
ATOM     17  C   UNL     1      48.817   8.986  13.480  0.00  0.00    +0.000 C 
BRANCH  17  18
ATOM     18  N   UNL     1      50.000   9.271  12.660  0.00  0.00    +0.000 N 
ATOM     19  C   UNL     1      49.807   9.853  11.337  0.00  0.00    +0.000 C 
ATOM     20  C   UNL     1      51.205   8.682  13.096  0.00  0.00    +0.000 C 
ATOM     21  O   UNL     1      51.254   8.035  14.137  0.00  0.00    +0.000 OA
BRANCH  20  22
ATOM     22  C   UNL     1      52.435   8.888  12.314  0.00  0.00    +0.000 A 
ATOM     23  C   UNL     1      52.931   7.975  11.395  0.00  0.00    +0.000 A 
ATOM     24  S   UNL     1      54.349   8.502  10.606  0.00  0.00    +0.000 S 
ATOM     25  C   UNL     1      54.270  10.024  11.361  0.00  0.00    +0.000 A 
ATOM     26  N   UNL     1      55.159  11.004  11.048  0.00  0.00    +0.000 NA
ATOM     27  C   UNL     1      54.936  12.128  11.644  0.00  0.00    +0.000 A 
ATOM     28  N   UNL     1      53.928  12.348  12.547  0.00  0.00    +0.000 N 
ATOM     29  C   UNL     1      53.088  11.349  12.995  0.00  0.00    +0.000 A 
ATOM     30  O   UNL     1      52.359  11.530  13.962  0.00  0.00    +0.000 OA
ATOM     31  C   UNL     1      53.228  10.098  12.267  0.00  0.00    +0.000 A 
ATOM     32  H   UNL     1      53.847  13.234  13.024  0.00  0.00    +0.000 HD
ENDBRANCH  20  22
ENDBRANCH  17  18
ENDBRANCH   4  17
TORSDOF 7
ENDMDL
