MODEL 1
REMARK VINA RESULT:    -6.993      0.000      0.000
REMARK INTER + INTRA:          -9.338
REMARK INTER:                  -8.628
REMARK INTRA:                  -0.710
REMARK UNBOUND:                -0.710
REMARK  Name = 
REMARK  4 active torsions:
REMARK  status: ('A' for Active; 'I' for Inactive)
REMARK    1  A    between atoms: C_2  and  C_4
REMARK    2  A    between atoms: C_8  and  C_9
REMARK    3  A    between atoms: C_10  and  C_11
REMARK    4  A    between atoms: C_16  and  N_17
REMARK                            x       y       z     vdW  Elec       q    Type
REMARK                         _______ _______ _______ _____ _____    ______ ____
ROOT
ATOM      1  C   UNL     1      46.632   5.362  14.148  0.00  0.00    +0.000 C 
ATOM      2  C   UNL     1      46.124   4.287  13.525  0.00  0.00    +0.000 C 
ENDROOT
BRANCH   2   3
ATOM      3  C   UNL     1      45.071   4.346  12.497  0.00  0.00    +0.000 A 
ATOM      4  C   UNL     1      43.877   5.042  12.680  0.00  0.00    +0.000 A 
ATOM      5  C   UNL     1      42.959   5.114  11.642  0.00  0.00    +0.000 A 
ATOM      6  F   UNL     1      41.812   5.780  11.829  0.00  0.00    +0.000 F 
ATOM      7  C   UNL     1      43.208   4.514  10.410  0.00  0.00    +0.000 A 
ATOM      8  C   UNL     1      44.392   3.807  10.182  0.00  0.00    +0.000 A 
ATOM      9  C   UNL     1      45.311   3.746  11.248  0.00  0.00    +0.000 A 
BRANCH   8  10
ATOM     10  N   UNL     1      44.675   3.208   8.968  0.00  0.00    +0.000 N 
ATOM     11  C   UNL     1      44.785   1.755   8.816  0.00  0.00    +0.000 C 
ATOM     12  C   UNL     1      46.212   1.368   8.434  0.00  0.00    +0.000 C 
ATOM     13  C   UNL     1      46.692   2.153   7.215  0.00  0.00    +0.000 C 
ATOM     14  C   UNL     1      46.529   3.655   7.434  0.00  0.00    +0.000 C 
ATOM     15  C   UNL     1      45.091   4.010   7.815  0.00  0.00    +0.000 C 
ENDBRANCH   8  10
ENDBRANCH   2   3
BRANCH   1  20
ATOM     16  C   UNL     1      48.878   4.347  17.029  0.00  0.00    +0.000 A 
ATOM     17  C   UNL     1      49.733   5.440  17.008  0.00  0.00    +0.000 A 
ATOM     18  N   UNL     1      49.641   6.447  16.107  0.00  0.00    +0.000 NA
ATOM     19  C   UNL     1      48.636   6.359  15.204  0.00  0.00    +0.000 A 
ATOM     20  C   UNL     1      47.711   5.316  15.145  0.00  0.00    +0.000 A 
ATOM     21  C   UNL     1      47.838   4.296  16.094  0.00  0.00    +0.000 A 
BRANCH  16  23
ATOM     22  N   UNL     1      48.467   3.469  19.252  0.00  0.00    +0.000 N 
ATOM     23  C   UNL     1      49.086   3.299  18.046  0.00  0.00    +0.000 C 
ATOM     24  O   UNL     1      49.748   2.296  17.807  0.00  0.00    +0.000 OA
ATOM     25  H   UNL     1      48.522   2.688  19.896  0.00  0.00    +0.000 HD
ATOM     26  H   UNL     1      47.716   4.130  19.389  0.00  0.00    +0.000 HD
ENDBRANCH  16  23
ENDBRANCH   1  20
TORSDOF 4
ENDMDL
MODEL 2
REMARK VINA RESULT:    -6.781      3.797      9.255
REMARK INTER + INTRA:          -9.077
REMARK INTER:                  -8.383
REMARK INTRA:                  -0.694
REMARK UNBOUND:                -0.710
REMARK  Name = 
REMARK  4 active torsions:
REMARK  status: ('A' for Active; 'I' for Inactive)
REMARK    1  A    between atoms: C_2  and  C_4
REMARK    2  A    between atoms: C_8  and  C_9
REMARK    3  A    between atoms: C_10  and  C_11
REMARK    4  A    between atoms: C_16  and  N_17
REMARK                            x       y       z     vdW  Elec       q    Type
REMARK                         _______ _______ _______ _____ _____    ______ ____
ROOT
ATOM      1  C   UNL     1      47.066   4.984  14.180  0.00  0.00    +0.000 C 
ATOM      2  C   UNL     1      46.753   4.283  15.282  0.00  0.00    +0.000 C 
ENDROOT
BRANCH   2   3
ATOM      3  C   UNL     1      47.711   3.941  16.346  0.00  0.00    +0.000 A 
ATOM      4  C   UNL     1      48.549   2.828  16.277  0.00  0.00    +0.000 A 
ATOM      5  C   UNL     1      49.477   2.605  17.285  0.00  0.00    +0.000 A 
ATOM      6  F   UNL     1      50.273   1.531  17.213  0.00  0.00    +0.000 F 
ATOM      7  C   UNL     1      49.602   3.478  18.363  0.00  0.00    +0.000 A 
ATOM      8  C   UNL     1      48.784   4.606  18.472  0.00  0.00    +0.000 A 
ATOM      9  C   UNL     1      47.848   4.815  17.440  0.00  0.00    +0.000 A 
BRANCH   8  10
ATOM     10  N   UNL     1      48.888   5.498  19.524  0.00  0.00    +0.000 N 
ATOM     11  C   UNL     1      48.773   5.078  20.923  0.00  0.00    +0.000 C 
ATOM     12  C   UNL     1      47.534   5.700  21.563  0.00  0.00    +0.000 C 
ATOM     13  C   UNL     1      47.511   7.215  21.370  0.00  0.00    +0.000 C 
ATOM     14  C   UNL     1      47.657   7.580  19.895  0.00  0.00    +0.000 C 
ATOM     15  C   UNL     1      48.905   6.943  19.284  0.00  0.00    +0.000 C 
ENDBRANCH   8  10
ENDBRANCH   2   3
BRANCH   1  20
ATOM     16  C   UNL     1      44.650   4.901  11.260  0.00  0.00    +0.000 A 
ATOM     17  C   UNL     1      44.409   6.264  11.163  0.00  0.00    +0.000 A 
ATOM     18  N   UNL     1      44.951   7.182  11.998  0.00  0.00    +0.000 NA
ATOM     19  C   UNL     1      45.783   6.710  12.956  0.00  0.00    +0.000 A 
ATOM     20  C   UNL     1      46.107   5.364  13.133  0.00  0.00    +0.000 A 
ATOM     21  C   UNL     1      45.529   4.448  12.249  0.00  0.00    +0.000 A 
BRANCH  16  23
ATOM     22  N   UNL     1      43.955   4.377   8.996  0.00  0.00    +0.000 N 
ATOM     23  C   UNL     1      43.988   3.990  10.306  0.00  0.00    +0.000 C 
ATOM     24  O   UNL     1      43.527   2.913  10.663  0.00  0.00    +0.000 OA
ATOM     25  H   UNL     1      43.603   3.691   8.337  0.00  0.00    +0.000 HD
ATOM     26  H   UNL     1      44.546   5.110   8.631  0.00  0.00    +0.000 HD
ENDBRANCH  16  23
ENDBRANCH   1  20
TORSDOF 4
ENDMDL
MODEL 3
REMARK VINA RESULT:    -6.502      4.265      4.724
REMARK INTER + INTRA:          -8.733
REMARK INTER:                  -7.962
REMARK INTRA:                  -0.770
REMARK UNBOUND:                -0.710
REMARK  Name = 
REMARK  4 active torsions:
REMARK  status: ('A' for Active; 'I' for Inactive)
REMARK    1  A    between atoms: C_2  and  C_4
REMARK    2  A    between atoms: C_8  and  C_9
REMARK    3  A    between atoms: C_10  and  C_11
REMARK    4  A    between atoms: C_16  and  N_17
REMARK                            x       y       z     vdW  Elec       q    Type
REMARK                         _______ _______ _______ _____ _____    ______ ____
ROOT
ATOM      1  C   UNL     1      47.790   7.036  11.697  0.00  0.00    +0.000 C 
ATOM      2  C   UNL     1      46.555   7.057  12.224  0.00  0.00    +0.000 C 
ENDROOT
BRANCH   2   3
ATOM      3  C   UNL     1      45.545   6.007  12.011  0.00  0.00    +0.000 A 
ATOM      4  C   UNL     1      44.518   5.754  12.920  0.00  0.00    +0.000 A 
ATOM      5  C   UNL     1      43.559   4.796  12.621  0.00  0.00    +0.000 A 
ATOM      6  F   UNL     1      42.580   4.555  13.502  0.00  0.00    +0.000 F 
ATOM      7  C   UNL     1      43.591   4.086  11.423  0.00  0.00    +0.000 A 
ATOM      8  C   UNL     1      44.601   4.309  10.483  0.00  0.00    +0.000 A 
ATOM      9  C   UNL     1      45.564   5.284  10.805  0.00  0.00    +0.000 A 
BRANCH   8  10
ATOM     10  N   UNL     1      44.656   3.628   9.280  0.00  0.00    +0.000 N 
ATOM     11  C   UNL     1      44.521   2.172   9.195  0.00  0.00    +0.000 C 
ATOM     12  C   UNL     1      45.821   1.546   8.695  0.00  0.00    +0.000 C 
ATOM     13  C   UNL     1      46.286   2.200   7.394  0.00  0.00    +0.000 C 
ATOM     14  C   UNL     1      46.384   3.715   7.549  0.00  0.00    +0.000 C 
ATOM     15  C   UNL     1      45.069   4.311   8.051  0.00  0.00    +0.000 C 
ENDBRANCH   8  10
ENDBRANCH   2   3
BRANCH   1  20
ATOM     16  C   UNL     1      49.596  10.193  12.766  0.00  0.00    +0.000 A 
ATOM     17  C   UNL     1      50.836   9.910  12.212  0.00  0.00    +0.000 A 
ATOM     18  N   UNL     1      51.118   8.759  11.554  0.00  0.00    +0.000 NA
ATOM     19  C   UNL     1      50.105   7.869  11.435  0.00  0.00    +0.000 A 
ATOM     20  C   UNL     1      48.818   8.058  11.938  0.00  0.00    +0.000 A 
ATOM     21  C   UNL     1      48.566   9.259  12.609  0.00  0.00    +0.000 A 
BRANCH  16  23
ATOM     22  N   UNL     1      48.450  11.508  14.451  0.00  0.00    +0.000 N 
ATOM     23  C   UNL     1      49.408  11.472  13.478  0.00  0.00    +0.000 C 
ATOM     24  O   UNL     1      50.110  12.447  13.239  0.00  0.00    +0.000 OA
ATOM     25  H   UNL     1      48.413  12.354  15.009  0.00  0.00    +0.000 HD
ATOM     26  H   UNL     1      48.048  10.672  14.850  0.00  0.00    +0.000 HD
ENDBRANCH  16  23
ENDBRANCH   1  20
TORSDOF 4
ENDMDL
MODEL 4
REMARK VINA RESULT:    -6.406      3.557      8.652
REMARK INTER + INTRA:          -8.614
REMARK INTER:                  -7.843
REMARK INTRA:                  -0.771
REMARK UNBOUND:                -0.710
REMARK  Name = 
REMARK  4 active torsions:
REMARK  status: ('A' for Active; 'I' for Inactive)
REMARK    1  A    between atoms: C_2  and  C_4
REMARK    2  A    between atoms: C_8  and  C_9
REMARK    3  A    between atoms: C_10  and  C_11
REMARK    4  A    between atoms: C_16  and  N_17
REMARK                            x       y       z     vdW  Elec       q    Type
REMARK                         _______ _______ _______ _____ _____    ______ ____
ROOT
ATOM      1  C   UNL     1      47.003   5.159  14.131  0.00  0.00    +0.000 C 
ATOM      2  C   UNL     1      46.950   4.270  15.135  0.00  0.00    +0.000 C 
ENDROOT
BRANCH   2   3
ATOM      3  C   UNL     1      47.732   4.377  16.379  0.00  0.00    +0.000 A 
ATOM      4  C   UNL     1      47.588   3.484  17.439  0.00  0.00    +0.000 A 
ATOM      5  C   UNL     1      48.408   3.604  18.553  0.00  0.00    +0.000 A 
ATOM      6  F   UNL     1      48.259   2.744  19.569  0.00  0.00    +0.000 F 
ATOM      7  C   UNL     1      49.385   4.592  18.631  0.00  0.00    +0.000 A 
ATOM      8  C   UNL     1      49.566   5.509  17.591  0.00  0.00    +0.000 A 
ATOM      9  C   UNL     1      48.724   5.371  16.470  0.00  0.00    +0.000 A 
BRANCH   8  10
ATOM     10  N   UNL     1      50.532   6.497  17.634  0.00  0.00    +0.000 N 
ATOM     11  C   UNL     1      50.399   7.690  18.473  0.00  0.00    +0.000 C 
ATOM     12  C   UNL     1      50.296   8.941  17.603  0.00  0.00    +0.000 C 
ATOM     13  C   UNL     1      51.447   9.017  16.601  0.00  0.00    +0.000 C 
ATOM     14  C   UNL     1      51.539   7.735  15.779  0.00  0.00    +0.000 C 
ATOM     15  C   UNL     1      51.641   6.502  16.676  0.00  0.00    +0.000 C 
ENDBRANCH   8  10
ENDBRANCH   2   3
BRANCH   1  20
ATOM     16  C   UNL     1      44.752   3.946  11.331  0.00  0.00    +0.000 A 
ATOM     17  C   UNL     1      44.820   5.070  10.521  0.00  0.00    +0.000 A 
ATOM     18  N   UNL     1      45.514   6.187  10.845  0.00  0.00    +0.000 NA
ATOM     19  C   UNL     1      46.181   6.162  12.023  0.00  0.00    +0.000 A 
ATOM     20  C   UNL     1      46.196   5.081  12.905  0.00  0.00    +0.000 A 
ATOM     21  C   UNL     1      45.468   3.946  12.533  0.00  0.00    +0.000 A 
BRANCH  16  23
ATOM     22  N   UNL     1      44.414   2.084   9.814  0.00  0.00    +0.000 N 
ATOM     23  C   UNL     1      43.948   2.792  10.885  0.00  0.00    +0.000 C 
ATOM     24  O   UNL     1      42.928   2.455  11.474  0.00  0.00    +0.000 OA
ATOM     25  H   UNL     1      43.917   1.229   9.593  0.00  0.00    +0.000 HD
ATOM     26  H   UNL     1      45.364   2.167   9.480  0.00  0.00    +0.000 HD
ENDBRANCH  16  23
ENDBRANCH   1  20
TORSDOF 4
ENDMDL
MODEL 5
REMARK VINA RESULT:    -6.319      3.911      9.393
REMARK INTER + INTRA:          -8.506
REMARK INTER:                  -7.788
REMARK INTRA:                  -0.718
REMARK UNBOUND:                -0.710
REMARK  Name = 
REMARK  4 active torsions:
REMARK  status: ('A' for Active; 'I' for Inactive)
REMARK    1  A    between atoms: C_2  and  C_4
REMARK    2  A    between atoms: C_8  and  C_9
REMARK    3  A    between atoms: C_10  and  C_11
REMARK    4  A    between atoms: C_16  and  N_17
REMARK                            x       y       z     vdW  Elec       q    Type
REMARK                         _______ _______ _______ _____ _____    ______ ____
ROOT
ATOM      1  C   UNL     1      46.772   3.953  14.185  0.00  0.00    +0.000 C 
ATOM      2  C   UNL     1      46.958   4.615  15.338  0.00  0.00    +0.000 C 
ENDROOT
BRANCH   2   3
ATOM      3  C   UNL     1      47.835   4.154  16.427  0.00  0.00    +0.000 A 
ATOM      4  C   UNL     1      48.624   3.008  16.325  0.00  0.00    +0.000 A 
ATOM      5  C   UNL     1      49.480   2.671  17.365  0.00  0.00    +0.000 A 
ATOM      6  F   UNL     1      50.230   1.566  17.260  0.00  0.00    +0.000 F 
ATOM      7  C   UNL     1      49.580   3.460  18.507  0.00  0.00    +0.000 A 
ATOM      8  C   UNL     1      48.809   4.618  18.651  0.00  0.00    +0.000 A 
ATOM      9  C   UNL     1      47.947   4.942  17.587  0.00  0.00    +0.000 A 
BRANCH   8  10
ATOM     10  N   UNL     1      48.892   5.428  19.769  0.00  0.00    +0.000 N 
ATOM     11  C   UNL     1      48.549   4.951  21.112  0.00  0.00    +0.000 C 
ATOM     12  C   UNL     1      47.328   5.697  21.644  0.00  0.00    +0.000 C 
ATOM     13  C   UNL     1      47.521   7.210  21.557  0.00  0.00    +0.000 C 
ATOM     14  C   UNL     1      47.895   7.632  20.139  0.00  0.00    +0.000 C 
ATOM     15  C   UNL     1      49.120   6.869  19.635  0.00  0.00    +0.000 C 
ENDBRANCH   8  10
ENDBRANCH   2   3
BRANCH   1  20
ATOM     16  C   UNL     1      44.816   6.139  11.784  0.00  0.00    +0.000 A 
ATOM     17  C   UNL     1      44.249   5.132  11.016  0.00  0.00    +0.000 A 
ATOM     18  N   UNL     1      44.491   3.814  11.211  0.00  0.00    +0.000 NA
ATOM     19  C   UNL     1      45.321   3.498  12.233  0.00  0.00    +0.000 A 
ATOM     20  C   UNL     1      45.931   4.426  13.077  0.00  0.00    +0.000 A 
ATOM     21  C   UNL     1      45.654   5.777  12.844  0.00  0.00    +0.000 A 
BRANCH  16  23
ATOM     22  N   UNL     1      43.237   7.807  11.005  0.00  0.00    +0.000 N 
ATOM     23  C   UNL     1      44.495   7.544  11.467  0.00  0.00    +0.000 C 
ATOM     24  O   UNL     1      45.306   8.444  11.651  0.00  0.00    +0.000 OA
ATOM     25  H   UNL     1      42.994   8.786  10.903  0.00  0.00    +0.000 HD
ATOM     26  H   UNL     1      42.476   7.148  11.094  0.00  0.00    +0.000 HD
ENDBRANCH  16  23
ENDBRANCH   1  20
TORSDOF 4
ENDMDL
MODEL 6
REMARK VINA RESULT:    -6.132      3.632      8.792
REMARK INTER + INTRA:          -8.275
REMARK INTER:                  -7.515
REMARK INTRA:                  -0.760
REMARK UNBOUND:                -0.710
REMARK  Name = 
REMARK  4 active torsions:
REMARK  status: ('A' for Active; 'I' for Inactive)
REMARK    1  A    between atoms: C_2  and  C_4
REMARK    2  A    between atoms: C_8  and  C_9
REMARK    3  A    between atoms: C_10  and  C_11
REMARK    4  A    between atoms: C_16  and  N_17
REMARK                            x       y       z     vdW  Elec       q    Type
REMARK                         _______ _______ _______ _____ _____    ______ ____
ROOT
ATOM      1  C   UNL     1      46.338   5.663  13.418  0.00  0.00    +0.000 C 
ATOM      2  C   UNL     1      47.429   6.296  12.958  0.00  0.00    +0.000 C 
ENDROOT
BRANCH   2   3
ATOM      3  C   UNL     1      48.538   6.761  13.808  0.00  0.00    +0.000 A 
ATOM      4  C   UNL     1      49.603   7.513  13.313  0.00  0.00    +0.000 A 
ATOM      5  C   UNL     1      50.578   7.977  14.185  0.00  0.00    +0.000 A 
ATOM      6  F   UNL     1      51.600   8.693  13.700  0.00  0.00    +0.000 F 
ATOM      7  C   UNL     1      50.512   7.719  15.552  0.00  0.00    +0.000 A 
ATOM      8  C   UNL     1      49.461   6.970  16.092  0.00  0.00    +0.000 A 
ATOM      9  C   UNL     1      48.482   6.508  15.191  0.00  0.00    +0.000 A 
BRANCH   8  10
ATOM     10  N   UNL     1      49.360   6.704  17.445  0.00  0.00    +0.000 N 
ATOM     11  C   UNL     1      49.282   5.339  17.973  0.00  0.00    +0.000 C 
ATOM     12  C   UNL     1      47.928   5.105  18.638  0.00  0.00    +0.000 C 
ATOM     13  C   UNL     1      47.624   6.185  19.674  0.00  0.00    +0.000 C 
ATOM     14  C   UNL     1      47.745   7.578  19.062  0.00  0.00    +0.000 C 
ATOM     15  C   UNL     1      49.110   7.782  18.405  0.00  0.00    +0.000 C 
ENDBRANCH   8  10
ENDBRANCH   2   3
BRANCH   1  20
ATOM     16  C   UNL     1      44.360   4.034  10.624  0.00  0.00    +0.000 A 
ATOM     17  C   UNL     1      43.087   4.380  11.054  0.00  0.00    +0.000 A 
ATOM     18  N   UNL     1      42.843   5.069  12.195  0.00  0.00    +0.000 NA
ATOM     19  C   UNL     1      43.924   5.440  12.919  0.00  0.00    +0.000 A 
ATOM     20  C   UNL     1      45.247   5.160  12.572  0.00  0.00    +0.000 A 
ATOM     21  C   UNL     1      45.457   4.449  11.387  0.00  0.00    +0.000 A 
BRANCH  16  23
ATOM     22  N   UNL     1      44.566   1.903   9.484  0.00  0.00    +0.000 N 
ATOM     23  C   UNL     1      44.505   3.264   9.374  0.00  0.00    +0.000 C 
ATOM     24  O   UNL     1      44.527   3.815   8.281  0.00  0.00    +0.000 OA
ATOM     25  H   UNL     1      44.548   1.384   8.613  0.00  0.00    +0.000 HD
ATOM     26  H   UNL     1      44.288   1.413  10.322  0.00  0.00    +0.000 HD
ENDBRANCH  16  23
ENDBRANCH   1  20
TORSDOF 4
ENDMDL
MODEL 7
REMARK VINA RESULT:    -6.112      3.703      8.690
REMARK INTER + INTRA:          -8.250
REMARK INTER:                  -7.564
REMARK INTRA:                  -0.686
REMARK UNBOUND:                -0.710
REMARK  Name = 
REMARK  4 active torsions:
REMARK  status: ('A' for Active; 'I' for Inactive)
REMARK    1  A    between atoms: C_2  and  C_4
REMARK    2  A    between atoms: C_8  and  C_9
REMARK    3  A    between atoms: C_10  and  C_11
REMARK    4  A    between atoms: C_16  and  N_17
REMARK                            x       y       z     vdW  Elec       q    Type
REMARK                         _______ _______ _______ _____ _____    ______ ____
ROOT
ATOM      1  C   UNL     1      47.056   4.870  14.534  0.00  0.00    +0.000 C 
ATOM      2  C   UNL     1      46.791   4.368  15.751  0.00  0.00    +0.000 C 
ENDROOT
BRANCH   2   3
ATOM      3  C   UNL     1      47.755   4.341  16.864  0.00  0.00    +0.000 A 
ATOM      4  C   UNL     1      47.434   4.778  18.149  0.00  0.00    +0.000 A 
ATOM      5  C   UNL     1      48.370   4.658  19.167  0.00  0.00    +0.000 A 
ATOM      6  F   UNL     1      48.056   5.085  20.397  0.00  0.00    +0.000 F 
ATOM      7  C   UNL     1      49.624   4.099  18.937  0.00  0.00    +0.000 A 
ATOM      8  C   UNL     1      49.988   3.647  17.665  0.00  0.00    +0.000 A 
ATOM      9  C   UNL     1      49.025   3.777  16.646  0.00  0.00    +0.000 A 
BRANCH   8  10
ATOM     10  N   UNL     1      51.222   3.078  17.406  0.00  0.00    +0.000 N 
ATOM     11  C   UNL     1      51.366   1.704  16.918  0.00  0.00    +0.000 C 
ATOM     12  C   UNL     1      52.080   0.844  17.959  0.00  0.00    +0.000 C 
ATOM     13  C   UNL     1      53.395   1.484  18.400  0.00  0.00    +0.000 C 
ATOM     14  C   UNL     1      53.173   2.917  18.874  0.00  0.00    +0.000 C 
ATOM     15  C   UNL     1      52.458   3.752  17.811  0.00  0.00    +0.000 C 
ENDBRANCH   8  10
ENDBRANCH   2   3
BRANCH   1  20
ATOM     16  C   UNL     1      44.624   3.962  11.772  0.00  0.00    +0.000 A 
ATOM     17  C   UNL     1      44.370   5.242  11.302  0.00  0.00    +0.000 A 
ATOM     18  N   UNL     1      44.908   6.360  11.845  0.00  0.00    +0.000 NA
ATOM     19  C   UNL     1      45.750   6.179  12.890  0.00  0.00    +0.000 A 
ATOM     20  C   UNL     1      46.088   4.938  13.431  0.00  0.00    +0.000 A 
ATOM     21  C   UNL     1      45.513   3.808  12.841  0.00  0.00    +0.000 A 
BRANCH  16  23
ATOM     22  N   UNL     1      44.587   2.285  10.020  0.00  0.00    +0.000 N 
ATOM     23  C   UNL     1      43.965   2.817  11.114  0.00  0.00    +0.000 C 
ATOM     24  O   UNL     1      42.928   2.335  11.553  0.00  0.00    +0.000 OA
ATOM     25  H   UNL     1      44.186   1.430   9.650  0.00  0.00    +0.000 HD
ATOM     26  H   UNL     1      45.552   2.479   9.796  0.00  0.00    +0.000 HD
ENDBRANCH  16  23
ENDBRANCH   1  20
TORSDOF 4
ENDMDL
MODEL 8
REMARK VINA RESULT:    -5.922      3.048      4.475
REMARK INTER + INTRA:          -8.017
REMARK INTER:                  -7.275
REMARK INTRA:                  -0.741
REMARK UNBOUND:                -0.710
REMARK  Name = 
REMARK  4 active torsions:
REMARK  status: ('A' for Active; 'I' for Inactive)
REMARK    1  A    between atoms: C_2  and  C_4
REMARK    2  A    between atoms: C_8  and  C_9
REMARK    3  A    between atoms: C_10  and  C_11
REMARK    4  A    between atoms: C_16  and  N_17
REMARK                            x       y       z     vdW  Elec       q    Type
REMARK                         _______ _______ _______ _____ _____    ______ ____
ROOT
ATOM      1  C   UNL     1      48.041   5.374  16.163  0.00  0.00    +0.000 C 
ATOM      2  C   UNL     1      48.424   6.416  15.409  0.00  0.00    +0.000 C 
ENDROOT
BRANCH   2   3
ATOM      3  C   UNL     1      48.019   6.619  14.008  0.00  0.00    +0.000 A 
ATOM      4  C   UNL     1      48.827   7.269  13.075  0.00  0.00    +0.000 A 
ATOM      5  C   UNL     1      48.411   7.363  11.755  0.00  0.00    +0.000 A 
ATOM      6  F   UNL     1      49.191   7.994  10.868  0.00  0.00    +0.000 F 
ATOM      7  C   UNL     1      47.205   6.809  11.333  0.00  0.00    +0.000 A 
ATOM      8  C   UNL     1      46.364   6.147  12.232  0.00  0.00    +0.000 A 
ATOM      9  C   UNL     1      46.804   6.063  13.568  0.00  0.00    +0.000 A 
BRANCH   8  10
ATOM     10  N   UNL     1      45.165   5.578  11.844  0.00  0.00    +0.000 N 
ATOM     11  C   UNL     1      44.016   5.473  12.748  0.00  0.00    +0.000 C 
ATOM     12  C   UNL     1      43.701   4.008  13.037  0.00  0.00    +0.000 C 
ATOM     13  C   UNL     1      43.544   3.208  11.744  0.00  0.00    +0.000 C 
ATOM     14  C   UNL     1      44.765   3.381  10.845  0.00  0.00    +0.000 C 
ATOM     15  C   UNL     1      45.054   4.857  10.573  0.00  0.00    +0.000 C 
ENDBRANCH   8  10
ENDBRANCH   2   3
BRANCH   1  20
ATOM     16  C   UNL     1      48.141   5.559  19.948  0.00  0.00    +0.000 A 
ATOM     17  C   UNL     1      49.293   4.813  20.153  0.00  0.00    +0.000 A 
ATOM     18  N   UNL     1      50.001   4.238  19.152  0.00  0.00    +0.000 NA
ATOM     19  C   UNL     1      49.542   4.440  17.894  0.00  0.00    +0.000 A 
ATOM     20  C   UNL     1      48.407   5.185  17.574  0.00  0.00    +0.000 A 
ATOM     21  C   UNL     1      47.704   5.764  18.635  0.00  0.00    +0.000 A 
BRANCH  16  23
ATOM     22  N   UNL     1      47.016   5.243  22.074  0.00  0.00    +0.000 N 
ATOM     23  C   UNL     1      47.439   6.122  21.117  0.00  0.00    +0.000 C 
ATOM     24  O   UNL     1      47.279   7.329  21.249  0.00  0.00    +0.000 OA
ATOM     25  H   UNL     1      46.642   5.652  22.922  0.00  0.00    +0.000 HD
ATOM     26  H   UNL     1      47.358   4.294  22.128  0.00  0.00    +0.000 HD
ENDBRANCH  16  23
ENDBRANCH   1  20
TORSDOF 4
ENDMDL
MODEL 9
REMARK VINA RESULT:    -5.830      6.338      9.110
REMARK INTER + INTRA:          -7.902
REMARK INTER:                  -7.162
REMARK INTRA:                  -0.741
REMARK UNBOUND:                -0.710
REMARK  Name = 
REMARK  4 active torsions:
REMARK  status: ('A' for Active; 'I' for Inactive)
REMARK    1  A    between atoms: C_2  and  C_4
REMARK    2  A    between atoms: C_8  and  C_9
REMARK    3  A    between atoms: C_10  and  C_11
REMARK    4  A    between atoms: C_16  and  N_17
REMARK                            x       y       z     vdW  Elec       q    Type
REMARK                         _______ _______ _______ _____ _____    ______ ____
ROOT
ATOM      1  C   UNL     1      42.868   9.507  10.663  0.00  0.00    +0.000 C 
ATOM      2  C   UNL     1      44.002   9.827  11.306  0.00  0.00    +0.000 C 
ENDROOT
BRANCH   2   3
ATOM      3  C   UNL     1      45.083   8.872  11.604  0.00  0.00    +0.000 A 
ATOM      4  C   UNL     1      46.313   9.266  12.131  0.00  0.00    +0.000 A 
ATOM      5  C   UNL     1      47.260   8.304  12.453  0.00  0.00    +0.000 A 
ATOM      6  F   UNL     1      48.440   8.692  12.953  0.00  0.00    +0.000 F 
ATOM      7  C   UNL     1      47.005   6.947  12.275  0.00  0.00    +0.000 A 
ATOM      8  C   UNL     1      45.786   6.507  11.752  0.00  0.00    +0.000 A 
ATOM      9  C   UNL     1      44.838   7.498  11.431  0.00  0.00    +0.000 A 
BRANCH   8  10
ATOM     10  N   UNL     1      45.498   5.166  11.571  0.00  0.00    +0.000 N 
ATOM     11  C   UNL     1      45.155   4.606  10.262  0.00  0.00    +0.000 C 
ATOM     12  C   UNL     1      43.717   4.095  10.263  0.00  0.00    +0.000 C 
ATOM     13  C   UNL     1      43.469   3.137  11.427  0.00  0.00    +0.000 C 
ATOM     14  C   UNL     1      43.867   3.777  12.754  0.00  0.00    +0.000 C 
ATOM     15  C   UNL     1      45.311   4.278  12.721  0.00  0.00    +0.000 C 
ENDBRANCH   8  10
ENDBRANCH   2   3
BRANCH   1  20
ATOM     16  C   UNL     1      39.522  11.263  10.361  0.00  0.00    +0.000 A 
ATOM     17  C   UNL     1      39.911  12.288   9.511  0.00  0.00    +0.000 A 
ATOM     18  N   UNL     1      41.181  12.454   9.069  0.00  0.00    +0.000 NA
ATOM     19  C   UNL     1      42.089  11.540   9.485  0.00  0.00    +0.000 A 
ATOM     20  C   UNL     1      41.803  10.462  10.324  0.00  0.00    +0.000 A 
ATOM     21  C   UNL     1      40.480  10.324  10.757  0.00  0.00    +0.000 A 
BRANCH  16  23
ATOM     22  N   UNL     1      37.534   9.956  10.833  0.00  0.00    +0.000 N 
ATOM     23  C   UNL     1      38.113  11.193  10.794  0.00  0.00    +0.000 C 
ATOM     24  O   UNL     1      37.499  12.193  11.145  0.00  0.00    +0.000 OA
ATOM     25  H   UNL     1      36.608   9.909  11.242  0.00  0.00    +0.000 HD
ATOM     26  H   UNL     1      38.074   9.102  10.810  0.00  0.00    +0.000 HD
ENDBRANCH  16  23
ENDBRANCH   1  20
TORSDOF 4
ENDMDL
