MODEL 1
REMARK VINA RESULT:    -8.449      0.000      0.000
REMARK INTER + INTRA:         -12.556
REMARK INTER:                 -11.412
REMARK INTRA:                  -1.144
REMARK UNBOUND:                -1.144
REMARK  Name = 
REMARK  6 active torsions:
REMARK  status: ('A' for Active; 'I' for Inactive)
REMARK    1  A    between atoms: C_2  and  C_4
REMARK    2  A    between atoms: C_7  and  C_8
REMARK    3  A    between atoms: C_8  and  N_9
REMARK    4  A    between atoms: C_16  and  C_17
REMARK    5  A    between atoms: C_17  and  N_18
REMARK    6  A    between atoms: C_19  and  C_21
REMARK                            x       y       z     vdW  Elec       q    Type
REMARK                         _______ _______ _______ _____ _____    ______ ____
ROOT
ATOM      1  C   UNL     1      43.985   4.927  10.999  0.00  0.00    +0.000 A 
ATOM      2  C   UNL     1      43.919   3.730  10.265  0.00  0.00    +0.000 A 
ATOM      3  C   UNL     1      44.791   3.497   9.201  0.00  0.00    +0.000 A 
ATOM      4  C   UNL     1      45.717   4.471   8.822  0.00  0.00    +0.000 A 
ATOM      5  C   UNL     1      45.799   5.656   9.568  0.00  0.00    +0.000 A 
ATOM      6  C   UNL     1      44.963   5.889  10.679  0.00  0.00    +0.000 A 
ENDROOT
BRANCH   1   8
ATOM      7  N   UNL     1      41.973   6.073  11.768  0.00  0.00    +0.000 N 
ATOM      8  C   UNL     1      42.961   5.172  12.056  0.00  0.00    +0.000 C 
ATOM      9  O   UNL     1      42.995   4.611  13.144  0.00  0.00    +0.000 OA
ATOM     10  H   UNL     1      41.273   6.241  12.477  0.00  0.00    +0.000 HD
ATOM     11  H   UNL     1      41.824   6.462  10.848  0.00  0.00    +0.000 HD
ENDBRANCH   1   8
BRANCH   4  12
ATOM     12  C   UNL     1      46.633   4.237   7.640  0.00  0.00    +0.000 C 
BRANCH  12  13
ATOM     13  N   UNL     1      46.373   2.973   6.912  0.00  0.00    +0.000 NA
ATOM     14  C   UNL     1      46.713   3.119   5.484  0.00  0.00    +0.000 C 
ATOM     15  C   UNL     1      46.638   1.800   4.710  0.00  0.00    +0.000 C 
ATOM     16  C   UNL     1      47.505   0.735   5.363  0.00  0.00    +0.000 C 
ATOM     17  C   UNL     1      47.081   0.563   6.813  0.00  0.00    +0.000 C 
ATOM     18  C   UNL     1      47.137   1.893   7.563  0.00  0.00    +0.000 C 
ENDBRANCH  12  13
ENDBRANCH   4  12
BRANCH   6  19
ATOM     19  C   UNL     1      45.179   7.152  11.477  0.00  0.00    +0.000 C 
BRANCH  19  20
ATOM     20  N   UNL     1      45.960   6.924  12.660  0.00  0.00    +0.000 N 
ATOM     21  C   UNL     1      47.328   6.996  12.685  0.00  0.00    +0.000 C 
ATOM     22  O   UNL     1      47.992   7.353  11.710  0.00  0.00    +0.000 OA
ATOM     23  H   UNL     1      45.439   6.600  13.468  0.00  0.00    +0.000 HD
BRANCH  21  24
ATOM     24  C   UNL     1      47.958   6.683  13.971  0.00  0.00    +0.000 A 
ATOM     25  C   UNL     1      48.921   7.527  14.503  0.00  0.00    +0.000 A 
ATOM     26  S   UNL     1      49.502   7.022  16.027  0.00  0.00    +0.000 S 
ATOM     27  C   UNL     1      48.527   5.626  15.997  0.00  0.00    +0.000 A 
ATOM     28  N   UNL     1      48.558   4.728  17.019  0.00  0.00    +0.000 NA
ATOM     29  C   UNL     1      47.789   3.704  16.851  0.00  0.00    +0.000 A 
ATOM     30  N   UNL     1      46.995   3.494  15.753  0.00  0.00    +0.000 N 
ATOM     31  C   UNL     1      46.930   4.373  14.697  0.00  0.00    +0.000 A 
ATOM     32  O   UNL     1      46.218   4.144  13.726  0.00  0.00    +0.000 OA
ATOM     33  C   UNL     1      47.763   5.552  14.846  0.00  0.00    +0.000 A 
ATOM     34  H   UNL     1      46.419   2.670  15.677  0.00  0.00    +0.000 HD
ENDBRANCH  21  24
ENDBRANCH  19  20
ENDBRANCH   6  19
TORSDOF 6
ENDMDL
MODEL 2
REMARK VINA RESULT:    -8.019      4.165      9.823
REMARK INTER + INTRA:         -11.976
REMARK INTER:                 -11.272
REMARK INTRA:                  -0.704
REMARK UNBOUND:                -1.144
REMARK  Name = 
REMARK  6 active torsions:
REMARK  status: ('A' for Active; 'I' for Inactive)
REMARK    1  A    between atoms: C_2  and  C_4
REMARK    2  A    between atoms: C_7  and  C_8
REMARK    3  A    between atoms: C_8  and  N_9
REMARK    4  A    between atoms: C_16  and  C_17
REMARK    5  A    between atoms: C_17  and  N_18
REMARK    6  A    between atoms: C_19  and  C_21
REMARK                            x       y       z     vdW  Elec       q    Type
REMARK                         _______ _______ _______ _____ _____    ______ ____
ROOT
ATOM      1  C   UNL     1      49.954   3.411  17.459  0.00  0.00    +0.000 A 
ATOM      2  C   UNL     1      51.004   4.036  18.154  0.00  0.00    +0.000 A 
ATOM      3  C   UNL     1      50.888   5.359  18.582  0.00  0.00    +0.000 A 
ATOM      4  C   UNL     1      49.740   6.098  18.286  0.00  0.00    +0.000 A 
ATOM      5  C   UNL     1      48.683   5.468  17.613  0.00  0.00    +0.000 A 
ATOM      6  C   UNL     1      48.759   4.116  17.219  0.00  0.00    +0.000 A 
ENDROOT
BRANCH   1   8
ATOM      7  N   UNL     1      50.961   1.199  17.675  0.00  0.00    +0.000 N 
ATOM      8  C   UNL     1      50.170   2.032  16.931  0.00  0.00    +0.000 C 
ATOM      9  O   UNL     1      49.683   1.650  15.875  0.00  0.00    +0.000 OA
ATOM     10  H   UNL     1      51.109   0.262  17.327  0.00  0.00    +0.000 HD
ATOM     11  H   UNL     1      51.278   1.418  18.609  0.00  0.00    +0.000 HD
ENDBRANCH   1   8
BRANCH   4  12
ATOM     12  C   UNL     1      49.632   7.546  18.711  0.00  0.00    +0.000 C 
BRANCH  12  13
ATOM     13  N   UNL     1      48.363   7.885  19.396  0.00  0.00    +0.000 NA
ATOM     14  C   UNL     1      48.447   7.555  20.832  0.00  0.00    +0.000 C 
ATOM     15  C   UNL     1      47.237   8.043  21.632  0.00  0.00    +0.000 C 
ATOM     16  C   UNL     1      47.019   9.536  21.435  0.00  0.00    +0.000 C 
ATOM     17  C   UNL     1      46.868   9.828  19.950  0.00  0.00    +0.000 C 
ATOM     18  C   UNL     1      48.072   9.310  19.164  0.00  0.00    +0.000 C 
ENDBRANCH  12  13
ENDBRANCH   4  12
BRANCH   6  19
ATOM     19  C   UNL     1      47.541   3.495  16.578  0.00  0.00    +0.000 C 
BRANCH  19  20
ATOM     20  N   UNL     1      46.890   4.390  15.663  0.00  0.00    +0.000 N 
ATOM     21  C   UNL     1      46.818   4.166  14.313  0.00  0.00    +0.000 C 
ATOM     22  O   UNL     1      47.231   3.130  13.789  0.00  0.00    +0.000 OA
ATOM     23  H   UNL     1      46.568   5.264  16.065  0.00  0.00    +0.000 HD
BRANCH  21  24
ATOM     24  C   UNL     1      46.158   5.214  13.529  0.00  0.00    +0.000 A 
ATOM     25  C   UNL     1      46.743   6.466  13.402  0.00  0.00    +0.000 A 
ATOM     26  S   UNL     1      45.851   7.536  12.414  0.00  0.00    +0.000 S 
ATOM     27  C   UNL     1      44.625   6.379  12.173  0.00  0.00    +0.000 A 
ATOM     28  N   UNL     1      43.530   6.667  11.419  0.00  0.00    +0.000 NA
ATOM     29  C   UNL     1      42.669   5.707  11.344  0.00  0.00    +0.000 A 
ATOM     30  N   UNL     1      42.801   4.488  11.957  0.00  0.00    +0.000 N 
ATOM     31  C   UNL     1      43.890   4.152  12.728  0.00  0.00    +0.000 A 
ATOM     32  O   UNL     1      43.966   3.056  13.271  0.00  0.00    +0.000 OA
ATOM     33  C   UNL     1      44.897   5.191  12.828  0.00  0.00    +0.000 A 
ATOM     34  H   UNL     1      42.090   3.779  11.865  0.00  0.00    +0.000 HD
ENDBRANCH  21  24
ENDBRANCH  19  20
ENDBRANCH   6  19
TORSDOF 6
ENDMDL
MODEL 3
REMARK VINA RESULT:    -7.697      1.597      2.446
REMARK INTER + INTRA:         -11.540
REMARK INTER:                 -11.475
REMARK INTRA:                  -0.065
REMARK UNBOUND:                -1.144
REMARK  Name = 
REMARK  6 active torsions:
REMARK  status: ('A' for Active; 'I' for Inactive)
REMARK    1  A    between atoms: C_2  and  C_4
REMARK    2  A    between atoms: C_7  and  C_8
REMARK    3  A    between atoms: C_8  and  N_9
REMARK    4  A    between atoms: C_16  and  C_17
REMARK    5  A    between atoms: C_17  and  N_18
REMARK    6  A    between atoms: C_19  and  C_21
REMARK                            x       y       z     vdW  Elec       q    Type
REMARK                         _______ _______ _______ _____ _____    ______ ____
ROOT
ATOM      1  C   UNL     1      43.910   5.010  10.893  0.00  0.00    +0.000 A 
ATOM      2  C   UNL     1      43.939   5.003   9.488  0.00  0.00    +0.000 A 
ATOM      3  C   UNL     1      44.426   3.898   8.789  0.00  0.00    +0.000 A 
ATOM      4  C   UNL     1      44.933   2.795   9.480  0.00  0.00    +0.000 A 
ATOM      5  C   UNL     1      44.883   2.791  10.882  0.00  0.00    +0.000 A 
ATOM      6  C   UNL     1      44.346   3.876  11.605  0.00  0.00    +0.000 A 
ENDROOT
BRANCH   1   8
ATOM      7  N   UNL     1      42.134   6.467  11.715  0.00  0.00    +0.000 N 
ATOM      8  C   UNL     1      43.481   6.257  11.590  0.00  0.00    +0.000 C 
ATOM      9  O   UNL     1      44.282   7.074  12.026  0.00  0.00    +0.000 OA
ATOM     10  H   UNL     1      41.835   7.307  12.190  0.00  0.00    +0.000 HD
ATOM     11  H   UNL     1      41.438   5.770  11.493  0.00  0.00    +0.000 HD
ENDBRANCH   1   8
BRANCH   4  12
ATOM     12  C   UNL     1      45.502   1.614   8.724  0.00  0.00    +0.000 C 
BRANCH  12  13
ATOM     13  N   UNL     1      46.533   1.975   7.723  0.00  0.00    +0.000 NA
ATOM     14  C   UNL     1      46.953   0.783   6.960  0.00  0.00    +0.000 C 
ATOM     15  C   UNL     1      47.883   1.115   5.791  0.00  0.00    +0.000 C 
ATOM     16  C   UNL     1      47.253   2.149   4.870  0.00  0.00    +0.000 C 
ATOM     17  C   UNL     1      46.898   3.388   5.676  0.00  0.00    +0.000 C 
ATOM     18  C   UNL     1      45.990   3.034   6.854  0.00  0.00    +0.000 C 
ENDBRANCH  12  13
ENDBRANCH   4  12
BRANCH   6  19
ATOM     19  C   UNL     1      44.252   3.750  13.107  0.00  0.00    +0.000 C 
BRANCH  19  20
ATOM     20  N   UNL     1      45.247   4.534  13.783  0.00  0.00    +0.000 N 
ATOM     21  C   UNL     1      46.504   4.072  14.070  0.00  0.00    +0.000 C 
ATOM     22  O   UNL     1      46.911   2.973  13.689  0.00  0.00    +0.000 OA
ATOM     23  H   UNL     1      44.928   5.432  14.133  0.00  0.00    +0.000 HD
BRANCH  21  24
ATOM     24  C   UNL     1      47.368   4.996  14.811  0.00  0.00    +0.000 A 
ATOM     25  C   UNL     1      48.039   6.012  14.146  0.00  0.00    +0.000 A 
ATOM     26  S   UNL     1      48.955   7.014  15.181  0.00  0.00    +0.000 S 
ATOM     27  C   UNL     1      48.531   6.086  16.545  0.00  0.00    +0.000 A 
ATOM     28  N   UNL     1      49.007   6.399  17.780  0.00  0.00    +0.000 NA
ATOM     29  C   UNL     1      48.627   5.594  18.716  0.00  0.00    +0.000 A 
ATOM     30  N   UNL     1      47.818   4.503  18.529  0.00  0.00    +0.000 N 
ATOM     31  C   UNL     1      47.312   4.149  17.300  0.00  0.00    +0.000 A 
ATOM     32  O   UNL     1      46.602   3.158  17.170  0.00  0.00    +0.000 OA
ATOM     33  C   UNL     1      47.696   5.034  16.216  0.00  0.00    +0.000 A 
ATOM     34  H   UNL     1      47.559   3.909  19.301  0.00  0.00    +0.000 HD
ENDBRANCH  21  24
ENDBRANCH  19  20
ENDBRANCH   6  19
TORSDOF 6
ENDMDL
MODEL 4
REMARK VINA RESULT:    -7.624      1.601      2.246
REMARK INTER + INTRA:         -11.442
REMARK INTER:                 -10.429
REMARK INTRA:                  -1.013
REMARK UNBOUND:                -1.144
REMARK  Name = 
REMARK  6 active torsions:
REMARK  status: ('A' for Active; 'I' for Inactive)
REMARK    1  A    between atoms: C_2  and  C_4
REMARK    2  A    between atoms: C_7  and  C_8
REMARK    3  A    between atoms: C_8  and  N_9
REMARK    4  A    between atoms: C_16  and  C_17
REMARK    5  A    between atoms: C_17  and  N_18
REMARK    6  A    between atoms: C_19  and  C_21
REMARK                            x       y       z     vdW  Elec       q    Type
REMARK                         _______ _______ _______ _____ _____    ______ ____
ROOT
ATOM      1  C   UNL     1      44.568   6.924  11.452  0.00  0.00    +0.000 A 
ATOM      2  C   UNL     1      43.366   6.295  11.083  0.00  0.00    +0.000 A 
ATOM      3  C   UNL     1      43.374   5.022  10.513  0.00  0.00    +0.000 A 
ATOM      4  C   UNL     1      44.583   4.370  10.258  0.00  0.00    +0.000 A 
ATOM      5  C   UNL     1      45.781   4.988  10.647  0.00  0.00    +0.000 A 
ATOM      6  C   UNL     1      45.792   6.250  11.274  0.00  0.00    +0.000 A 
ENDROOT
BRANCH   1   8
ATOM      7  N   UNL     1      43.753   9.215  11.247  0.00  0.00    +0.000 N 
ATOM      8  C   UNL     1      44.511   8.326  11.959  0.00  0.00    +0.000 C 
ATOM      9  O   UNL     1      45.120   8.687  12.959  0.00  0.00    +0.000 OA
ATOM     10  H   UNL     1      43.706  10.166  11.586  0.00  0.00    +0.000 HD
ATOM     11  H   UNL     1      43.132   8.943  10.497  0.00  0.00    +0.000 HD
ENDBRANCH   1   8
BRANCH   4  12
ATOM     12  C   UNL     1      44.593   3.009   9.598  0.00  0.00    +0.000 C 
BRANCH  12  13
ATOM     13  N   UNL     1      45.791   2.748   8.766  0.00  0.00    +0.000 NA
ATOM     14  C   UNL     1      45.877   1.316   8.417  0.00  0.00    +0.000 C 
ATOM     15  C   UNL     1      46.990   1.008   7.413  0.00  0.00    +0.000 C 
ATOM     16  C   UNL     1      46.846   1.859   6.161  0.00  0.00    +0.000 C 
ATOM     17  C   UNL     1      46.832   3.328   6.553  0.00  0.00    +0.000 C 
ATOM     18  C   UNL     1      45.731   3.612   7.574  0.00  0.00    +0.000 C 
ENDBRANCH  12  13
ENDBRANCH   4  12
BRANCH   6  19
ATOM     19  C   UNL     1      47.119   6.800  11.738  0.00  0.00    +0.000 C 
BRANCH  19  20
ATOM     20  N   UNL     1      47.314   6.635  13.151  0.00  0.00    +0.000 N 
ATOM     21  C   UNL     1      48.549   6.632  13.745  0.00  0.00    +0.000 C 
ATOM     22  O   UNL     1      49.586   6.862  13.122  0.00  0.00    +0.000 OA
ATOM     23  H   UNL     1      46.478   6.415  13.682  0.00  0.00    +0.000 HD
BRANCH  21  24
ATOM     24  C   UNL     1      48.557   6.400  15.192  0.00  0.00    +0.000 A 
ATOM     25  C   UNL     1      49.139   7.325  16.047  0.00  0.00    +0.000 A 
ATOM     26  S   UNL     1      49.008   6.905  17.696  0.00  0.00    +0.000 S 
ATOM     27  C   UNL     1      48.220   5.444  17.318  0.00  0.00    +0.000 A 
ATOM     28  N   UNL     1      47.841   4.579  18.297  0.00  0.00    +0.000 NA
ATOM     29  C   UNL     1      47.279   3.499  17.865  0.00  0.00    +0.000 A 
ATOM     30  N   UNL     1      47.067   3.202  16.544  0.00  0.00    +0.000 N 
ATOM     31  C   UNL     1      47.433   4.045  15.519  0.00  0.00    +0.000 A 
ATOM     32  O   UNL     1      47.239   3.739  14.349  0.00  0.00    +0.000 OA
ATOM     33  C   UNL     1      48.052   5.283  15.954  0.00  0.00    +0.000 A 
ATOM     34  H   UNL     1      46.627   2.338  16.268  0.00  0.00    +0.000 HD
ENDBRANCH  21  24
ENDBRANCH  19  20
ENDBRANCH   6  19
TORSDOF 6
ENDMDL
MODEL 5
REMARK VINA RESULT:    -7.597      4.504      9.907
REMARK INTER + INTRA:         -11.405
REMARK INTER:                 -10.314
REMARK INTRA:                  -1.091
REMARK UNBOUND:                -1.144
REMARK  Name = 
REMARK  6 active torsions:
REMARK  status: ('A' for Active; 'I' for Inactive)
REMARK    1  A    between atoms: C_2  and  C_4
REMARK    2  A    between atoms: C_7  and  C_8
REMARK    3  A    between atoms: C_8  and  N_9
REMARK    4  A    between atoms: C_16  and  C_17
REMARK    5  A    between atoms: C_17  and  N_18
REMARK    6  A    between atoms: C_19  and  C_21
REMARK                            x       y       z     vdW  Elec       q    Type
REMARK                         _______ _______ _______ _____ _____    ______ ____
ROOT
ATOM      1  C   UNL     1      50.099   3.359  17.550  0.00  0.00    +0.000 A 
ATOM      2  C   UNL     1      51.176   3.998  18.187  0.00  0.00    +0.000 A 
ATOM      3  C   UNL     1      51.056   5.308  18.651  0.00  0.00    +0.000 A 
ATOM      4  C   UNL     1      49.872   6.021  18.450  0.00  0.00    +0.000 A 
ATOM      5  C   UNL     1      48.788   5.376  17.835  0.00  0.00    +0.000 A 
ATOM      6  C   UNL     1      48.872   4.036  17.407  0.00  0.00    +0.000 A 
ENDROOT
BRANCH   1   8
ATOM      7  N   UNL     1      51.075   1.129  17.713  0.00  0.00    +0.000 N 
ATOM      8  C   UNL     1      50.315   1.998  16.979  0.00  0.00    +0.000 C 
ATOM      9  O   UNL     1      49.853   1.660  15.896  0.00  0.00    +0.000 OA
ATOM     10  H   UNL     1      51.223   0.203  17.335  0.00  0.00    +0.000 HD
ATOM     11  H   UNL     1      51.369   1.309  18.662  0.00  0.00    +0.000 HD
ENDBRANCH   1   8
BRANCH   4  12
ATOM     12  C   UNL     1      49.755   7.457  18.913  0.00  0.00    +0.000 C 
BRANCH  12  13
ATOM     13  N   UNL     1      48.462   7.784  19.558  0.00  0.00    +0.000 NA
ATOM     14  C   UNL     1      48.484   7.399  20.983  0.00  0.00    +0.000 C 
ATOM     15  C   UNL     1      47.246   7.871  21.751  0.00  0.00    +0.000 C 
ATOM     16  C   UNL     1      47.051   9.372  21.601  0.00  0.00    +0.000 C 
ATOM     17  C   UNL     1      46.964   9.721  20.123  0.00  0.00    +0.000 C 
ATOM     18  C   UNL     1      48.195   9.220  19.369  0.00  0.00    +0.000 C 
ENDBRANCH  12  13
ENDBRANCH   4  12
BRANCH   6  19
ATOM     19  C   UNL     1      47.631   3.395  16.835  0.00  0.00    +0.000 C 
BRANCH  19  20
ATOM     20  N   UNL     1      46.970   4.241  15.882  0.00  0.00    +0.000 N 
ATOM     21  C   UNL     1      46.905   3.961  14.542  0.00  0.00    +0.000 C 
ATOM     22  O   UNL     1      47.334   2.911  14.062  0.00  0.00    +0.000 OA
ATOM     23  H   UNL     1      46.633   5.126  16.247  0.00  0.00    +0.000 HD
BRANCH  21  24
ATOM     24  C   UNL     1      46.232   4.966  13.714  0.00  0.00    +0.000 A 
ATOM     25  C   UNL     1      44.990   4.696  13.157  0.00  0.00    +0.000 A 
ATOM     26  S   UNL     1      44.346   6.003  12.267  0.00  0.00    +0.000 S 
ATOM     27  C   UNL     1      45.733   6.950  12.548  0.00  0.00    +0.000 A 
ATOM     28  N   UNL     1      45.840   8.205  12.034  0.00  0.00    +0.000 NA
ATOM     29  C   UNL     1      46.956   8.797  12.303  0.00  0.00    +0.000 A 
ATOM     30  N   UNL     1      47.976   8.247  13.036  0.00  0.00    +0.000 N 
ATOM     31  C   UNL     1      47.913   6.984  13.576  0.00  0.00    +0.000 A 
ATOM     32  O   UNL     1      48.851   6.522  14.215  0.00  0.00    +0.000 OA
ATOM     33  C   UNL     1      46.669   6.283  13.317  0.00  0.00    +0.000 A 
ATOM     34  H   UNL     1      48.827   8.759  13.208  0.00  0.00    +0.000 HD
ENDBRANCH  21  24
ENDBRANCH  19  20
ENDBRANCH   6  19
TORSDOF 6
ENDMDL
MODEL 6
REMARK VINA RESULT:    -7.551      4.008      9.742
REMARK INTER + INTRA:         -11.344
REMARK INTER:                 -10.050
REMARK INTRA:                  -1.294
REMARK UNBOUND:                -1.144
REMARK  Name = 
REMARK  6 active torsions:
REMARK  status: ('A' for Active; 'I' for Inactive)
REMARK    1  A    between atoms: C_2  and  C_4
REMARK    2  A    between atoms: C_7  and  C_8
REMARK    3  A    between atoms: C_8  and  N_9
REMARK    4  A    between atoms: C_16  and  C_17
REMARK    5  A    between atoms: C_17  and  N_18
REMARK    6  A    between atoms: C_19  and  C_21
REMARK                            x       y       z     vdW  Elec       q    Type
REMARK                         _______ _______ _______ _____ _____    ______ ____
ROOT
ATOM      1  C   UNL     1      48.115   5.110  17.826  0.00  0.00    +0.000 A 
ATOM      2  C   UNL     1      47.688   5.139  19.164  0.00  0.00    +0.000 A 
ATOM      3  C   UNL     1      47.669   6.335  19.882  0.00  0.00    +0.000 A 
ATOM      4  C   UNL     1      48.118   7.519  19.292  0.00  0.00    +0.000 A 
ATOM      5  C   UNL     1      48.524   7.495  17.949  0.00  0.00    +0.000 A 
ATOM      6  C   UNL     1      48.499   6.307  17.190  0.00  0.00    +0.000 A 
ENDROOT
BRANCH   1   8
ATOM      7  N   UNL     1      47.047   3.215  16.721  0.00  0.00    +0.000 N 
ATOM      8  C   UNL     1      48.217   3.790  17.139  0.00  0.00    +0.000 C 
ATOM      9  O   UNL     1      49.288   3.224  16.961  0.00  0.00    +0.000 OA
ATOM     10  H   UNL     1      47.108   2.322  16.251  0.00  0.00    +0.000 HD
ATOM     11  H   UNL     1      46.158   3.693  16.726  0.00  0.00    +0.000 HD
ENDBRANCH   1   8
BRANCH   4  12
ATOM     12  C   UNL     1      48.141   8.808  20.084  0.00  0.00    +0.000 C 
BRANCH  12  13
ATOM     13  N   UNL     1      47.143   9.810  19.641  0.00  0.00    +0.000 NA
ATOM     14  C   UNL     1      46.269  10.200  20.763  0.00  0.00    +0.000 C 
ATOM     15  C   UNL     1      45.332  11.361  20.420  0.00  0.00    +0.000 C 
ATOM     16  C   UNL     1      46.116  12.560  19.906  0.00  0.00    +0.000 C 
ATOM     17  C   UNL     1      46.951  12.136  18.708  0.00  0.00    +0.000 C 
ATOM     18  C   UNL     1      47.860  10.960  19.062  0.00  0.00    +0.000 C 
ENDBRANCH  12  13
ENDBRANCH   4  12
BRANCH   6  19
ATOM     19  C   UNL     1      48.869   6.391  15.729  0.00  0.00    +0.000 C 
BRANCH  19  20
ATOM     20  N   UNL     1      47.732   6.224  14.868  0.00  0.00    +0.000 N 
ATOM     21  C   UNL     1      47.816   6.230  13.500  0.00  0.00    +0.000 C 
ATOM     22  O   UNL     1      48.890   6.290  12.901  0.00  0.00    +0.000 OA
ATOM     23  H   UNL     1      46.832   6.201  15.337  0.00  0.00    +0.000 HD
BRANCH  21  24
ATOM     24  C   UNL     1      46.543   6.096  12.786  0.00  0.00    +0.000 A 
ATOM     25  C   UNL     1      45.919   7.214  12.251  0.00  0.00    +0.000 A 
ATOM     26  S   UNL     1      44.475   6.852  11.415  0.00  0.00    +0.000 S 
ATOM     27  C   UNL     1      44.606   5.197  11.792  0.00  0.00    +0.000 A 
ATOM     28  N   UNL     1      43.660   4.309  11.384  0.00  0.00    +0.000 NA
ATOM     29  C   UNL     1      43.873   3.092  11.764  0.00  0.00    +0.000 A 
ATOM     30  N   UNL     1      44.942   2.685  12.519  0.00  0.00    +0.000 N 
ATOM     31  C   UNL     1      45.923   3.545  12.954  0.00  0.00    +0.000 A 
ATOM     32  O   UNL     1      46.857   3.145  13.639  0.00  0.00    +0.000 OA
ATOM     33  C   UNL     1      45.740   4.923  12.537  0.00  0.00    +0.000 A 
ATOM     34  H   UNL     1      45.050   1.719  12.789  0.00  0.00    +0.000 HD
ENDBRANCH  21  24
ENDBRANCH  19  20
ENDBRANCH   6  19
TORSDOF 6
ENDMDL
MODEL 7
REMARK VINA RESULT:    -7.531      2.314      4.125
REMARK INTER + INTRA:         -11.316
REMARK INTER:                  -9.770
REMARK INTRA:                  -1.546
REMARK UNBOUND:                -1.144
REMARK  Name = 
REMARK  6 active torsions:
REMARK  status: ('A' for Active; 'I' for Inactive)
REMARK    1  A    between atoms: C_2  and  C_4
REMARK    2  A    between atoms: C_7  and  C_8
REMARK    3  A    between atoms: C_8  and  N_9
REMARK    4  A    between atoms: C_16  and  C_17
REMARK    5  A    between atoms: C_17  and  N_18
REMARK    6  A    between atoms: C_19  and  C_21
REMARK                            x       y       z     vdW  Elec       q    Type
REMARK                         _______ _______ _______ _____ _____    ______ ____
ROOT
ATOM      1  C   UNL     1      46.887   8.819  12.143  0.00  0.00    +0.000 A 
ATOM      2  C   UNL     1      45.512   8.928  11.868  0.00  0.00    +0.000 A 
ATOM      3  C   UNL     1      44.737   7.790  11.645  0.00  0.00    +0.000 A 
ATOM      4  C   UNL     1      45.327   6.523  11.648  0.00  0.00    +0.000 A 
ATOM      5  C   UNL     1      46.693   6.412  11.944  0.00  0.00    +0.000 A 
ATOM      6  C   UNL     1      47.483   7.546  12.226  0.00  0.00    +0.000 A 
ENDROOT
BRANCH   1   8
ATOM      7  N   UNL     1      47.794  10.619  13.517  0.00  0.00    +0.000 N 
ATOM      8  C   UNL     1      47.689  10.071  12.268  0.00  0.00    +0.000 C 
ATOM      9  O   UNL     1      48.225  10.606  11.305  0.00  0.00    +0.000 OA
ATOM     10  H   UNL     1      48.339  11.465  13.612  0.00  0.00    +0.000 HD
ATOM     11  H   UNL     1      47.485  10.154  14.359  0.00  0.00    +0.000 HD
ENDBRANCH   1   8
BRANCH   4  12
ATOM     12  C   UNL     1      44.495   5.292  11.360  0.00  0.00    +0.000 C 
BRANCH  12  13
ATOM     13  N   UNL     1      45.138   4.328  10.438  0.00  0.00    +0.000 NA
ATOM     14  C   UNL     1      44.278   3.144  10.245  0.00  0.00    +0.000 C 
ATOM     15  C   UNL     1      44.799   2.192   9.166  0.00  0.00    +0.000 C 
ATOM     16  C   UNL     1      45.011   2.923   7.849  0.00  0.00    +0.000 C 
ATOM     17  C   UNL     1      45.956   4.093   8.073  0.00  0.00    +0.000 C 
ATOM     18  C   UNL     1      45.433   5.019   9.170  0.00  0.00    +0.000 C 
ENDBRANCH  12  13
ENDBRANCH   4  12
BRANCH   6  19
ATOM     19  C   UNL     1      48.923   7.326  12.620  0.00  0.00    +0.000 C 
BRANCH  19  20
ATOM     20  N   UNL     1      49.047   6.609  13.857  0.00  0.00    +0.000 N 
ATOM     21  C   UNL     1      48.974   7.210  15.087  0.00  0.00    +0.000 C 
ATOM     22  O   UNL     1      48.707   8.404  15.228  0.00  0.00    +0.000 OA
ATOM     23  H   UNL     1      49.296   5.629  13.769  0.00  0.00    +0.000 HD
BRANCH  21  24
ATOM     24  C   UNL     1      49.173   6.325  16.239  0.00  0.00    +0.000 A 
ATOM     25  C   UNL     1      50.192   6.576  17.146  0.00  0.00    +0.000 A 
ATOM     26  S   UNL     1      50.235   5.468  18.444  0.00  0.00    +0.000 S 
ATOM     27  C   UNL     1      48.930   4.581  17.803  0.00  0.00    +0.000 A 
ATOM     28  N   UNL     1      48.464   3.469  18.431  0.00  0.00    +0.000 NA
ATOM     29  C   UNL     1      47.489   2.881  17.819  0.00  0.00    +0.000 A 
ATOM     30  N   UNL     1      46.942   3.303  16.635  0.00  0.00    +0.000 N 
ATOM     31  C   UNL     1      47.379   4.421  15.964  0.00  0.00    +0.000 A 
ATOM     32  O   UNL     1      46.873   4.759  14.901  0.00  0.00    +0.000 OA
ATOM     33  C   UNL     1      48.462   5.129  16.622  0.00  0.00    +0.000 A 
ATOM     34  H   UNL     1      46.184   2.797  16.203  0.00  0.00    +0.000 HD
ENDBRANCH  21  24
ENDBRANCH  19  20
ENDBRANCH   6  19
TORSDOF 6
ENDMDL
MODEL 8
REMARK VINA RESULT:    -7.395      4.023      6.302
REMARK INTER + INTRA:         -11.132
REMARK INTER:                  -9.952
REMARK INTRA:                  -1.181
REMARK UNBOUND:                -1.144
REMARK  Name = 
REMARK  6 active torsions:
REMARK  status: ('A' for Active; 'I' for Inactive)
REMARK    1  A    between atoms: C_2  and  C_4
REMARK    2  A    between atoms: C_7  and  C_8
REMARK    3  A    between atoms: C_8  and  N_9
REMARK    4  A    between atoms: C_16  and  C_17
REMARK    5  A    between atoms: C_17  and  N_18
REMARK    6  A    between atoms: C_19  and  C_21
REMARK                            x       y       z     vdW  Elec       q    Type
REMARK                         _______ _______ _______ _____ _____    ______ ____
ROOT
ATOM      1  C   UNL     1      45.090   5.250  12.568  0.00  0.00    +0.000 A 
ATOM      2  C   UNL     1      45.183   6.091  11.445  0.00  0.00    +0.000 A 
ATOM      3  C   UNL     1      46.331   6.848  11.214  0.00  0.00    +0.000 A 
ATOM      4  C   UNL     1      47.393   6.814  12.121  0.00  0.00    +0.000 A 
ATOM      5  C   UNL     1      47.310   5.959  13.230  0.00  0.00    +0.000 A 
ATOM      6  C   UNL     1      46.180   5.145  13.453  0.00  0.00    +0.000 A 
ENDROOT
BRANCH   1   8
ATOM      7  N   UNL     1      42.734   5.317  13.199  0.00  0.00    +0.000 N 
ATOM      8  C   UNL     1      43.801   4.545  12.825  0.00  0.00    +0.000 C 
ATOM      9  O   UNL     1      43.686   3.329  12.726  0.00  0.00    +0.000 OA
ATOM     10  H   UNL     1      41.856   4.847  13.371  0.00  0.00    +0.000 HD
ATOM     11  H   UNL     1      42.738   6.326  13.170  0.00  0.00    +0.000 HD
ENDBRANCH   1   8
BRANCH   4  12
ATOM     12  C   UNL     1      48.620   7.670  11.895  0.00  0.00    +0.000 C 
BRANCH  12  13
ATOM     13  N   UNL     1      49.249   8.170  13.139  0.00  0.00    +0.000 NA
ATOM     14  C   UNL     1      50.706   8.320  12.958  0.00  0.00    +0.000 C 
ATOM     15  C   UNL     1      51.392   9.000  14.145  0.00  0.00    +0.000 C 
ATOM     16  C   UNL     1      50.748  10.344  14.450  0.00  0.00    +0.000 C 
ATOM     17  C   UNL     1      49.261  10.141  14.699  0.00  0.00    +0.000 C 
ATOM     18  C   UNL     1      48.598   9.437  13.516  0.00  0.00    +0.000 C 
ENDBRANCH  12  13
ENDBRANCH   4  12
BRANCH   6  19
ATOM     19  C   UNL     1      46.214   4.191  14.622  0.00  0.00    +0.000 C 
BRANCH  19  20
ATOM     20  N   UNL     1      47.378   4.374  15.443  0.00  0.00    +0.000 N 
ATOM     21  C   UNL     1      47.471   3.917  16.731  0.00  0.00    +0.000 C 
ATOM     22  O   UNL     1      46.593   3.232  17.258  0.00  0.00    +0.000 OA
ATOM     23  H   UNL     1      48.104   4.959  15.042  0.00  0.00    +0.000 HD
BRANCH  21  24
ATOM     24  C   UNL     1      48.718   4.240  17.431  0.00  0.00    +0.000 A 
ATOM     25  C   UNL     1      48.847   5.442  18.112  0.00  0.00    +0.000 A 
ATOM     26  S   UNL     1      50.349   5.617  18.903  0.00  0.00    +0.000 S 
ATOM     27  C   UNL     1      50.898   4.118  18.313  0.00  0.00    +0.000 A 
ATOM     28  N   UNL     1      52.146   3.663  18.609  0.00  0.00    +0.000 NA
ATOM     29  C   UNL     1      52.438   2.525  18.071  0.00  0.00    +0.000 A 
ATOM     30  N   UNL     1      51.599   1.803  17.262  0.00  0.00    +0.000 N 
ATOM     31  C   UNL     1      50.330   2.222  16.936  0.00  0.00    +0.000 A 
ATOM     32  O   UNL     1      49.614   1.555  16.198  0.00  0.00    +0.000 OA
ATOM     33  C   UNL     1      49.946   3.489  17.531  0.00  0.00    +0.000 A 
ATOM     34  H   UNL     1      51.888   0.921  16.868  0.00  0.00    +0.000 HD
ENDBRANCH  21  24
ENDBRANCH  19  20
ENDBRANCH   6  19
TORSDOF 6
ENDMDL
MODEL 9
REMARK VINA RESULT:    -7.107      2.959      8.111
REMARK INTER + INTRA:         -10.743
REMARK INTER:                  -9.482
REMARK INTRA:                  -1.261
REMARK UNBOUND:                -1.144
REMARK  Name = 
REMARK  6 active torsions:
REMARK  status: ('A' for Active; 'I' for Inactive)
REMARK    1  A    between atoms: C_2  and  C_4
REMARK    2  A    between atoms: C_7  and  C_8
REMARK    3  A    between atoms: C_8  and  N_9
REMARK    4  A    between atoms: C_16  and  C_17
REMARK    5  A    between atoms: C_17  and  N_18
REMARK    6  A    between atoms: C_19  and  C_21
REMARK                            x       y       z     vdW  Elec       q    Type
REMARK                         _______ _______ _______ _____ _____    ______ ____
ROOT
ATOM      1  C   UNL     1      50.257   8.488  12.736  0.00  0.00    +0.000 A 
ATOM      2  C   UNL     1      51.116   8.349  13.839  0.00  0.00    +0.000 A 
ATOM      3  C   UNL     1      50.673   7.747  15.017  0.00  0.00    +0.000 A 
ATOM      4  C   UNL     1      49.351   7.312  15.133  0.00  0.00    +0.000 A 
ATOM      5  C   UNL     1      48.499   7.430  14.025  0.00  0.00    +0.000 A 
ATOM      6  C   UNL     1      48.943   7.986  12.807  0.00  0.00    +0.000 A 
ENDROOT
BRANCH   1   8
ATOM      7  N   UNL     1      51.539   8.545  10.661  0.00  0.00    +0.000 N 
ATOM      8  C   UNL     1      50.748   9.233  11.540  0.00  0.00    +0.000 C 
ATOM      9  O   UNL     1      50.478  10.412  11.345  0.00  0.00    +0.000 OA
ATOM     10  H   UNL     1      51.872   9.042   9.846  0.00  0.00    +0.000 HD
ATOM     11  H   UNL     1      51.684   7.547  10.704  0.00  0.00    +0.000 HD
ENDBRANCH   1   8
BRANCH   4  12
ATOM     12  C   UNL     1      48.857   6.701  16.426  0.00  0.00    +0.000 C 
BRANCH  12  13
ATOM     13  N   UNL     1      48.984   5.226  16.487  0.00  0.00    +0.000 NA
ATOM     14  C   UNL     1      49.969   4.833  17.513  0.00  0.00    +0.000 C 
ATOM     15  C   UNL     1      50.018   3.322  17.752  0.00  0.00    +0.000 C 
ATOM     16  C   UNL     1      48.639   2.779  18.095  0.00  0.00    +0.000 C 
ATOM     17  C   UNL     1      47.667   3.143  16.982  0.00  0.00    +0.000 C 
ATOM     18  C   UNL     1      47.651   4.651  16.740  0.00  0.00    +0.000 C 
ENDBRANCH  12  13
ENDBRANCH   4  12
BRANCH   6  19
ATOM     19  C   UNL     1      47.985   7.994  11.641  0.00  0.00    +0.000 C 
BRANCH  19  20
ATOM     20  N   UNL     1      47.139   6.834  11.622  0.00  0.00    +0.000 N 
ATOM     21  C   UNL     1      45.770   6.900  11.618  0.00  0.00    +0.000 C 
ATOM     22  O   UNL     1      45.157   7.965  11.540  0.00  0.00    +0.000 OA
ATOM     23  H   UNL     1      47.619   5.945  11.714  0.00  0.00    +0.000 HD
BRANCH  21  24
ATOM     24  C   UNL     1      45.073   5.611  11.648  0.00  0.00    +0.000 A 
ATOM     25  C   UNL     1      44.432   5.189  12.804  0.00  0.00    +0.000 A 
ATOM     26  S   UNL     1      43.636   3.689  12.632  0.00  0.00    +0.000 S 
ATOM     27  C   UNL     1      44.172   3.526  11.024  0.00  0.00    +0.000 A 
ATOM     28  N   UNL     1      43.852   2.429  10.287  0.00  0.00    +0.000 NA
ATOM     29  C   UNL     1      44.349   2.425   9.094  0.00  0.00    +0.000 A 
ATOM     30  N   UNL     1      45.139   3.417   8.574  0.00  0.00    +0.000 N 
ATOM     31  C   UNL     1      45.489   4.545   9.280  0.00  0.00    +0.000 A 
ATOM     32  O   UNL     1      46.208   5.404   8.785  0.00  0.00    +0.000 OA
ATOM     33  C   UNL     1      44.939   4.605  10.622  0.00  0.00    +0.000 A 
ATOM     34  H   UNL     1      45.502   3.355   7.635  0.00  0.00    +0.000 HD
ENDBRANCH  21  24
ENDBRANCH  19  20
ENDBRANCH   6  19
TORSDOF 6
ENDMDL
