MODEL 1
REMARK VINA RESULT:    -7.737      0.000      0.000
REMARK INTER + INTRA:         -11.811
REMARK INTER:                 -10.676
REMARK INTRA:                  -1.134
REMARK UNBOUND:                -1.134
REMARK  Name = 
REMARK  10 active torsions:
REMARK  status: ('A' for Active; 'I' for Inactive)
REMARK    1  A    between atoms: C_1  and  C_2
REMARK    2  A    between atoms: C_4  and  C_5
REMARK    3  A    between atoms: C_5  and  C_6
REMARK    4  A    between atoms: C_5  and  C_7
REMARK    5  A    between atoms: C_7  and  N_8
REMARK    6  A    between atoms: C_12  and  C_13
REMARK    7  A    between atoms: C_19  and  C_20
REMARK    8  A    between atoms: C_21  and  O_22
REMARK    9  A    between atoms: O_22  and  C_23
REMARK   10  A    between atoms: C_25  and  O_26
REMARK                            x       y       z     vdW  Elec       q    Type
REMARK                         _______ _______ _______ _____ _____    ______ ____
ROOT
ATOM      1  C   UNL     1      43.733   5.123  11.490  0.00  0.00    +0.000 C 
ATOM      2  C   UNL     1      42.878   6.403  11.481  0.00  0.00    +0.000 C 
ENDROOT
BRANCH   1   6
ATOM      3  C   UNL     1      48.126   7.576  11.403  0.00  0.00    +0.000 C 
ATOM      4  C   UNL     1      47.227   6.602  12.120  0.00  0.00    +0.000 A 
ATOM      5  C   UNL     1      45.960   6.339  11.562  0.00  0.00    +0.000 A 
ATOM      6  C   UNL     1      45.087   5.410  12.135  0.00  0.00    +0.000 A 
ATOM      7  C   UNL     1      45.509   4.769  13.302  0.00  0.00    +0.000 A 
ATOM      8  C   UNL     1      46.749   5.031  13.915  0.00  0.00    +0.000 A 
ATOM      9  C   UNL     1      47.018   4.235  15.161  0.00  0.00    +0.000 C 
ATOM     10  C   UNL     1      47.614   5.970  13.324  0.00  0.00    +0.000 A 
BRANCH  10  11
ATOM     11  O   UNL     1      48.866   6.323  13.794  0.00  0.00    +0.000 OA
BRANCH  11  12
ATOM     12  C   UNL     1      48.972   7.153  14.974  0.00  0.00    +0.000 C 
ATOM     13  C   UNL     1      48.190   8.490  14.964  0.00  0.00    +0.000 C 
ATOM     14  C   UNL     1      49.496   9.191  14.541  0.00  0.00    +0.000 C 
ATOM     15  C   UNL     1      50.258   7.991  15.133  0.00  0.00    +0.000 C 
BRANCH  14  16
ATOM     16  O   UNL     1      49.749  10.477  15.135  0.00  0.00    +0.000 OA
ATOM     17  H   UNL     1      50.573  10.801  14.733  0.00  0.00    +0.000 HD
ENDBRANCH  14  16
ENDBRANCH  11  12
ENDBRANCH  10  11
ENDBRANCH   1   6
BRANCH   1  18
ATOM     18  C   UNL     1      43.764   4.578  10.041  0.00  0.00    +0.000 C 
BRANCH  18  19
ATOM     19  N   UNL     1      44.141   3.159   9.980  0.00  0.00    +0.000 N 
ATOM     20  C   UNL     1      45.036   2.863   8.944  0.00  0.00    +0.000 A 
ATOM     21  C   UNL     1      45.507   1.561   8.807  0.00  0.00    +0.000 A 
ATOM     22  C   UNL     1      46.399   1.259   7.774  0.00  0.00    +0.000 A 
ATOM     23  C   UNL     1      46.810   2.265   6.897  0.00  0.00    +0.000 A 
ATOM     24  C   UNL     1      46.320   3.536   7.130  0.00  0.00    +0.000 A 
ATOM     25  N   UNL     1      45.456   3.849   8.125  0.00  0.00    +0.000 NA
ATOM     26  H   UNL     1      43.341   2.535   9.944  0.00  0.00    +0.000 HD
BRANCH  23  27
ATOM     27  C   UNL     1      47.726   1.938   5.777  0.00  0.00    +0.000 C 
ATOM     28  N   UNL     1      48.215   2.953   5.003  0.00  0.00    +0.000 N 
ATOM     29  O   UNL     1      48.041   0.775   5.549  0.00  0.00    +0.000 OA
ATOM     30  H   UNL     1      47.997   3.934   5.091  0.00  0.00    +0.000 HD
ATOM     31  H   UNL     1      48.821   2.679   4.239  0.00  0.00    +0.000 HD
ENDBRANCH  23  27
ENDBRANCH  18  19
ENDBRANCH   1  18
TORSDOF 7
ENDMDL
MODEL 2
REMARK VINA RESULT:    -7.327      1.516      2.417
REMARK INTER + INTRA:         -11.245
REMARK INTER:                 -10.215
REMARK INTRA:                  -1.030
REMARK UNBOUND:                -1.134
REMARK  Name = 
REMARK  10 active torsions:
REMARK  status: ('A' for Active; 'I' for Inactive)
REMARK    1  A    between atoms: C_1  and  C_2
REMARK    2  A    between atoms: C_4  and  C_5
REMARK    3  A    between atoms: C_5  and  C_6
REMARK    4  A    between atoms: C_5  and  C_7
REMARK    5  A    between atoms: C_7  and  N_8
REMARK    6  A    between atoms: C_12  and  C_13
REMARK    7  A    between atoms: C_19  and  C_20
REMARK    8  A    between atoms: C_21  and  O_22
REMARK    9  A    between atoms: O_22  and  C_23
REMARK   10  A    between atoms: C_25  and  O_26
REMARK                            x       y       z     vdW  Elec       q    Type
REMARK                         _______ _______ _______ _____ _____    ______ ____
ROOT
ATOM      1  C   UNL     1      43.787   5.003  11.724  0.00  0.00    +0.000 C 
ATOM      2  C   UNL     1      42.355   5.529  11.922  0.00  0.00    +0.000 C 
ENDROOT
BRANCH   1   6
ATOM      3  C   UNL     1      47.876   6.120  14.435  0.00  0.00    +0.000 C 
ATOM      4  C   UNL     1      46.789   6.608  13.513  0.00  0.00    +0.000 A 
ATOM      5  C   UNL     1      45.862   5.665  13.027  0.00  0.00    +0.000 A 
ATOM      6  C   UNL     1      44.793   6.043  12.210  0.00  0.00    +0.000 A 
ATOM      7  C   UNL     1      44.693   7.394  11.871  0.00  0.00    +0.000 A 
ATOM      8  C   UNL     1      45.619   8.364  12.301  0.00  0.00    +0.000 A 
ATOM      9  C   UNL     1      45.334   9.762  11.832  0.00  0.00    +0.000 C 
ATOM     10  C   UNL     1      46.689   7.963  13.123  0.00  0.00    +0.000 A 
BRANCH  10  11
ATOM     11  O   UNL     1      47.667   8.795  13.638  0.00  0.00    +0.000 OA
BRANCH  11  12
ATOM     12  C   UNL     1      48.706   9.292  12.765  0.00  0.00    +0.000 C 
ATOM     13  C   UNL     1      49.046   8.437  11.519  0.00  0.00    +0.000 C 
ATOM     14  C   UNL     1      50.219   7.834  12.316  0.00  0.00    +0.000 C 
ATOM     15  C   UNL     1      50.167   9.083  13.215  0.00  0.00    +0.000 C 
BRANCH  14  16
ATOM     16  O   UNL     1      51.438   7.611  11.585  0.00  0.00    +0.000 OA
ATOM     17  H   UNL     1      51.170   7.277  10.712  0.00  0.00    +0.000 HD
ENDBRANCH  14  16
ENDBRANCH  11  12
ENDBRANCH  10  11
ENDBRANCH   1   6
BRANCH   1  18
ATOM     18  C   UNL     1      43.917   4.560  10.245  0.00  0.00    +0.000 C 
BRANCH  18  19
ATOM     19  N   UNL     1      44.250   3.136  10.110  0.00  0.00    +0.000 N 
ATOM     20  C   UNL     1      45.127   2.865   9.052  0.00  0.00    +0.000 A 
ATOM     21  C   UNL     1      45.558   1.558   8.845  0.00  0.00    +0.000 A 
ATOM     22  C   UNL     1      46.432   1.282   7.790  0.00  0.00    +0.000 A 
ATOM     23  C   UNL     1      46.866   2.318   6.960  0.00  0.00    +0.000 A 
ATOM     24  C   UNL     1      46.417   3.590   7.262  0.00  0.00    +0.000 A 
ATOM     25  N   UNL     1      45.571   3.878   8.279  0.00  0.00    +0.000 NA
ATOM     26  H   UNL     1      43.431   2.538  10.050  0.00  0.00    +0.000 HD
BRANCH  23  27
ATOM     27  C   UNL     1      47.763   2.020   5.818  0.00  0.00    +0.000 C 
ATOM     28  N   UNL     1      48.076   3.023   4.943  0.00  0.00    +0.000 N 
ATOM     29  O   UNL     1      48.217   0.892   5.659  0.00  0.00    +0.000 OA
ATOM     30  H   UNL     1      47.736   3.972   4.970  0.00  0.00    +0.000 HD
ATOM     31  H   UNL     1      48.676   2.767   4.168  0.00  0.00    +0.000 HD
ENDBRANCH  23  27
ENDBRANCH  18  19
ENDBRANCH   1  18
TORSDOF 7
ENDMDL
MODEL 3
REMARK VINA RESULT:    -7.242      2.118      2.773
REMARK INTER + INTRA:         -11.128
REMARK INTER:                 -10.168
REMARK INTRA:                  -0.960
REMARK UNBOUND:                -1.134
REMARK  Name = 
REMARK  10 active torsions:
REMARK  status: ('A' for Active; 'I' for Inactive)
REMARK    1  A    between atoms: C_1  and  C_2
REMARK    2  A    between atoms: C_4  and  C_5
REMARK    3  A    between atoms: C_5  and  C_6
REMARK    4  A    between atoms: C_5  and  C_7
REMARK    5  A    between atoms: C_7  and  N_8
REMARK    6  A    between atoms: C_12  and  C_13
REMARK    7  A    between atoms: C_19  and  C_20
REMARK    8  A    between atoms: C_21  and  O_22
REMARK    9  A    between atoms: O_22  and  C_23
REMARK   10  A    between atoms: C_25  and  O_26
REMARK                            x       y       z     vdW  Elec       q    Type
REMARK                         _______ _______ _______ _____ _____    ______ ____
ROOT
ATOM      1  C   UNL     1      44.173   4.793  12.277  0.00  0.00    +0.000 C 
ATOM      2  C   UNL     1      42.965   5.027  13.201  0.00  0.00    +0.000 C 
ENDROOT
BRANCH   1   6
ATOM      3  C   UNL     1      44.917   9.766  12.087  0.00  0.00    +0.000 C 
ATOM      4  C   UNL     1      45.514   8.398  12.289  0.00  0.00    +0.000 A 
ATOM      5  C   UNL     1      44.650   7.286  12.240  0.00  0.00    +0.000 A 
ATOM      6  C   UNL     1      45.130   5.979  12.365  0.00  0.00    +0.000 A 
ATOM      7  C   UNL     1      46.502   5.818  12.566  0.00  0.00    +0.000 A 
ATOM      8  C   UNL     1      47.396   6.902  12.661  0.00  0.00    +0.000 A 
ATOM      9  C   UNL     1      48.834   6.519  12.876  0.00  0.00    +0.000 C 
ATOM     10  C   UNL     1      46.893   8.210  12.534  0.00  0.00    +0.000 A 
BRANCH  10  11
ATOM     11  O   UNL     1      47.642   9.372  12.588  0.00  0.00    +0.000 OA
BRANCH  11  12
ATOM     12  C   UNL     1      48.500   9.715  11.475  0.00  0.00    +0.000 C 
ATOM     13  C   UNL     1      49.980  10.033  11.802  0.00  0.00    +0.000 C 
ATOM     14  C   UNL     1      49.610  11.529  11.778  0.00  0.00    +0.000 C 
ATOM     15  C   UNL     1      48.392  11.149  10.917  0.00  0.00    +0.000 C 
BRANCH  14  16
ATOM     16  O   UNL     1      50.576  12.414  11.182  0.00  0.00    +0.000 OA
ATOM     17  H   UNL     1      51.104  11.866  10.576  0.00  0.00    +0.000 HD
ENDBRANCH  14  16
ENDBRANCH  11  12
ENDBRANCH  10  11
ENDBRANCH   1   6
BRANCH   1  18
ATOM     18  C   UNL     1      43.620   4.459  10.870  0.00  0.00    +0.000 C 
BRANCH  18  19
ATOM     19  N   UNL     1      44.418   5.060   9.793  0.00  0.00    +0.000 N 
ATOM     20  C   UNL     1      45.139   4.123   9.042  0.00  0.00    +0.000 A 
ATOM     21  C   UNL     1      45.899   4.560   7.961  0.00  0.00    +0.000 A 
ATOM     22  C   UNL     1      46.622   3.630   7.209  0.00  0.00    +0.000 A 
ATOM     23  C   UNL     1      46.570   2.276   7.546  0.00  0.00    +0.000 A 
ATOM     24  C   UNL     1      45.760   1.927   8.611  0.00  0.00    +0.000 A 
ATOM     25  N   UNL     1      45.052   2.813   9.352  0.00  0.00    +0.000 NA
ATOM     26  H   UNL     1      45.034   5.800  10.117  0.00  0.00    +0.000 HD
BRANCH  23  27
ATOM     27  C   UNL     1      47.366   1.292   6.772  0.00  0.00    +0.000 C 
ATOM     28  N   UNL     1      48.454   1.727   6.069  0.00  0.00    +0.000 N 
ATOM     29  O   UNL     1      47.052   0.107   6.762  0.00  0.00    +0.000 OA
ATOM     30  H   UNL     1      48.778   2.679   5.991  0.00  0.00    +0.000 HD
ATOM     31  H   UNL     1      48.954   1.022   5.541  0.00  0.00    +0.000 HD
ENDBRANCH  23  27
ENDBRANCH  18  19
ENDBRANCH   1  18
TORSDOF 7
ENDMDL
MODEL 4
REMARK VINA RESULT:    -6.429      4.446      8.858
REMARK INTER + INTRA:         -10.007
REMARK INTER:                  -8.853
REMARK INTRA:                  -1.154
REMARK UNBOUND:                -1.134
REMARK  Name = 
REMARK  10 active torsions:
REMARK  status: ('A' for Active; 'I' for Inactive)
REMARK    1  A    between atoms: C_1  and  C_2
REMARK    2  A    between atoms: C_4  and  C_5
REMARK    3  A    between atoms: C_5  and  C_6
REMARK    4  A    between atoms: C_5  and  C_7
REMARK    5  A    between atoms: C_7  and  N_8
REMARK    6  A    between atoms: C_12  and  C_13
REMARK    7  A    between atoms: C_19  and  C_20
REMARK    8  A    between atoms: C_21  and  O_22
REMARK    9  A    between atoms: O_22  and  C_23
REMARK   10  A    between atoms: C_25  and  O_26
REMARK                            x       y       z     vdW  Elec       q    Type
REMARK                         _______ _______ _______ _____ _____    ______ ____
ROOT
ATOM      1  C   UNL     1      49.497   7.735  12.780  0.00  0.00    +0.000 C 
ATOM      2  C   UNL     1      49.457   9.216  12.365  0.00  0.00    +0.000 C 
ENDROOT
BRANCH   1   6
ATOM      3  C   UNL     1      46.393   3.881  13.692  0.00  0.00    +0.000 C 
ATOM      4  C   UNL     1      46.561   5.280  13.161  0.00  0.00    +0.000 A 
ATOM      5  C   UNL     1      47.841   5.866  13.233  0.00  0.00    +0.000 A 
ATOM      6  C   UNL     1      48.093   7.139  12.714  0.00  0.00    +0.000 A 
ATOM      7  C   UNL     1      47.018   7.823  12.143  0.00  0.00    +0.000 A 
ATOM      8  C   UNL     1      45.715   7.293  12.086  0.00  0.00    +0.000 A 
ATOM      9  C   UNL     1      44.699   8.183  11.428  0.00  0.00    +0.000 C 
ATOM     10  C   UNL     1      45.481   6.010  12.613  0.00  0.00    +0.000 A 
BRANCH  10  11
ATOM     11  O   UNL     1      44.266   5.348  12.617  0.00  0.00    +0.000 OA
BRANCH  11  12
ATOM     12  C   UNL     1      43.728   4.844  11.373  0.00  0.00    +0.000 C 
ATOM     13  C   UNL     1      43.269   3.365  11.355  0.00  0.00    +0.000 C 
ATOM     14  C   UNL     1      44.632   3.002  10.735  0.00  0.00    +0.000 C 
ATOM     15  C   UNL     1      44.739   4.466  10.270  0.00  0.00    +0.000 C 
BRANCH  14  16
ATOM     16  O   UNL     1      44.616   1.994   9.707  0.00  0.00    +0.000 OA
ATOM     17  H   UNL     1      45.361   2.201   9.117  0.00  0.00    +0.000 HD
ENDBRANCH  14  16
ENDBRANCH  11  12
ENDBRANCH  10  11
ENDBRANCH   1   6
BRANCH   1  18
ATOM     18  C   UNL     1      50.212   7.658  14.152  0.00  0.00    +0.000 C 
BRANCH  18  19
ATOM     19  N   UNL     1      49.384   8.175  15.250  0.00  0.00    +0.000 N 
ATOM     20  C   UNL     1      49.245   7.277  16.315  0.00  0.00    +0.000 A 
ATOM     21  C   UNL     1      48.522   7.664  17.439  0.00  0.00    +0.000 A 
ATOM     22  C   UNL     1      48.378   6.772  18.505  0.00  0.00    +0.000 A 
ATOM     23  C   UNL     1      48.965   5.507  18.433  0.00  0.00    +0.000 A 
ATOM     24  C   UNL     1      49.696   5.220  17.295  0.00  0.00    +0.000 A 
ATOM     25  N   UNL     1      49.847   6.071  16.253  0.00  0.00    +0.000 NA
ATOM     26  H   UNL     1      48.472   8.501  14.943  0.00  0.00    +0.000 HD
BRANCH  23  27
ATOM     27  C   UNL     1      48.782   4.545  19.547  0.00  0.00    +0.000 C 
ATOM     28  N   UNL     1      48.411   3.261  19.259  0.00  0.00    +0.000 N 
ATOM     29  O   UNL     1      48.959   4.895  20.709  0.00  0.00    +0.000 OA
ATOM     30  H   UNL     1      48.216   2.882  18.346  0.00  0.00    +0.000 HD
ATOM     31  H   UNL     1      48.279   2.646  20.054  0.00  0.00    +0.000 HD
ENDBRANCH  23  27
ENDBRANCH  18  19
ENDBRANCH   1  18
TORSDOF 7
ENDMDL
MODEL 5
REMARK VINA RESULT:    -6.324      4.496      8.743
REMARK INTER + INTRA:          -9.862
REMARK INTER:                  -8.753
REMARK INTRA:                  -1.109
REMARK UNBOUND:                -1.134
REMARK  Name = 
REMARK  10 active torsions:
REMARK  status: ('A' for Active; 'I' for Inactive)
REMARK    1  A    between atoms: C_1  and  C_2
REMARK    2  A    between atoms: C_4  and  C_5
REMARK    3  A    between atoms: C_5  and  C_6
REMARK    4  A    between atoms: C_5  and  C_7
REMARK    5  A    between atoms: C_7  and  N_8
REMARK    6  A    between atoms: C_12  and  C_13
REMARK    7  A    between atoms: C_19  and  C_20
REMARK    8  A    between atoms: C_21  and  O_22
REMARK    9  A    between atoms: O_22  and  C_23
REMARK   10  A    between atoms: C_25  and  O_26
REMARK                            x       y       z     vdW  Elec       q    Type
REMARK                         _______ _______ _______ _____ _____    ______ ____
ROOT
ATOM      1  C   UNL     1      49.572   8.007  12.968  0.00  0.00    +0.000 C 
ATOM      2  C   UNL     1      49.468   9.535  12.822  0.00  0.00    +0.000 C 
ENDROOT
BRANCH   1   6
ATOM      3  C   UNL     1      44.752   8.427  11.586  0.00  0.00    +0.000 C 
ATOM      4  C   UNL     1      45.840   7.555  12.157  0.00  0.00    +0.000 A 
ATOM      5  C   UNL     1      47.135   8.101  12.267  0.00  0.00    +0.000 A 
ATOM      6  C   UNL     1      48.188   7.378  12.835  0.00  0.00    +0.000 A 
ATOM      7  C   UNL     1      47.913   6.079  13.267  0.00  0.00    +0.000 A 
ATOM      8  C   UNL     1      46.645   5.480  13.139  0.00  0.00    +0.000 A 
ATOM      9  C   UNL     1      46.553   4.076  13.668  0.00  0.00    +0.000 C 
ATOM     10  C   UNL     1      45.598   6.224  12.565  0.00  0.00    +0.000 A 
BRANCH  10  11
ATOM     11  O   UNL     1      44.299   5.783  12.387  0.00  0.00    +0.000 OA
BRANCH  11  12
ATOM     12  C   UNL     1      43.909   5.220  11.113  0.00  0.00    +0.000 C 
ATOM     13  C   UNL     1      43.236   3.826  11.138  0.00  0.00    +0.000 C 
ATOM     14  C   UNL     1      44.612   3.212  10.815  0.00  0.00    +0.000 C 
ATOM     15  C   UNL     1      45.022   4.585  10.253  0.00  0.00    +0.000 C 
BRANCH  14  16
ATOM     16  O   UNL     1      44.615   2.106   9.894  0.00  0.00    +0.000 OA
ATOM     17  H   UNL     1      43.988   1.455  10.254  0.00  0.00    +0.000 HD
ENDBRANCH  14  16
ENDBRANCH  11  12
ENDBRANCH  10  11
ENDBRANCH   1   6
BRANCH   1  18
ATOM     18  C   UNL     1      50.334   7.719  14.286  0.00  0.00    +0.000 C 
BRANCH  18  19
ATOM     19  N   UNL     1      49.643   8.257  15.466  0.00  0.00    +0.000 N 
ATOM     20  C   UNL     1      49.418   7.301  16.464  0.00  0.00    +0.000 A 
ATOM     21  C   UNL     1      48.813   7.693  17.654  0.00  0.00    +0.000 A 
ATOM     22  C   UNL     1      48.584   6.744  18.655  0.00  0.00    +0.000 A 
ATOM     23  C   UNL     1      48.970   5.417  18.452  0.00  0.00    +0.000 A 
ATOM     24  C   UNL     1      49.598   5.125  17.255  0.00  0.00    +0.000 A 
ATOM     25  N   UNL     1      49.828   6.030  16.274  0.00  0.00    +0.000 NA
ATOM     26  H   UNL     1      48.777   8.737  15.237  0.00  0.00    +0.000 HD
BRANCH  23  27
ATOM     27  C   UNL     1      48.694   4.401  19.496  0.00  0.00    +0.000 C 
ATOM     28  N   UNL     1      48.355   3.133  19.114  0.00  0.00    +0.000 N 
ATOM     29  O   UNL     1      48.769   4.693  20.685  0.00  0.00    +0.000 OA
ATOM     30  H   UNL     1      48.241   2.801  18.169  0.00  0.00    +0.000 HD
ATOM     31  H   UNL     1      48.157   2.480  19.862  0.00  0.00    +0.000 HD
ENDBRANCH  23  27
ENDBRANCH  18  19
ENDBRANCH   1  18
TORSDOF 7
ENDMDL
MODEL 6
REMARK VINA RESULT:    -6.315      1.490      2.489
REMARK INTER + INTRA:          -9.850
REMARK INTER:                  -9.660
REMARK INTRA:                  -0.189
REMARK UNBOUND:                -1.134
REMARK  Name = 
REMARK  10 active torsions:
REMARK  status: ('A' for Active; 'I' for Inactive)
REMARK    1  A    between atoms: C_1  and  C_2
REMARK    2  A    between atoms: C_4  and  C_5
REMARK    3  A    between atoms: C_5  and  C_6
REMARK    4  A    between atoms: C_5  and  C_7
REMARK    5  A    between atoms: C_7  and  N_8
REMARK    6  A    between atoms: C_12  and  C_13
REMARK    7  A    between atoms: C_19  and  C_20
REMARK    8  A    between atoms: C_21  and  O_22
REMARK    9  A    between atoms: O_22  and  C_23
REMARK   10  A    between atoms: C_25  and  O_26
REMARK                            x       y       z     vdW  Elec       q    Type
REMARK                         _______ _______ _______ _____ _____    ______ ____
ROOT
ATOM      1  C   UNL     1      44.615   4.435  11.920  0.00  0.00    +0.000 C 
ATOM      2  C   UNL     1      43.531   4.033  12.935  0.00  0.00    +0.000 C 
ENDROOT
BRANCH   1   6
ATOM      3  C   UNL     1      48.008   5.109  15.575  0.00  0.00    +0.000 C 
ATOM      4  C   UNL     1      47.318   5.673  14.360  0.00  0.00    +0.000 A 
ATOM      5  C   UNL     1      46.375   4.862  13.699  0.00  0.00    +0.000 A 
ATOM      6  C   UNL     1      45.652   5.328  12.597  0.00  0.00    +0.000 A 
ATOM      7  C   UNL     1      45.921   6.626  12.158  0.00  0.00    +0.000 A 
ATOM      8  C   UNL     1      46.883   7.457  12.764  0.00  0.00    +0.000 A 
ATOM      9  C   UNL     1      47.020   8.820  12.145  0.00  0.00    +0.000 C 
ATOM     10  C   UNL     1      47.600   6.969  13.871  0.00  0.00    +0.000 A 
BRANCH  10  11
ATOM     11  O   UNL     1      48.562   7.666  14.581  0.00  0.00    +0.000 OA
BRANCH  11  12
ATOM     12  C   UNL     1      49.955   7.510  14.229  0.00  0.00    +0.000 C 
ATOM     13  C   UNL     1      50.981   8.348  15.032  0.00  0.00    +0.000 C 
ATOM     14  C   UNL     1      50.965   9.375  13.883  0.00  0.00    +0.000 C 
ATOM     15  C   UNL     1      50.451   8.248  12.968  0.00  0.00    +0.000 C 
BRANCH  14  16
ATOM     16  O   UNL     1      52.231   9.965  13.538  0.00  0.00    +0.000 OA
ATOM     17  H   UNL     1      52.686   9.314  12.977  0.00  0.00    +0.000 HD
ENDBRANCH  14  16
ENDBRANCH  11  12
ENDBRANCH  10  11
ENDBRANCH   1   6
BRANCH   1  18
ATOM     18  C   UNL     1      43.895   5.033  10.686  0.00  0.00    +0.000 C 
BRANCH  18  19
ATOM     19  N   UNL     1      44.816   5.311   9.576  0.00  0.00    +0.000 N 
ATOM     20  C   UNL     1      45.345   4.156   8.987  0.00  0.00    +0.000 A 
ATOM     21  C   UNL     1      46.196   4.281   7.893  0.00  0.00    +0.000 A 
ATOM     22  C   UNL     1      46.729   3.132   7.302  0.00  0.00    +0.000 A 
ATOM     23  C   UNL     1      46.399   1.875   7.811  0.00  0.00    +0.000 A 
ATOM     24  C   UNL     1      45.519   1.843   8.876  0.00  0.00    +0.000 A 
ATOM     25  N   UNL     1      44.991   2.944   9.462  0.00  0.00    +0.000 NA
ATOM     26  H   UNL     1      45.562   5.952   9.827  0.00  0.00    +0.000 HD
BRANCH  23  27
ATOM     27  C   UNL     1      46.994   0.656   7.209  0.00  0.00    +0.000 C 
ATOM     28  N   UNL     1      47.622   0.754   5.999  0.00  0.00    +0.000 N 
ATOM     29  O   UNL     1      46.922  -0.423   7.788  0.00  0.00    +0.000 OA
ATOM     30  H   UNL     1      47.711   1.584   5.434  0.00  0.00    +0.000 HD
ATOM     31  H   UNL     1      47.995  -0.108   5.620  0.00  0.00    +0.000 HD
ENDBRANCH  23  27
ENDBRANCH  18  19
ENDBRANCH   1  18
TORSDOF 7
ENDMDL
MODEL 7
REMARK VINA RESULT:    -6.256      2.710      3.698
REMARK INTER + INTRA:          -9.768
REMARK INTER:                  -8.784
REMARK INTRA:                  -0.985
REMARK UNBOUND:                -1.134
REMARK  Name = 
REMARK  10 active torsions:
REMARK  status: ('A' for Active; 'I' for Inactive)
REMARK    1  A    between atoms: C_1  and  C_2
REMARK    2  A    between atoms: C_4  and  C_5
REMARK    3  A    between atoms: C_5  and  C_6
REMARK    4  A    between atoms: C_5  and  C_7
REMARK    5  A    between atoms: C_7  and  N_8
REMARK    6  A    between atoms: C_12  and  C_13
REMARK    7  A    between atoms: C_19  and  C_20
REMARK    8  A    between atoms: C_21  and  O_22
REMARK    9  A    between atoms: O_22  and  C_23
REMARK   10  A    between atoms: C_25  and  O_26
REMARK                            x       y       z     vdW  Elec       q    Type
REMARK                         _______ _______ _______ _____ _____    ______ ____
ROOT
ATOM      1  C   UNL     1      45.695   5.893  11.937  0.00  0.00    +0.000 C 
ATOM      2  C   UNL     1      45.164   5.364  13.280  0.00  0.00    +0.000 C 
ENDROOT
BRANCH   1   6
ATOM      3  C   UNL     1      49.352   9.133  13.141  0.00  0.00    +0.000 C 
ATOM      4  C   UNL     1      47.936   8.932  12.667  0.00  0.00    +0.000 A 
ATOM      5  C   UNL     1      47.481   7.611  12.484  0.00  0.00    +0.000 A 
ATOM      6  C   UNL     1      46.166   7.336  12.098  0.00  0.00    +0.000 A 
ATOM      7  C   UNL     1      45.323   8.427  11.876  0.00  0.00    +0.000 A 
ATOM      8  C   UNL     1      45.746   9.763  12.008  0.00  0.00    +0.000 A 
ATOM      9  C   UNL     1      44.687  10.792  11.728  0.00  0.00    +0.000 C 
ATOM     10  C   UNL     1      47.074  10.019  12.397  0.00  0.00    +0.000 A 
BRANCH  10  11
ATOM     11  O   UNL     1      47.633  11.271  12.585  0.00  0.00    +0.000 OA
BRANCH  11  12
ATOM     12  C   UNL     1      47.899  12.108  11.437  0.00  0.00    +0.000 C 
ATOM     13  C   UNL     1      48.408  11.402  10.156  0.00  0.00    +0.000 C 
ATOM     14  C   UNL     1      49.841  11.786  10.574  0.00  0.00    +0.000 C 
ATOM     15  C   UNL     1      49.222  12.903  11.434  0.00  0.00    +0.000 C 
BRANCH  14  16
ATOM     16  O   UNL     1      50.725  12.196   9.516  0.00  0.00    +0.000 OA
ATOM     17  H   UNL     1      51.146  13.017   9.821  0.00  0.00    +0.000 HD
ENDBRANCH  14  16
ENDBRANCH  11  12
ENDBRANCH  10  11
ENDBRANCH   1   6
BRANCH   1  18
ATOM     18  C   UNL     1      44.596   5.644  10.874  0.00  0.00    +0.000 C 
BRANCH  18  19
ATOM     19  N   UNL     1      44.430   4.219  10.558  0.00  0.00    +0.000 N 
ATOM     20  C   UNL     1      45.146   3.813   9.424  0.00  0.00    +0.000 A 
ATOM     21  C   UNL     1      45.111   2.474   9.045  0.00  0.00    +0.000 A 
ATOM     22  C   UNL     1      45.822   2.062   7.914  0.00  0.00    +0.000 A 
ATOM     23  C   UNL     1      46.562   2.994   7.183  0.00  0.00    +0.000 A 
ATOM     24  C   UNL     1      46.570   4.294   7.655  0.00  0.00    +0.000 A 
ATOM     25  N   UNL     1      45.889   4.713   8.747  0.00  0.00    +0.000 NA
ATOM     26  H   UNL     1      43.457   3.938  10.479  0.00  0.00    +0.000 HD
BRANCH  23  27
ATOM     27  C   UNL     1      47.287   2.566   5.962  0.00  0.00    +0.000 C 
ATOM     28  N   UNL     1      48.617   2.265   6.052  0.00  0.00    +0.000 N 
ATOM     29  O   UNL     1      46.702   2.484   4.887  0.00  0.00    +0.000 OA
ATOM     30  H   UNL     1      49.192   2.326   6.878  0.00  0.00    +0.000 HD
ATOM     31  H   UNL     1      49.073   1.997   5.188  0.00  0.00    +0.000 HD
ENDBRANCH  23  27
ENDBRANCH  18  19
ENDBRANCH   1  18
TORSDOF 7
ENDMDL
MODEL 8
REMARK VINA RESULT:    -6.192      3.557      5.795
REMARK INTER + INTRA:          -9.680
REMARK INTER:                  -8.645
REMARK INTRA:                  -1.035
REMARK UNBOUND:                -1.134
REMARK  Name = 
REMARK  10 active torsions:
REMARK  status: ('A' for Active; 'I' for Inactive)
REMARK    1  A    between atoms: C_1  and  C_2
REMARK    2  A    between atoms: C_4  and  C_5
REMARK    3  A    between atoms: C_5  and  C_6
REMARK    4  A    between atoms: C_5  and  C_7
REMARK    5  A    between atoms: C_7  and  N_8
REMARK    6  A    between atoms: C_12  and  C_13
REMARK    7  A    between atoms: C_19  and  C_20
REMARK    8  A    between atoms: C_21  and  O_22
REMARK    9  A    between atoms: O_22  and  C_23
REMARK   10  A    between atoms: C_25  and  O_26
REMARK                            x       y       z     vdW  Elec       q    Type
REMARK                         _______ _______ _______ _____ _____    ______ ____
ROOT
ATOM      1  C   UNL     1      48.557   8.589  13.614  0.00  0.00    +0.000 C 
ATOM      2  C   UNL     1      49.594   7.882  12.724  0.00  0.00    +0.000 C 
ENDROOT
BRANCH   1   6
ATOM      3  C   UNL     1      47.798   9.620  18.480  0.00  0.00    +0.000 C 
ATOM      4  C   UNL     1      48.453   8.730  17.456  0.00  0.00    +0.000 A 
ATOM      5  C   UNL     1      48.208   8.999  16.094  0.00  0.00    +0.000 A 
ATOM      6  C   UNL     1      48.818   8.255  15.080  0.00  0.00    +0.000 A 
ATOM      7  C   UNL     1      49.664   7.214  15.470  0.00  0.00    +0.000 A 
ATOM      8  C   UNL     1      49.905   6.886  16.818  0.00  0.00    +0.000 A 
ATOM      9  C   UNL     1      50.849   5.735  17.028  0.00  0.00    +0.000 C 
ATOM     10  C   UNL     1      49.281   7.646  17.823  0.00  0.00    +0.000 A 
BRANCH  10  11
ATOM     11  O   UNL     1      49.430   7.459  19.186  0.00  0.00    +0.000 OA
BRANCH  11  12
ATOM     12  C   UNL     1      48.441   6.689  19.908  0.00  0.00    +0.000 C 
ATOM     13  C   UNL     1      48.967   5.679  20.957  0.00  0.00    +0.000 C 
ATOM     14  C   UNL     1      48.823   4.575  19.892  0.00  0.00    +0.000 C 
ATOM     15  C   UNL     1      47.810   5.487  19.176  0.00  0.00    +0.000 C 
BRANCH  14  16
ATOM     16  O   UNL     1      48.336   3.302  20.355  0.00  0.00    +0.000 OA
ATOM     17  H   UNL     1      47.385   3.287  20.149  0.00  0.00    +0.000 HD
ENDBRANCH  14  16
ENDBRANCH  11  12
ENDBRANCH  10  11
ENDBRANCH   1   6
BRANCH   1  18
ATOM     18  C   UNL     1      47.154   8.228  13.066  0.00  0.00    +0.000 C 
BRANCH  18  19
ATOM     19  N   UNL     1      46.631   6.979  13.636  0.00  0.00    +0.000 N 
ATOM     20  C   UNL     1      46.066   6.124  12.681  0.00  0.00    +0.000 A 
ATOM     21  C   UNL     1      45.575   4.886  13.085  0.00  0.00    +0.000 A 
ATOM     22  C   UNL     1      45.008   4.029  12.138  0.00  0.00    +0.000 A 
ATOM     23  C   UNL     1      44.946   4.420  10.799  0.00  0.00    +0.000 A 
ATOM     24  C   UNL     1      45.490   5.651  10.481  0.00  0.00    +0.000 A 
ATOM     25  N   UNL     1      46.044   6.495  11.384  0.00  0.00    +0.000 NA
ATOM     26  H   UNL     1      45.980   7.131  14.401  0.00  0.00    +0.000 HD
BRANCH  23  27
ATOM     27  C   UNL     1      44.311   3.528   9.798  0.00  0.00    +0.000 C 
ATOM     28  N   UNL     1      44.287   3.915   8.487  0.00  0.00    +0.000 N 
ATOM     29  O   UNL     1      43.815   2.461  10.142  0.00  0.00    +0.000 OA
ATOM     30  H   UNL     1      44.641   4.779   8.109  0.00  0.00    +0.000 HD
ATOM     31  H   UNL     1      43.825   3.282   7.845  0.00  0.00    +0.000 HD
ENDBRANCH  23  27
ENDBRANCH  18  19
ENDBRANCH   1  18
TORSDOF 7
ENDMDL
MODEL 9
REMARK VINA RESULT:    -5.991      3.639      6.157
REMARK INTER + INTRA:          -9.403
REMARK INTER:                  -8.292
REMARK INTRA:                  -1.111
REMARK UNBOUND:                -1.134
REMARK  Name = 
REMARK  10 active torsions:
REMARK  status: ('A' for Active; 'I' for Inactive)
REMARK    1  A    between atoms: C_1  and  C_2
REMARK    2  A    between atoms: C_4  and  C_5
REMARK    3  A    between atoms: C_5  and  C_6
REMARK    4  A    between atoms: C_5  and  C_7
REMARK    5  A    between atoms: C_7  and  N_8
REMARK    6  A    between atoms: C_12  and  C_13
REMARK    7  A    between atoms: C_19  and  C_20
REMARK    8  A    between atoms: C_21  and  O_22
REMARK    9  A    between atoms: O_22  and  C_23
REMARK   10  A    between atoms: C_25  and  O_26
REMARK                            x       y       z     vdW  Elec       q    Type
REMARK                         _______ _______ _______ _____ _____    ______ ____
ROOT
ATOM      1  C   UNL     1      48.321   8.954  13.746  0.00  0.00    +0.000 C 
ATOM      2  C   UNL     1      49.266   8.287  12.732  0.00  0.00    +0.000 C 
ENDROOT
BRANCH   1   6
ATOM      3  C   UNL     1      50.926   5.898  16.779  0.00  0.00    +0.000 C 
ATOM      4  C   UNL     1      49.949   7.038  16.657  0.00  0.00    +0.000 A 
ATOM      5  C   UNL     1      49.618   7.490  15.364  0.00  0.00    +0.000 A 
ATOM      6  C   UNL     1      48.681   8.507  15.161  0.00  0.00    +0.000 A 
ATOM      7  C   UNL     1      48.101   9.079  16.295  0.00  0.00    +0.000 A 
ATOM      8  C   UNL     1      48.432   8.687  17.606  0.00  0.00    +0.000 A 
ATOM      9  C   UNL     1      47.695   9.422  18.691  0.00  0.00    +0.000 C 
ATOM     10  C   UNL     1      49.377   7.662  17.790  0.00  0.00    +0.000 A 
BRANCH  10  11
ATOM     11  O   UNL     1      49.794   7.156  19.009  0.00  0.00    +0.000 OA
BRANCH  11  12
ATOM     12  C   UNL     1      48.869   6.386  19.810  0.00  0.00    +0.000 C 
ATOM     13  C   UNL     1      49.434   5.135  20.527  0.00  0.00    +0.000 C 
ATOM     14  C   UNL     1      48.892   4.284  19.361  0.00  0.00    +0.000 C 
ATOM     15  C   UNL     1      47.911   5.433  19.063  0.00  0.00    +0.000 C 
BRANCH  14  16
ATOM     16  O   UNL     1      48.315   3.014  19.714  0.00  0.00    +0.000 OA
ATOM     17  H   UNL     1      48.014   2.615  18.879  0.00  0.00    +0.000 HD
ENDBRANCH  14  16
ENDBRANCH  11  12
ENDBRANCH  10  11
ENDBRANCH   1   6
BRANCH   1  18
ATOM     18  C   UNL     1      46.870   8.668  13.284  0.00  0.00    +0.000 C 
BRANCH  18  19
ATOM     19  N   UNL     1      46.814   8.050  11.952  0.00  0.00    +0.000 N 
ATOM     20  C   UNL     1      46.133   6.826  11.933  0.00  0.00    +0.000 A 
ATOM     21  C   UNL     1      45.969   6.160  10.722  0.00  0.00    +0.000 A 
ATOM     22  C   UNL     1      45.292   4.938  10.696  0.00  0.00    +0.000 A 
ATOM     23  C   UNL     1      44.784   4.402  11.881  0.00  0.00    +0.000 A 
ATOM     24  C   UNL     1      44.961   5.149  13.031  0.00  0.00    +0.000 A 
ATOM     25  N   UNL     1      45.613   6.335  13.077  0.00  0.00    +0.000 NA
ATOM     26  H   UNL     1      47.728   7.951  11.519  0.00  0.00    +0.000 HD
BRANCH  23  27
ATOM     27  C   UNL     1      44.098   3.087  11.862  0.00  0.00    +0.000 C 
ATOM     28  N   UNL     1      44.021   2.398  10.684  0.00  0.00    +0.000 N 
ATOM     29  O   UNL     1      43.607   2.626  12.886  0.00  0.00    +0.000 OA
ATOM     30  H   UNL     1      44.367   2.700   9.787  0.00  0.00    +0.000 HD
ATOM     31  H   UNL     1      43.526   1.514  10.717  0.00  0.00    +0.000 HD
ENDBRANCH  23  27
ENDBRANCH  18  19
ENDBRANCH   1  18
TORSDOF 7
ENDMDL
