MODEL 1
REMARK VINA RESULT:    -7.819      0.000      0.000
REMARK INTER + INTRA:         -11.042
REMARK INTER:                 -10.104
REMARK INTRA:                  -0.938
REMARK UNBOUND:                -0.938
REMARK  Name = 
REMARK  5 active torsions:
REMARK  status: ('A' for Active; 'I' for Inactive)
REMARK    1  A    between atoms: C_2  and  C_3
REMARK    2  A    between atoms: C_7  and  N_8
REMARK    3  A    between atoms: N_8  and  C_9
REMARK    4  A    between atoms: C_9  and  C_10
REMARK    5  A    between atoms: C_14  and  C_15
REMARK                            x       y       z     vdW  Elec       q    Type
REMARK                         _______ _______ _______ _____ _____    ______ ____
ROOT
ATOM      1  C   UNL     1      43.786   4.986  11.519  0.00  0.00    +0.000 C 
ATOM      2  C   UNL     1      42.481   5.377  12.218  0.00  0.00    +0.000 C 
ATOM      3  C   UNL     1      42.979   6.194  11.078  0.00  0.00    +0.000 C 
ENDROOT
BRANCH   1   4
ATOM      4  C   UNL     1      45.066   5.244  12.314  0.00  0.00    +0.000 A 
ATOM      5  C   UNL     1      45.642   4.267  13.134  0.00  0.00    +0.000 A 
ATOM      6  C   UNL     1      46.909   4.454  13.686  0.00  0.00    +0.000 A 
ATOM      7  C   UNL     1      47.635   5.614  13.401  0.00  0.00    +0.000 A 
ATOM      8  C   UNL     1      47.090   6.631  12.602  0.00  0.00    +0.000 A 
ATOM      9  C   UNL     1      45.778   6.448  12.141  0.00  0.00    +0.000 A 
BRANCH   8  10
ATOM     10  C   UNL     1      47.894   7.771  12.105  0.00  0.00    +0.000 A 
ATOM     11  C   UNL     1      47.361   9.072  12.113  0.00  0.00    +0.000 A 
ATOM     12  C   UNL     1      48.142  10.185  11.790  0.00  0.00    +0.000 A 
ATOM     13  C   UNL     1      49.482  10.021  11.457  0.00  0.00    +0.000 A 
ATOM     14  C   UNL     1      50.033   8.743  11.426  0.00  0.00    +0.000 A 
ATOM     15  C   UNL     1      49.245   7.630  11.737  0.00  0.00    +0.000 A 
ENDBRANCH   8  10
ENDBRANCH   1   4
BRANCH   1  16
ATOM     16  N   UNL     1      43.776   3.695  10.794  0.00  0.00    +0.000 N 
ATOM     17  H   UNL     1      43.768   2.901  11.433  0.00  0.00    +0.000 HD
BRANCH  16  22
ATOM     18  C   UNL     1      45.950   1.994   8.266  0.00  0.00    +0.000 A 
ATOM     19  C   UNL     1      46.358   3.117   7.562  0.00  0.00    +0.000 A 
ATOM     20  N   UNL     1      45.938   4.366   7.850  0.00  0.00    +0.000 NA
ATOM     21  C   UNL     1      45.082   4.490   8.896  0.00  0.00    +0.000 A 
ATOM     22  C   UNL     1      44.587   3.431   9.667  0.00  0.00    +0.000 A 
ATOM     23  C   UNL     1      45.052   2.162   9.324  0.00  0.00    +0.000 A 
BRANCH  18  25
ATOM     24  N   UNL     1      46.892  -0.342   7.657  0.00  0.00    +0.000 NA
ATOM     25  C   UNL     1      46.465   0.705   7.928  0.00  0.00    +0.000 C 
ENDBRANCH  18  25
ENDBRANCH  16  22
ENDBRANCH   1  16
TORSDOF 5
ENDMDL
MODEL 2
REMARK VINA RESULT:    -7.498      2.881      6.767
REMARK INTER + INTRA:         -10.628
REMARK INTER:                  -9.581
REMARK INTRA:                  -1.047
REMARK UNBOUND:                -0.938
REMARK  Name = 
REMARK  5 active torsions:
REMARK  status: ('A' for Active; 'I' for Inactive)
REMARK    1  A    between atoms: C_2  and  C_3
REMARK    2  A    between atoms: C_7  and  N_8
REMARK    3  A    between atoms: N_8  and  C_9
REMARK    4  A    between atoms: C_9  and  C_10
REMARK    5  A    between atoms: C_14  and  C_15
REMARK                            x       y       z     vdW  Elec       q    Type
REMARK                         _______ _______ _______ _____ _____    ______ ____
ROOT
ATOM      1  C   UNL     1      46.288   7.234  12.370  0.00  0.00    +0.000 C 
ATOM      2  C   UNL     1      46.251   8.634  11.749  0.00  0.00    +0.000 C 
ATOM      3  C   UNL     1      45.720   8.423  13.122  0.00  0.00    +0.000 C 
ENDROOT
BRANCH   1   4
ATOM      4  C   UNL     1      45.297   6.225  11.790  0.00  0.00    +0.000 A 
ATOM      5  C   UNL     1      43.914   6.354  11.969  0.00  0.00    +0.000 A 
ATOM      6  C   UNL     1      43.025   5.540  11.266  0.00  0.00    +0.000 A 
ATOM      7  C   UNL     1      43.507   4.602  10.349  0.00  0.00    +0.000 A 
ATOM      8  C   UNL     1      44.885   4.422  10.153  0.00  0.00    +0.000 A 
ATOM      9  C   UNL     1      45.749   5.193  10.945  0.00  0.00    +0.000 A 
BRANCH   8  10
ATOM     10  C   UNL     1      45.432   3.598   9.051  0.00  0.00    +0.000 A 
ATOM     11  C   UNL     1      46.073   4.208   7.959  0.00  0.00    +0.000 A 
ATOM     12  C   UNL     1      46.728   3.455   6.980  0.00  0.00    +0.000 A 
ATOM     13  C   UNL     1      46.761   2.069   7.077  0.00  0.00    +0.000 A 
ATOM     14  C   UNL     1      46.122   1.435   8.139  0.00  0.00    +0.000 A 
ATOM     15  C   UNL     1      45.457   2.191   9.110  0.00  0.00    +0.000 A 
ENDBRANCH   8  10
ENDBRANCH   1   4
BRANCH   1  16
ATOM     16  N   UNL     1      47.633   6.675  12.635  0.00  0.00    +0.000 N 
ATOM     17  H   UNL     1      47.920   6.017  11.910  0.00  0.00    +0.000 HD
BRANCH  16  22
ATOM     18  C   UNL     1      47.818   4.931  15.942  0.00  0.00    +0.000 A 
ATOM     19  C   UNL     1      48.859   5.660  16.497  0.00  0.00    +0.000 A 
ATOM     20  N   UNL     1      49.506   6.646  15.841  0.00  0.00    +0.000 NA
ATOM     21  C   UNL     1      49.079   6.916  14.582  0.00  0.00    +0.000 A 
ATOM     22  C   UNL     1      48.054   6.238  13.912  0.00  0.00    +0.000 A 
ATOM     23  C   UNL     1      47.421   5.226  14.635  0.00  0.00    +0.000 A 
BRANCH  18  25
ATOM     24  N   UNL     1      46.620   3.098  17.327  0.00  0.00    +0.000 NA
ATOM     25  C   UNL     1      47.155   3.924  16.708  0.00  0.00    +0.000 C 
ENDBRANCH  18  25
ENDBRANCH  16  22
ENDBRANCH   1  16
TORSDOF 5
ENDMDL
MODEL 3
REMARK VINA RESULT:    -6.968      2.503      6.819
REMARK INTER + INTRA:          -9.943
REMARK INTER:                  -9.889
REMARK INTRA:                  -0.055
REMARK UNBOUND:                -0.938
REMARK  Name = 
REMARK  5 active torsions:
REMARK  status: ('A' for Active; 'I' for Inactive)
REMARK    1  A    between atoms: C_2  and  C_3
REMARK    2  A    between atoms: C_7  and  N_8
REMARK    3  A    between atoms: N_8  and  C_9
REMARK    4  A    between atoms: C_9  and  C_10
REMARK    5  A    between atoms: C_14  and  C_15
REMARK                            x       y       z     vdW  Elec       q    Type
REMARK                         _______ _______ _______ _____ _____    ______ ____
ROOT
ATOM      1  C   UNL     1      44.755   3.437  12.224  0.00  0.00    +0.000 C 
ATOM      2  C   UNL     1      43.545   4.029  12.952  0.00  0.00    +0.000 C 
ATOM      3  C   UNL     1      43.460   2.661  12.373  0.00  0.00    +0.000 C 
ENDROOT
BRANCH   1   4
ATOM      4  C   UNL     1      45.065   4.040  10.854  0.00  0.00    +0.000 A 
ATOM      5  C   UNL     1      45.315   5.407  10.682  0.00  0.00    +0.000 A 
ATOM      6  C   UNL     1      45.791   5.897   9.465  0.00  0.00    +0.000 A 
ATOM      7  C   UNL     1      46.052   5.021   8.409  0.00  0.00    +0.000 A 
ATOM      8  C   UNL     1      45.796   3.646   8.527  0.00  0.00    +0.000 A 
ATOM      9  C   UNL     1      45.231   3.203   9.733  0.00  0.00    +0.000 A 
BRANCH   8  10
ATOM     10  C   UNL     1      46.250   2.661   7.520  0.00  0.00    +0.000 A 
ATOM     11  C   UNL     1      46.510   3.066   6.198  0.00  0.00    +0.000 A 
ATOM     12  C   UNL     1      47.079   2.194   5.264  0.00  0.00    +0.000 A 
ATOM     13  C   UNL     1      47.406   0.895   5.636  0.00  0.00    +0.000 A 
ATOM     14  C   UNL     1      47.146   0.462   6.932  0.00  0.00    +0.000 A 
ATOM     15  C   UNL     1      46.566   1.332   7.861  0.00  0.00    +0.000 A 
ENDBRANCH   8  10
ENDBRANCH   1   4
BRANCH   1  16
ATOM     16  N   UNL     1      45.954   3.181  13.055  0.00  0.00    +0.000 N 
ATOM     17  H   UNL     1      45.841   2.352  13.638  0.00  0.00    +0.000 HD
BRANCH  16  22
ATOM     18  C   UNL     1      47.814   6.321  13.883  0.00  0.00    +0.000 A 
ATOM     19  C   UNL     1      48.213   5.987  15.168  0.00  0.00    +0.000 A 
ATOM     20  N   UNL     1      47.881   4.827  15.770  0.00  0.00    +0.000 NA
ATOM     21  C   UNL     1      47.127   3.963  15.044  0.00  0.00    +0.000 A 
ATOM     22  C   UNL     1      46.650   4.198  13.748  0.00  0.00    +0.000 A 
ATOM     23  C   UNL     1      47.021   5.414  13.175  0.00  0.00    +0.000 A 
BRANCH  18  25
ATOM     24  N   UNL     1      48.582   8.560  12.827  0.00  0.00    +0.000 NA
ATOM     25  C   UNL     1      48.234   7.554  13.296  0.00  0.00    +0.000 C 
ENDBRANCH  18  25
ENDBRANCH  16  22
ENDBRANCH   1  16
TORSDOF 5
ENDMDL
MODEL 4
REMARK VINA RESULT:    -6.928      3.114      6.968
REMARK INTER + INTRA:          -9.892
REMARK INTER:                  -8.893
REMARK INTRA:                  -0.999
REMARK UNBOUND:                -0.938
REMARK  Name = 
REMARK  5 active torsions:
REMARK  status: ('A' for Active; 'I' for Inactive)
REMARK    1  A    between atoms: C_2  and  C_3
REMARK    2  A    between atoms: C_7  and  N_8
REMARK    3  A    between atoms: N_8  and  C_9
REMARK    4  A    between atoms: C_9  and  C_10
REMARK    5  A    between atoms: C_14  and  C_15
REMARK                            x       y       z     vdW  Elec       q    Type
REMARK                         _______ _______ _______ _____ _____    ______ ____
ROOT
ATOM      1  C   UNL     1      45.917   7.013  12.568  0.00  0.00    +0.000 C 
ATOM      2  C   UNL     1      46.988   6.580  13.574  0.00  0.00    +0.000 C 
ATOM      3  C   UNL     1      47.391   7.006  12.207  0.00  0.00    +0.000 C 
ENDROOT
BRANCH   1   4
ATOM      4  C   UNL     1      45.045   5.892  12.003  0.00  0.00    +0.000 A 
ATOM      5  C   UNL     1      43.678   5.798  12.286  0.00  0.00    +0.000 A 
ATOM      6  C   UNL     1      42.868   4.891  11.602  0.00  0.00    +0.000 A 
ATOM      7  C   UNL     1      43.411   4.082  10.600  0.00  0.00    +0.000 A 
ATOM      8  C   UNL     1      44.780   4.125  10.297  0.00  0.00    +0.000 A 
ATOM      9  C   UNL     1      45.579   4.982  11.069  0.00  0.00    +0.000 A 
BRANCH   8  10
ATOM     10  C   UNL     1      45.356   3.447   9.113  0.00  0.00    +0.000 A 
ATOM     11  C   UNL     1      45.889   4.201   8.052  0.00  0.00    +0.000 A 
ATOM     12  C   UNL     1      46.570   3.595   6.993  0.00  0.00    +0.000 A 
ATOM     13  C   UNL     1      46.740   2.215   6.975  0.00  0.00    +0.000 A 
ATOM     14  C   UNL     1      46.210   1.441   8.003  0.00  0.00    +0.000 A 
ATOM     15  C   UNL     1      45.518   2.050   9.056  0.00  0.00    +0.000 A 
ENDBRANCH   8  10
ENDBRANCH   1   4
BRANCH   1  16
ATOM     16  N   UNL     1      45.170   8.247  12.903  0.00  0.00    +0.000 N 
ATOM     17  H   UNL     1      44.231   8.042  13.242  0.00  0.00    +0.000 HD
BRANCH  16  22
ATOM     18  C   UNL     1      44.381  10.747  10.231  0.00  0.00    +0.000 A 
ATOM     19  C   UNL     1      45.457  11.599  10.427  0.00  0.00    +0.000 A 
ATOM     20  N   UNL     1      46.384  11.414  11.390  0.00  0.00    +0.000 NA
ATOM     21  C   UNL     1      46.226  10.321  12.178  0.00  0.00    +0.000 A 
ATOM     22  C   UNL     1      45.174   9.402  12.088  0.00  0.00    +0.000 A 
ATOM     23  C   UNL     1      44.243   9.643  11.077  0.00  0.00    +0.000 A 
BRANCH  18  25
ATOM     24  N   UNL     1      42.701  11.184   8.307  0.00  0.00    +0.000 NA
ATOM     25  C   UNL     1      43.458  10.985   9.167  0.00  0.00    +0.000 C 
ENDBRANCH  18  25
ENDBRANCH  16  22
ENDBRANCH   1  16
TORSDOF 5
ENDMDL
MODEL 5
REMARK VINA RESULT:    -6.711      2.961      7.105
REMARK INTER + INTRA:          -9.611
REMARK INTER:                  -8.702
REMARK INTRA:                  -0.909
REMARK UNBOUND:                -0.938
REMARK  Name = 
REMARK  5 active torsions:
REMARK  status: ('A' for Active; 'I' for Inactive)
REMARK    1  A    between atoms: C_2  and  C_3
REMARK    2  A    between atoms: C_7  and  N_8
REMARK    3  A    between atoms: N_8  and  C_9
REMARK    4  A    between atoms: C_9  and  C_10
REMARK    5  A    between atoms: C_14  and  C_15
REMARK                            x       y       z     vdW  Elec       q    Type
REMARK                         _______ _______ _______ _____ _____    ______ ____
ROOT
ATOM      1  C   UNL     1      46.410   6.603  12.970  0.00  0.00    +0.000 C 
ATOM      2  C   UNL     1      47.184   5.792  14.014  0.00  0.00    +0.000 C 
ATOM      3  C   UNL     1      47.859   6.208  12.754  0.00  0.00    +0.000 C 
ENDROOT
BRANCH   1   4
ATOM      4  C   UNL     1      45.344   5.834  12.190  0.00  0.00    +0.000 A 
ATOM      5  C   UNL     1      43.984   6.154  12.275  0.00  0.00    +0.000 A 
ATOM      6  C   UNL     1      43.059   5.575  11.406  0.00  0.00    +0.000 A 
ATOM      7  C   UNL     1      43.487   4.685  10.417  0.00  0.00    +0.000 A 
ATOM      8  C   UNL     1      44.836   4.316  10.308  0.00  0.00    +0.000 A 
ATOM      9  C   UNL     1      45.722   4.847  11.258  0.00  0.00    +0.000 A 
BRANCH   8  10
ATOM     10  C   UNL     1      45.362   3.549   9.157  0.00  0.00    +0.000 A 
ATOM     11  C   UNL     1      45.947   4.217   8.066  0.00  0.00    +0.000 A 
ATOM     12  C   UNL     1      46.583   3.518   7.036  0.00  0.00    +0.000 A 
ATOM     13  C   UNL     1      46.655   2.130   7.078  0.00  0.00    +0.000 A 
ATOM     14  C   UNL     1      46.073   1.441   8.137  0.00  0.00    +0.000 A 
ATOM     15  C   UNL     1      45.426   2.142   9.161  0.00  0.00    +0.000 A 
ENDBRANCH   8  10
ENDBRANCH   1   4
BRANCH   1  16
ATOM     16  N   UNL     1      45.993   7.964  13.380  0.00  0.00    +0.000 N 
ATOM     17  H   UNL     1      45.093   7.957  13.858  0.00  0.00    +0.000 HD
BRANCH  16  22
ATOM     18  C   UNL     1      47.379  10.840  11.427  0.00  0.00    +0.000 A 
ATOM     19  C   UNL     1      46.182  11.456  11.097  0.00  0.00    +0.000 A 
ATOM     20  N   UNL     1      44.975  10.967  11.448  0.00  0.00    +0.000 NA
ATOM     21  C   UNL     1      44.975   9.818  12.169  0.00  0.00    +0.000 A 
ATOM     22  C   UNL     1      46.115   9.097  12.544  0.00  0.00    +0.000 A 
ATOM     23  C   UNL     1      47.336   9.647  12.154  0.00  0.00    +0.000 A 
BRANCH  18  25
ATOM     24  N   UNL     1      49.634  11.927  10.754  0.00  0.00    +0.000 NA
ATOM     25  C   UNL     1      48.623  11.435  11.052  0.00  0.00    +0.000 C 
ENDBRANCH  18  25
ENDBRANCH  16  22
ENDBRANCH   1  16
TORSDOF 5
ENDMDL
MODEL 6
REMARK VINA RESULT:    -6.639      2.716      6.423
REMARK INTER + INTRA:          -9.518
REMARK INTER:                  -8.333
REMARK INTRA:                  -1.185
REMARK UNBOUND:                -0.938
REMARK  Name = 
REMARK  5 active torsions:
REMARK  status: ('A' for Active; 'I' for Inactive)
REMARK    1  A    between atoms: C_2  and  C_3
REMARK    2  A    between atoms: C_7  and  N_8
REMARK    3  A    between atoms: N_8  and  C_9
REMARK    4  A    between atoms: C_9  and  C_10
REMARK    5  A    between atoms: C_14  and  C_15
REMARK                            x       y       z     vdW  Elec       q    Type
REMARK                         _______ _______ _______ _____ _____    ______ ____
ROOT
ATOM      1  C   UNL     1      46.406   5.184  13.684  0.00  0.00    +0.000 C 
ATOM      2  C   UNL     1      46.300   4.272  14.910  0.00  0.00    +0.000 C 
ATOM      3  C   UNL     1      47.397   4.061  13.928  0.00  0.00    +0.000 C 
ENDROOT
BRANCH   1   4
ATOM      4  C   UNL     1      45.346   4.969  12.604  0.00  0.00    +0.000 A 
ATOM      5  C   UNL     1      44.147   5.691  12.584  0.00  0.00    +0.000 A 
ATOM      6  C   UNL     1      43.292   5.624  11.483  0.00  0.00    +0.000 A 
ATOM      7  C   UNL     1      43.638   4.852  10.371  0.00  0.00    +0.000 A 
ATOM      8  C   UNL     1      44.819   4.093  10.355  0.00  0.00    +0.000 A 
ATOM      9  C   UNL     1      45.607   4.113  11.515  0.00  0.00    +0.000 A 
BRANCH   8  10
ATOM     10  C   UNL     1      45.326   3.434   9.130  0.00  0.00    +0.000 A 
ATOM     11  C   UNL     1      45.764   4.205   8.039  0.00  0.00    +0.000 A 
ATOM     12  C   UNL     1      46.384   3.620   6.930  0.00  0.00    +0.000 A 
ATOM     13  C   UNL     1      46.585   2.245   6.893  0.00  0.00    +0.000 A 
ATOM     14  C   UNL     1      46.148   1.454   7.952  0.00  0.00    +0.000 A 
ATOM     15  C   UNL     1      45.518   2.041   9.054  0.00  0.00    +0.000 A 
ENDBRANCH   8  10
ENDBRANCH   1   4
BRANCH   1  16
ATOM     16  N   UNL     1      46.710   6.607  13.956  0.00  0.00    +0.000 N 
ATOM     17  H   UNL     1      45.908   7.098  14.351  0.00  0.00    +0.000 HD
BRANCH  16  22
ATOM     18  C   UNL     1      49.344   8.010  11.697  0.00  0.00    +0.000 A 
ATOM     19  C   UNL     1      48.790   9.264  11.494  0.00  0.00    +0.000 A 
ATOM     20  N   UNL     1      47.609   9.648  12.022  0.00  0.00    +0.000 NA
ATOM     21  C   UNL     1      46.968   8.735  12.795  0.00  0.00    +0.000 A 
ATOM     22  C   UNL     1      47.418   7.435  13.055  0.00  0.00    +0.000 A 
ATOM     23  C   UNL     1      48.643   7.091  12.482  0.00  0.00    +0.000 A 
BRANCH  18  25
ATOM     24  N   UNL     1      51.655   7.431  10.676  0.00  0.00    +0.000 NA
ATOM     25  C   UNL     1      50.616   7.686  11.134  0.00  0.00    +0.000 C 
ENDBRANCH  18  25
ENDBRANCH  16  22
ENDBRANCH   1  16
TORSDOF 5
ENDMDL
MODEL 7
REMARK VINA RESULT:    -6.486      3.355      7.232
REMARK INTER + INTRA:          -9.320
REMARK INTER:                  -8.205
REMARK INTRA:                  -1.115
REMARK UNBOUND:                -0.938
REMARK  Name = 
REMARK  5 active torsions:
REMARK  status: ('A' for Active; 'I' for Inactive)
REMARK    1  A    between atoms: C_2  and  C_3
REMARK    2  A    between atoms: C_7  and  N_8
REMARK    3  A    between atoms: N_8  and  C_9
REMARK    4  A    between atoms: C_9  and  C_10
REMARK    5  A    between atoms: C_14  and  C_15
REMARK                            x       y       z     vdW  Elec       q    Type
REMARK                         _______ _______ _______ _____ _____    ______ ____
ROOT
ATOM      1  C   UNL     1      48.761   8.161  12.671  0.00  0.00    +0.000 C 
ATOM      2  C   UNL     1      49.529   8.805  11.513  0.00  0.00    +0.000 C 
ATOM      3  C   UNL     1      49.169   9.622  12.703  0.00  0.00    +0.000 C 
ENDROOT
BRANCH   1   4
ATOM      4  C   UNL     1      47.291   7.844  12.397  0.00  0.00    +0.000 A 
ATOM      5  C   UNL     1      46.281   8.799  12.558  0.00  0.00    +0.000 A 
ATOM      6  C   UNL     1      44.983   8.548  12.111  0.00  0.00    +0.000 A 
ATOM      7  C   UNL     1      44.683   7.344  11.468  0.00  0.00    +0.000 A 
ATOM      8  C   UNL     1      45.657   6.348  11.304  0.00  0.00    +0.000 A 
ATOM      9  C   UNL     1      46.925   6.598  11.848  0.00  0.00    +0.000 A 
BRANCH   8  10
ATOM     10  C   UNL     1      45.442   5.156  10.452  0.00  0.00    +0.000 A 
ATOM     11  C   UNL     1      44.742   4.043  10.951  0.00  0.00    +0.000 A 
ATOM     12  C   UNL     1      44.396   2.967  10.128  0.00  0.00    +0.000 A 
ATOM     13  C   UNL     1      44.738   2.984   8.781  0.00  0.00    +0.000 A 
ATOM     14  C   UNL     1      45.444   4.065   8.262  0.00  0.00    +0.000 A 
ATOM     15  C   UNL     1      45.800   5.135   9.090  0.00  0.00    +0.000 A 
ENDBRANCH   8  10
ENDBRANCH   1   4
BRANCH   1  16
ATOM     16  N   UNL     1      49.478   7.103  13.418  0.00  0.00    +0.000 N 
ATOM     17  H   UNL     1      49.596   6.258  12.860  0.00  0.00    +0.000 HD
BRANCH  16  22
ATOM     18  C   UNL     1      48.132   5.486  16.515  0.00  0.00    +0.000 A 
ATOM     19  C   UNL     1      48.557   6.430  17.437  0.00  0.00    +0.000 A 
ATOM     20  N   UNL     1      49.274   7.523  17.102  0.00  0.00    +0.000 NA
ATOM     21  C   UNL     1      49.562   7.678  15.786  0.00  0.00    +0.000 A 
ATOM     22  C   UNL     1      49.204   6.785  14.768  0.00  0.00    +0.000 A 
ATOM     23  C   UNL     1      48.467   5.671  15.170  0.00  0.00    +0.000 A 
BRANCH  18  25
ATOM     24  N   UNL     1      46.702   3.461  17.270  0.00  0.00    +0.000 NA
ATOM     25  C   UNL     1      47.346   4.371  16.936  0.00  0.00    +0.000 C 
ENDBRANCH  18  25
ENDBRANCH  16  22
ENDBRANCH   1  16
TORSDOF 5
ENDMDL
MODEL 8
REMARK VINA RESULT:    -6.318      2.129      4.458
REMARK INTER + INTRA:          -9.103
REMARK INTER:                  -8.219
REMARK INTRA:                  -0.884
REMARK UNBOUND:                -0.938
REMARK  Name = 
REMARK  5 active torsions:
REMARK  status: ('A' for Active; 'I' for Inactive)
REMARK    1  A    between atoms: C_2  and  C_3
REMARK    2  A    between atoms: C_7  and  N_8
REMARK    3  A    between atoms: N_8  and  C_9
REMARK    4  A    between atoms: C_9  and  C_10
REMARK    5  A    between atoms: C_14  and  C_15
REMARK                            x       y       z     vdW  Elec       q    Type
REMARK                         _______ _______ _______ _____ _____    ______ ____
ROOT
ATOM      1  C   UNL     1      45.143   7.858  12.047  0.00  0.00    +0.000 C 
ATOM      2  C   UNL     1      44.700   9.233  12.554  0.00  0.00    +0.000 C 
ATOM      3  C   UNL     1      45.017   9.047  11.112  0.00  0.00    +0.000 C 
ENDROOT
BRANCH   1   4
ATOM      4  C   UNL     1      46.552   7.424  12.452  0.00  0.00    +0.000 A 
ATOM      5  C   UNL     1      47.698   8.015  11.907  0.00  0.00    +0.000 A 
ATOM      6  C   UNL     1      48.960   7.746  12.437  0.00  0.00    +0.000 A 
ATOM      7  C   UNL     1      49.092   6.900  13.542  0.00  0.00    +0.000 A 
ATOM      8  C   UNL     1      47.975   6.268  14.108  0.00  0.00    +0.000 A 
ATOM      9  C   UNL     1      46.735   6.490  13.491  0.00  0.00    +0.000 A 
BRANCH   8  10
ATOM     10  C   UNL     1      48.039   5.538  15.395  0.00  0.00    +0.000 A 
ATOM     11  C   UNL     1      47.307   4.351  15.574  0.00  0.00    +0.000 A 
ATOM     12  C   UNL     1      47.460   3.563  16.719  0.00  0.00    +0.000 A 
ATOM     13  C   UNL     1      48.357   3.945  17.710  0.00  0.00    +0.000 A 
ATOM     14  C   UNL     1      49.084   5.123  17.567  0.00  0.00    +0.000 A 
ATOM     15  C   UNL     1      48.920   5.915  16.426  0.00  0.00    +0.000 A 
ENDBRANCH   8  10
ENDBRANCH   1   4
BRANCH   1  16
ATOM     16  N   UNL     1      44.133   6.778  12.126  0.00  0.00    +0.000 N 
ATOM     17  H   UNL     1      43.846   6.597  13.088  0.00  0.00    +0.000 HD
BRANCH  16  22
ATOM     18  C   UNL     1      44.957   4.240   9.502  0.00  0.00    +0.000 A 
ATOM     19  C   UNL     1      44.111   3.228   9.926  0.00  0.00    +0.000 A 
ATOM     20  N   UNL     1      43.330   3.324  11.022  0.00  0.00    +0.000 NA
ATOM     21  C   UNL     1      43.396   4.492  11.710  0.00  0.00    +0.000 A 
ATOM     22  C   UNL     1      44.224   5.575  11.389  0.00  0.00    +0.000 A 
ATOM     23  C   UNL     1      45.011   5.420  10.248  0.00  0.00    +0.000 A 
BRANCH  18  25
ATOM     24  N   UNL     1      46.350   3.956   7.334  0.00  0.00    +0.000 NA
ATOM     25  C   UNL     1      45.729   4.081   8.310  0.00  0.00    +0.000 C 
ENDBRANCH  18  25
ENDBRANCH  16  22
ENDBRANCH   1  16
TORSDOF 5
ENDMDL
MODEL 9
REMARK VINA RESULT:    -6.256      3.153      5.716
REMARK INTER + INTRA:          -9.022
REMARK INTER:                  -8.145
REMARK INTRA:                  -0.877
REMARK UNBOUND:                -0.938
REMARK  Name = 
REMARK  5 active torsions:
REMARK  status: ('A' for Active; 'I' for Inactive)
REMARK    1  A    between atoms: C_2  and  C_3
REMARK    2  A    between atoms: C_7  and  N_8
REMARK    3  A    between atoms: N_8  and  C_9
REMARK    4  A    between atoms: C_9  and  C_10
REMARK    5  A    between atoms: C_14  and  C_15
REMARK                            x       y       z     vdW  Elec       q    Type
REMARK                         _______ _______ _______ _____ _____    ______ ____
ROOT
ATOM      1  C   UNL     1      47.614   7.953  12.925  0.00  0.00    +0.000 C 
ATOM      2  C   UNL     1      47.992   9.162  12.064  0.00  0.00    +0.000 C 
ATOM      3  C   UNL     1      48.597   7.834  11.775  0.00  0.00    +0.000 C 
ENDROOT
BRANCH   1   4
ATOM      4  C   UNL     1      48.182   7.946  14.344  0.00  0.00    +0.000 A 
ATOM      5  C   UNL     1      48.087   9.057  15.188  0.00  0.00    +0.000 A 
ATOM      6  C   UNL     1      48.429   8.960  16.538  0.00  0.00    +0.000 A 
ATOM      7  C   UNL     1      48.847   7.737  17.069  0.00  0.00    +0.000 A 
ATOM      8  C   UNL     1      48.979   6.601  16.256  0.00  0.00    +0.000 A 
ATOM      9  C   UNL     1      48.715   6.760  14.888  0.00  0.00    +0.000 A 
BRANCH   8  10
ATOM     10  C   UNL     1      49.212   5.247  16.810  0.00  0.00    +0.000 A 
ATOM     11  C   UNL     1      48.241   4.241  16.658  0.00  0.00    +0.000 A 
ATOM     12  C   UNL     1      48.492   2.919  17.037  0.00  0.00    +0.000 A 
ATOM     13  C   UNL     1      49.727   2.572  17.573  0.00  0.00    +0.000 A 
ATOM     14  C   UNL     1      50.702   3.549  17.749  0.00  0.00    +0.000 A 
ATOM     15  C   UNL     1      50.444   4.874  17.379  0.00  0.00    +0.000 A 
ENDBRANCH   8  10
ENDBRANCH   1   4
BRANCH   1  16
ATOM     16  N   UNL     1      46.205   7.505  12.837  0.00  0.00    +0.000 N 
ATOM     17  H   UNL     1      45.659   7.809  13.643  0.00  0.00    +0.000 HD
BRANCH  16  22
ATOM     18  C   UNL     1      45.066   4.582  10.795  0.00  0.00    +0.000 A 
ATOM     19  C   UNL     1      44.875   3.676  11.827  0.00  0.00    +0.000 A 
ATOM     20  N   UNL     1      45.128   3.962  13.121  0.00  0.00    +0.000 NA
ATOM     21  C   UNL     1      45.579   5.214  13.386  0.00  0.00    +0.000 A 
ATOM     22  C   UNL     1      45.827   6.205  12.429  0.00  0.00    +0.000 A 
ATOM     23  C   UNL     1      45.552   5.855  11.107  0.00  0.00    +0.000 A 
BRANCH  18  25
ATOM     24  N   UNL     1      44.480   3.937   8.354  0.00  0.00    +0.000 NA
ATOM     25  C   UNL     1      44.743   4.221   9.451  0.00  0.00    +0.000 C 
ENDBRANCH  18  25
ENDBRANCH  16  22
ENDBRANCH   1  16
TORSDOF 5
ENDMDL
