MODEL 1
REMARK VINA RESULT:    -7.711      0.000      0.000
REMARK INTER + INTRA:         -11.452
REMARK INTER:                 -10.415
REMARK INTRA:                  -1.037
REMARK UNBOUND:                -1.037
REMARK  Name = 
REMARK  7 active torsions:
REMARK  status: ('A' for Active; 'I' for Inactive)
REMARK    1  A    between atoms: C_1  and  O_2
REMARK    2  A    between atoms: O_2  and  C_3
REMARK    3  A    between atoms: C_7  and  C_8
REMARK    4  A    between atoms: C_8  and  C_9
REMARK    5  A    between atoms: C_12  and  C_13
REMARK    6  A    between atoms: C_13  and  N_14
REMARK    7  A    between atoms: C_15  and  C_17
REMARK                            x       y       z     vdW  Elec       q    Type
REMARK                         _______ _______ _______ _____ _____    ______ ____
ROOT
ATOM      1  C   UNL     1      47.264   8.168  13.536  0.00  0.00    +0.000 C 
ENDROOT
BRANCH   1   5
ATOM      2  C   UNL     1      44.656   5.529  11.292  0.00  0.00    +0.000 A 
ATOM      3  C   UNL     1      44.360   6.894  11.408  0.00  0.00    +0.000 A 
ATOM      4  C   UNL     1      45.185   7.746  12.151  0.00  0.00    +0.000 A 
ATOM      5  C   UNL     1      46.328   7.251  12.793  0.00  0.00    +0.000 A 
ATOM      6  C   UNL     1      46.592   5.877  12.723  0.00  0.00    +0.000 A 
ATOM      7  C   UNL     1      45.773   5.026  11.973  0.00  0.00    +0.000 A 
BRANCH   2   8
ATOM      8  C   UNL     1      43.817   4.633  10.406  0.00  0.00    +0.000 C 
BRANCH   8  13
ATOM      9  C   UNL     1      46.009   3.465   7.509  0.00  0.00    +0.000 A 
ATOM     10  C   UNL     1      46.026   2.106   7.810  0.00  0.00    +0.000 A 
ATOM     11  N   UNL     1      45.412   1.550   8.878  0.00  0.00    +0.000 NA
ATOM     12  C   UNL     1      44.727   2.391   9.682  0.00  0.00    +0.000 A 
ATOM     13  C   UNL     1      44.638   3.766   9.484  0.00  0.00    +0.000 A 
ATOM     14  C   UNL     1      45.304   4.302   8.372  0.00  0.00    +0.000 A 
BRANCH   9  16
ATOM     15  C   UNL     1      46.855   2.846   5.382  0.00  0.00    +0.000 C 
ATOM     16  O   UNL     1      46.682   3.841   6.383  0.00  0.00    +0.000 OA
ENDBRANCH   9  16
ENDBRANCH   8  13
ENDBRANCH   2   8
ENDBRANCH   1   5
BRANCH   1  17
ATOM     17  N   UNL     1      47.713   7.598  14.781  0.00  0.00    +0.000 N 
ATOM     18  C   UNL     1      48.965   7.034  14.881  0.00  0.00    +0.000 C 
ATOM     19  O   UNL     1      49.752   7.031  13.939  0.00  0.00    +0.000 OA
ATOM     20  H   UNL     1      47.005   7.365  15.471  0.00  0.00    +0.000 HD
BRANCH  18  21
ATOM     21  C   UNL     1      49.337   6.483  16.188  0.00  0.00    +0.000 A 
ATOM     22  C   UNL     1      50.358   7.078  16.917  0.00  0.00    +0.000 A 
ATOM     23  S   UNL     1      50.655   6.326  18.420  0.00  0.00    +0.000 S 
ATOM     24  C   UNL     1      49.462   5.150  18.128  0.00  0.00    +0.000 A 
ATOM     25  N   UNL     1      49.227   4.155  19.026  0.00  0.00    +0.000 NA
ATOM     26  C   UNL     1      48.312   3.319  18.665  0.00  0.00    +0.000 A 
ATOM     27  N   UNL     1      47.604   3.391  17.493  0.00  0.00    +0.000 N 
ATOM     28  C   UNL     1      47.785   4.396  16.571  0.00  0.00    +0.000 A 
ATOM     29  O   UNL     1      47.100   4.462  15.557  0.00  0.00    +0.000 OA
ATOM     30  C   UNL     1      48.821   5.349  16.917  0.00  0.00    +0.000 A 
ATOM     31  H   UNL     1      46.889   2.712  17.278  0.00  0.00    +0.000 HD
ENDBRANCH  18  21
ENDBRANCH   1  17
TORSDOF 6
ENDMDL
MODEL 2
REMARK VINA RESULT:    -7.320      2.499      2.994
REMARK INTER + INTRA:         -10.925
REMARK INTER:                  -9.921
REMARK INTRA:                  -1.004
REMARK UNBOUND:                -1.037
REMARK  Name = 
REMARK  7 active torsions:
REMARK  status: ('A' for Active; 'I' for Inactive)
REMARK    1  A    between atoms: C_1  and  O_2
REMARK    2  A    between atoms: O_2  and  C_3
REMARK    3  A    between atoms: C_7  and  C_8
REMARK    4  A    between atoms: C_8  and  C_9
REMARK    5  A    between atoms: C_12  and  C_13
REMARK    6  A    between atoms: C_13  and  N_14
REMARK    7  A    between atoms: C_15  and  C_17
REMARK                            x       y       z     vdW  Elec       q    Type
REMARK                         _______ _______ _______ _____ _____    ______ ____
ROOT
ATOM      1  C   UNL     1      48.399   6.628  14.490  0.00  0.00    +0.000 C 
ENDROOT
BRANCH   1   5
ATOM      2  C   UNL     1      45.311   4.855  12.016  0.00  0.00    +0.000 A 
ATOM      3  C   UNL     1      45.617   6.218  11.905  0.00  0.00    +0.000 A 
ATOM      4  C   UNL     1      46.596   6.801  12.718  0.00  0.00    +0.000 A 
ATOM      5  C   UNL     1      47.293   6.031  13.659  0.00  0.00    +0.000 A 
ATOM      6  C   UNL     1      46.947   4.682  13.807  0.00  0.00    +0.000 A 
ATOM      7  C   UNL     1      45.975   4.096  12.989  0.00  0.00    +0.000 A 
BRANCH   2   8
ATOM      8  C   UNL     1      44.324   4.209  11.067  0.00  0.00    +0.000 C 
BRANCH   8  13
ATOM      9  C   UNL     1      45.910   1.922   8.455  0.00  0.00    +0.000 A 
ATOM     10  C   UNL     1      46.200   2.889   7.496  0.00  0.00    +0.000 A 
ATOM     11  N   UNL     1      45.904   4.202   7.619  0.00  0.00    +0.000 NA
ATOM     12  C   UNL     1      45.300   4.577   8.766  0.00  0.00    +0.000 A 
ATOM     13  C   UNL     1      44.960   3.703   9.796  0.00  0.00    +0.000 A 
ATOM     14  C   UNL     1      45.272   2.347   9.619  0.00  0.00    +0.000 A 
BRANCH   9  16
ATOM     15  C   UNL     1      47.087   0.473   6.993  0.00  0.00    +0.000 C 
ATOM     16  O   UNL     1      46.291   0.645   8.159  0.00  0.00    +0.000 OA
ENDBRANCH   9  16
ENDBRANCH   8  13
ENDBRANCH   2   8
ENDBRANCH   1   5
BRANCH   1  17
ATOM     17  N   UNL     1      48.137   6.522  15.903  0.00  0.00    +0.000 N 
ATOM     18  C   UNL     1      49.107   6.053  16.760  0.00  0.00    +0.000 C 
ATOM     19  O   UNL     1      50.229   5.750  16.366  0.00  0.00    +0.000 OA
ATOM     20  H   UNL     1      47.166   6.520  16.200  0.00  0.00    +0.000 HD
BRANCH  18  21
ATOM     21  C   UNL     1      48.753   5.984  18.182  0.00  0.00    +0.000 A 
ATOM     22  C   UNL     1      48.921   4.792  18.873  0.00  0.00    +0.000 A 
ATOM     23  S   UNL     1      48.478   4.884  20.518  0.00  0.00    +0.000 S 
ATOM     24  C   UNL     1      48.000   6.508  20.353  0.00  0.00    +0.000 A 
ATOM     25  N   UNL     1      47.476   7.192  21.406  0.00  0.00    +0.000 NA
ATOM     26  C   UNL     1      47.134   8.407  21.133  0.00  0.00    +0.000 A 
ATOM     27  N   UNL     1      47.277   9.003  19.906  0.00  0.00    +0.000 N 
ATOM     28  C   UNL     1      47.831   8.361  18.823  0.00  0.00    +0.000 A 
ATOM     29  O   UNL     1      47.993   8.938  17.754  0.00  0.00    +0.000 OA
ATOM     30  C   UNL     1      48.209   6.984  19.070  0.00  0.00    +0.000 A 
ATOM     31  H   UNL     1      47.003   9.964  19.764  0.00  0.00    +0.000 HD
ENDBRANCH  18  21
ENDBRANCH   1  17
TORSDOF 6
ENDMDL
MODEL 3
REMARK VINA RESULT:    -7.221      1.708      1.976
REMARK INTER + INTRA:         -10.791
REMARK INTER:                  -9.875
REMARK INTRA:                  -0.916
REMARK UNBOUND:                -1.037
REMARK  Name = 
REMARK  7 active torsions:
REMARK  status: ('A' for Active; 'I' for Inactive)
REMARK    1  A    between atoms: C_1  and  O_2
REMARK    2  A    between atoms: O_2  and  C_3
REMARK    3  A    between atoms: C_7  and  C_8
REMARK    4  A    between atoms: C_8  and  C_9
REMARK    5  A    between atoms: C_12  and  C_13
REMARK    6  A    between atoms: C_13  and  N_14
REMARK    7  A    between atoms: C_15  and  C_17
REMARK                            x       y       z     vdW  Elec       q    Type
REMARK                         _______ _______ _______ _____ _____    ______ ____
ROOT
ATOM      1  C   UNL     1      48.783   6.991  14.216  0.00  0.00    +0.000 C 
ENDROOT
BRANCH   1   5
ATOM      2  C   UNL     1      45.323   5.721  11.931  0.00  0.00    +0.000 A 
ATOM      3  C   UNL     1      45.881   6.991  11.733  0.00  0.00    +0.000 A 
ATOM      4  C   UNL     1      46.983   7.416  12.485  0.00  0.00    +0.000 A 
ATOM      5  C   UNL     1      47.553   6.576  13.451  0.00  0.00    +0.000 A 
ATOM      6  C   UNL     1      46.961   5.329  13.687  0.00  0.00    +0.000 A 
ATOM      7  C   UNL     1      45.865   4.900  12.930  0.00  0.00    +0.000 A 
BRANCH   2   8
ATOM      8  C   UNL     1      44.197   5.229  11.048  0.00  0.00    +0.000 C 
BRANCH   8  13
ATOM      9  C   UNL     1      45.751   3.665   7.934  0.00  0.00    +0.000 A 
ATOM     10  C   UNL     1      45.326   2.355   8.138  0.00  0.00    +0.000 A 
ATOM     11  N   UNL     1      44.606   1.940   9.203  0.00  0.00    +0.000 NA
ATOM     12  C   UNL     1      44.275   2.885  10.109  0.00  0.00    +0.000 A 
ATOM     13  C   UNL     1      44.642   4.226  10.014  0.00  0.00    +0.000 A 
ATOM     14  C   UNL     1      45.403   4.608   8.899  0.00  0.00    +0.000 A 
BRANCH   9  16
ATOM     15  C   UNL     1      47.345   2.862   6.372  0.00  0.00    +0.000 C 
ATOM     16  O   UNL     1      46.465   3.897   6.793  0.00  0.00    +0.000 OA
ENDBRANCH   9  16
ENDBRANCH   8  13
ENDBRANCH   2   8
ENDBRANCH   1   5
BRANCH   1  17
ATOM     17  N   UNL     1      48.517   7.167  15.622  0.00  0.00    +0.000 N 
ATOM     18  C   UNL     1      49.382   6.664  16.566  0.00  0.00    +0.000 C 
ATOM     19  O   UNL     1      50.420   6.087  16.252  0.00  0.00    +0.000 OA
ATOM     20  H   UNL     1      47.567   7.403  15.892  0.00  0.00    +0.000 HD
BRANCH  18  21
ATOM     21  C   UNL     1      49.033   6.895  17.971  0.00  0.00    +0.000 A 
ATOM     22  C   UNL     1      48.890   8.195  18.437  0.00  0.00    +0.000 A 
ATOM     23  S   UNL     1      48.467   8.290  20.087  0.00  0.00    +0.000 S 
ATOM     24  C   UNL     1      48.506   6.597  20.249  0.00  0.00    +0.000 A 
ATOM     25  N   UNL     1      48.269   6.005  21.450  0.00  0.00    +0.000 NA
ATOM     26  C   UNL     1      48.355   4.717  21.434  0.00  0.00    +0.000 A 
ATOM     27  N   UNL     1      48.647   3.966  20.325  0.00  0.00    +0.000 N 
ATOM     28  C   UNL     1      48.864   4.520  19.084  0.00  0.00    +0.000 A 
ATOM     29  O   UNL     1      49.072   3.818  18.100  0.00  0.00    +0.000 OA
ATOM     30  C   UNL     1      48.803   5.967  19.052  0.00  0.00    +0.000 A 
ATOM     31  H   UNL     1      48.684   2.959  20.377  0.00  0.00    +0.000 HD
ENDBRANCH  18  21
ENDBRANCH   1  17
TORSDOF 6
ENDMDL
MODEL 4
REMARK VINA RESULT:    -6.842      3.600      8.560
REMARK INTER + INTRA:         -10.279
REMARK INTER:                  -9.429
REMARK INTRA:                  -0.850
REMARK UNBOUND:                -1.037
REMARK  Name = 
REMARK  7 active torsions:
REMARK  status: ('A' for Active; 'I' for Inactive)
REMARK    1  A    between atoms: C_1  and  O_2
REMARK    2  A    between atoms: O_2  and  C_3
REMARK    3  A    between atoms: C_7  and  C_8
REMARK    4  A    between atoms: C_8  and  C_9
REMARK    5  A    between atoms: C_12  and  C_13
REMARK    6  A    between atoms: C_13  and  N_14
REMARK    7  A    between atoms: C_15  and  C_17
REMARK                            x       y       z     vdW  Elec       q    Type
REMARK                         _______ _______ _______ _____ _____    ______ ____
ROOT
ATOM      1  C   UNL     1      48.540   7.448  13.130  0.00  0.00    +0.000 C 
ENDROOT
BRANCH   1   5
ATOM      2  C   UNL     1      49.727   5.770  16.948  0.00  0.00    +0.000 A 
ATOM      3  C   UNL     1      48.475   5.468  16.395  0.00  0.00    +0.000 A 
ATOM      4  C   UNL     1      48.077   6.026  15.175  0.00  0.00    +0.000 A 
ATOM      5  C   UNL     1      48.925   6.897  14.478  0.00  0.00    +0.000 A 
ATOM      6  C   UNL     1      50.152   7.242  15.058  0.00  0.00    +0.000 A 
ATOM      7  C   UNL     1      50.555   6.678  16.273  0.00  0.00    +0.000 A 
BRANCH   2   8
ATOM      8  C   UNL     1      50.193   5.087  18.216  0.00  0.00    +0.000 C 
BRANCH   8  13
ATOM      9  C   UNL     1      52.726   2.239  18.032  0.00  0.00    +0.000 A 
ATOM     10  C   UNL     1      51.918   1.296  17.405  0.00  0.00    +0.000 A 
ATOM     11  N   UNL     1      50.626   1.500  17.063  0.00  0.00    +0.000 NA
ATOM     12  C   UNL     1      50.115   2.717  17.347  0.00  0.00    +0.000 A 
ATOM     13  C   UNL     1      50.825   3.739  17.972  0.00  0.00    +0.000 A 
ATOM     14  C   UNL     1      52.157   3.478  18.323  0.00  0.00    +0.000 A 
BRANCH   9  16
ATOM     15  C   UNL     1      54.651   2.485  19.396  0.00  0.00    +0.000 C 
ATOM     16  O   UNL     1      54.010   1.855  18.294  0.00  0.00    +0.000 OA
ENDBRANCH   9  16
ENDBRANCH   8  13
ENDBRANCH   2   8
ENDBRANCH   1   5
BRANCH   1  17
ATOM     17  N   UNL     1      47.804   6.492  12.340  0.00  0.00    +0.000 N 
ATOM     18  C   UNL     1      46.487   6.720  12.015  0.00  0.00    +0.000 C 
ATOM     19  O   UNL     1      45.906   7.749  12.346  0.00  0.00    +0.000 OA
ATOM     20  H   UNL     1      48.177   5.549  12.281  0.00  0.00    +0.000 HD
BRANCH  18  21
ATOM     21  C   UNL     1      45.821   5.695  11.204  0.00  0.00    +0.000 A 
ATOM     22  C   UNL     1      45.928   5.738   9.821  0.00  0.00    +0.000 A 
ATOM     23  S   UNL     1      45.111   4.467   9.029  0.00  0.00    +0.000 S 
ATOM     24  C   UNL     1      44.545   3.841  10.506  0.00  0.00    +0.000 A 
ATOM     25  N   UNL     1      43.734   2.749  10.536  0.00  0.00    +0.000 NA
ATOM     26  C   UNL     1      43.360   2.397  11.721  0.00  0.00    +0.000 A 
ATOM     27  N   UNL     1      43.730   3.032  12.879  0.00  0.00    +0.000 N 
ATOM     28  C   UNL     1      44.573   4.119  12.898  0.00  0.00    +0.000 A 
ATOM     29  O   UNL     1      44.928   4.632  13.953  0.00  0.00    +0.000 OA
ATOM     30  C   UNL     1      45.002   4.570  11.590  0.00  0.00    +0.000 A 
ATOM     31  H   UNL     1      43.414   2.695  13.776  0.00  0.00    +0.000 HD
ENDBRANCH  18  21
ENDBRANCH   1  17
TORSDOF 6
ENDMDL
MODEL 5
REMARK VINA RESULT:    -6.841      4.155     10.165
REMARK INTER + INTRA:         -10.277
REMARK INTER:                  -9.345
REMARK INTRA:                  -0.932
REMARK UNBOUND:                -1.037
REMARK  Name = 
REMARK  7 active torsions:
REMARK  status: ('A' for Active; 'I' for Inactive)
REMARK    1  A    between atoms: C_1  and  O_2
REMARK    2  A    between atoms: O_2  and  C_3
REMARK    3  A    between atoms: C_7  and  C_8
REMARK    4  A    between atoms: C_8  and  C_9
REMARK    5  A    between atoms: C_12  and  C_13
REMARK    6  A    between atoms: C_13  and  N_14
REMARK    7  A    between atoms: C_15  and  C_17
REMARK                            x       y       z     vdW  Elec       q    Type
REMARK                         _______ _______ _______ _____ _____    ______ ____
ROOT
ATOM      1  C   UNL     1      47.216   3.459  16.900  0.00  0.00    +0.000 C 
ENDROOT
BRANCH   1   5
ATOM      2  C   UNL     1      51.502   3.638  17.528  0.00  0.00    +0.000 A 
ATOM      3  C   UNL     1      50.865   2.409  17.307  0.00  0.00    +0.000 A 
ATOM      4  C   UNL     1      49.478   2.343  17.128  0.00  0.00    +0.000 A 
ATOM      5  C   UNL     1      48.698   3.506  17.163  0.00  0.00    +0.000 A 
ATOM      6  C   UNL     1      49.328   4.726  17.439  0.00  0.00    +0.000 A 
ATOM      7  C   UNL     1      50.715   4.795  17.610  0.00  0.00    +0.000 A 
BRANCH   2   8
ATOM      8  C   UNL     1      53.011   3.715  17.622  0.00  0.00    +0.000 C 
BRANCH   8  13
ATOM      9  C   UNL     1      54.112   4.191  21.244  0.00  0.00    +0.000 A 
ATOM     10  C   UNL     1      54.601   2.908  21.472  0.00  0.00    +0.000 A 
ATOM     11  N   UNL     1      54.580   1.907  20.564  0.00  0.00    +0.000 NA
ATOM     12  C   UNL     1      54.058   2.205  19.355  0.00  0.00    +0.000 A 
ATOM     13  C   UNL     1      53.538   3.450  19.010  0.00  0.00    +0.000 A 
ATOM     14  C   UNL     1      53.567   4.455  19.989  0.00  0.00    +0.000 A 
BRANCH   9  16
ATOM     15  C   UNL     1      54.053   6.449  21.967  0.00  0.00    +0.000 C 
ATOM     16  O   UNL     1      54.226   5.073  22.281  0.00  0.00    +0.000 OA
ENDBRANCH   9  16
ENDBRANCH   8  13
ENDBRANCH   2   8
ENDBRANCH   1   5
BRANCH   1  17
ATOM     17  N   UNL     1      46.802   4.441  15.929  0.00  0.00    +0.000 N 
ATOM     18  C   UNL     1      46.923   4.186  14.582  0.00  0.00    +0.000 C 
ATOM     19  O   UNL     1      47.344   3.113  14.160  0.00  0.00    +0.000 OA
ATOM     20  H   UNL     1      46.700   5.399  16.248  0.00  0.00    +0.000 HD
BRANCH  18  21
ATOM     21  C   UNL     1      46.473   5.241  13.669  0.00  0.00    +0.000 A 
ATOM     22  C   UNL     1      47.278   6.352  13.455  0.00  0.00    +0.000 A 
ATOM     23  S   UNL     1      46.617   7.476  12.354  0.00  0.00    +0.000 S 
ATOM     24  C   UNL     1      45.210   6.541  12.162  0.00  0.00    +0.000 A 
ATOM     25  N   UNL     1      44.193   6.964  11.363  0.00  0.00    +0.000 NA
ATOM     26  C   UNL     1      43.177   6.169  11.328  0.00  0.00    +0.000 A 
ATOM     27  N   UNL     1      43.088   4.984  12.013  0.00  0.00    +0.000 N 
ATOM     28  C   UNL     1      44.103   4.501  12.806  0.00  0.00    +0.000 A 
ATOM     29  O   UNL     1      44.013   3.413  13.364  0.00  0.00    +0.000 OA
ATOM     30  C   UNL     1      45.258   5.370  12.899  0.00  0.00    +0.000 A 
ATOM     31  H   UNL     1      42.269   4.400  11.930  0.00  0.00    +0.000 HD
ENDBRANCH  18  21
ENDBRANCH   1  17
TORSDOF 6
ENDMDL
MODEL 6
REMARK VINA RESULT:    -6.803      4.366      9.524
REMARK INTER + INTRA:         -10.226
REMARK INTER:                  -9.524
REMARK INTRA:                  -0.702
REMARK UNBOUND:                -1.037
REMARK  Name = 
REMARK  7 active torsions:
REMARK  status: ('A' for Active; 'I' for Inactive)
REMARK    1  A    between atoms: C_1  and  O_2
REMARK    2  A    between atoms: O_2  and  C_3
REMARK    3  A    between atoms: C_7  and  C_8
REMARK    4  A    between atoms: C_8  and  C_9
REMARK    5  A    between atoms: C_12  and  C_13
REMARK    6  A    between atoms: C_13  and  N_14
REMARK    7  A    between atoms: C_15  and  C_17
REMARK                            x       y       z     vdW  Elec       q    Type
REMARK                         _______ _______ _______ _____ _____    ______ ____
ROOT
ATOM      1  C   UNL     1      47.338   3.756  16.900  0.00  0.00    +0.000 C 
ENDROOT
BRANCH   1   5
ATOM      2  C   UNL     1      51.588   4.200  17.632  0.00  0.00    +0.000 A 
ATOM      3  C   UNL     1      51.012   2.926  17.530  0.00  0.00    +0.000 A 
ATOM      4  C   UNL     1      49.636   2.777  17.318  0.00  0.00    +0.000 A 
ATOM      5  C   UNL     1      48.807   3.900  17.200  0.00  0.00    +0.000 A 
ATOM      6  C   UNL     1      49.375   5.171  17.358  0.00  0.00    +0.000 A 
ATOM      7  C   UNL     1      50.751   5.321  17.561  0.00  0.00    +0.000 A 
BRANCH   2   8
ATOM      8  C   UNL     1      53.088   4.356  17.761  0.00  0.00    +0.000 C 
BRANCH   8  13
ATOM      9  C   UNL     1      54.772   0.937  17.964  0.00  0.00    +0.000 A 
ATOM     10  C   UNL     1      54.927   0.876  19.346  0.00  0.00    +0.000 A 
ATOM     11  N   UNL     1      54.556   1.853  20.203  0.00  0.00    +0.000 NA
ATOM     12  C   UNL     1      53.983   2.946  19.656  0.00  0.00    +0.000 A 
ATOM     13  C   UNL     1      53.775   3.122  18.290  0.00  0.00    +0.000 A 
ATOM     14  C   UNL     1      54.190   2.089  17.436  0.00  0.00    +0.000 A 
BRANCH   9  16
ATOM     15  C   UNL     1      54.623  -1.403  17.609  0.00  0.00    +0.000 C 
ATOM     16  O   UNL     1      55.200  -0.151  17.259  0.00  0.00    +0.000 OA
ENDBRANCH   9  16
ENDBRANCH   8  13
ENDBRANCH   2   8
ENDBRANCH   1   5
BRANCH   1  17
ATOM     17  N   UNL     1      46.891   4.692  15.898  0.00  0.00    +0.000 N 
ATOM     18  C   UNL     1      46.832   4.324  14.574  0.00  0.00    +0.000 C 
ATOM     19  O   UNL     1      47.115   3.188  14.204  0.00  0.00    +0.000 OA
ATOM     20  H   UNL     1      46.903   5.678  16.142  0.00  0.00    +0.000 HD
BRANCH  18  21
ATOM     21  C   UNL     1      46.362   5.340  13.627  0.00  0.00    +0.000 A 
ATOM     22  C   UNL     1      47.150   6.454  13.369  0.00  0.00    +0.000 A 
ATOM     23  S   UNL     1      46.467   7.530  12.235  0.00  0.00    +0.000 S 
ATOM     24  C   UNL     1      45.072   6.568  12.084  0.00  0.00    +0.000 A 
ATOM     25  N   UNL     1      44.045   6.950  11.277  0.00  0.00    +0.000 NA
ATOM     26  C   UNL     1      43.039   6.140  11.277  0.00  0.00    +0.000 A 
ATOM     27  N   UNL     1      42.971   4.978  12.003  0.00  0.00    +0.000 N 
ATOM     28  C   UNL     1      43.997   4.538  12.807  0.00  0.00    +0.000 A 
ATOM     29  O   UNL     1      43.926   3.469  13.402  0.00  0.00    +0.000 OA
ATOM     30  C   UNL     1      45.141   5.425  12.862  0.00  0.00    +0.000 A 
ATOM     31  H   UNL     1      42.160   4.381  11.946  0.00  0.00    +0.000 HD
ENDBRANCH  18  21
ENDBRANCH   1  17
TORSDOF 6
ENDMDL
MODEL 7
REMARK VINA RESULT:    -6.724      5.022      7.629
REMARK INTER + INTRA:         -10.119
REMARK INTER:                  -9.118
REMARK INTRA:                  -1.001
REMARK UNBOUND:                -1.037
REMARK  Name = 
REMARK  7 active torsions:
REMARK  status: ('A' for Active; 'I' for Inactive)
REMARK    1  A    between atoms: C_1  and  O_2
REMARK    2  A    between atoms: O_2  and  C_3
REMARK    3  A    between atoms: C_7  and  C_8
REMARK    4  A    between atoms: C_8  and  C_9
REMARK    5  A    between atoms: C_12  and  C_13
REMARK    6  A    between atoms: C_13  and  N_14
REMARK    7  A    between atoms: C_15  and  C_17
REMARK                            x       y       z     vdW  Elec       q    Type
REMARK                         _______ _______ _______ _____ _____    ______ ____
ROOT
ATOM      1  C   UNL     1      47.008   8.721  12.341  0.00  0.00    +0.000 C 
ENDROOT
BRANCH   1   5
ATOM      2  C   UNL     1      51.182   8.582  11.175  0.00  0.00    +0.000 A 
ATOM      3  C   UNL     1      50.535   7.431  11.645  0.00  0.00    +0.000 A 
ATOM      4  C   UNL     1      49.194   7.476  12.046  0.00  0.00    +0.000 A 
ATOM      5  C   UNL     1      48.470   8.674  11.982  0.00  0.00    +0.000 A 
ATOM      6  C   UNL     1      49.133   9.835  11.565  0.00  0.00    +0.000 A 
ATOM      7  C   UNL     1      50.471   9.790  11.156  0.00  0.00    +0.000 A 
BRANCH   2   8
ATOM      8  C   UNL     1      52.600   8.507  10.650  0.00  0.00    +0.000 C 
BRANCH   8  13
ATOM      9  C   UNL     1      52.679   6.819   7.228  0.00  0.00    +0.000 A 
ATOM     10  C   UNL     1      52.917   7.952   6.455  0.00  0.00    +0.000 A 
ATOM     11  N   UNL     1      53.028   9.205   6.947  0.00  0.00    +0.000 NA
ATOM     12  C   UNL     1      52.912   9.338   8.285  0.00  0.00    +0.000 A 
ATOM     13  C   UNL     1      52.674   8.281   9.160  0.00  0.00    +0.000 A 
ATOM     14  C   UNL     1      52.550   6.999   8.604  0.00  0.00    +0.000 A 
BRANCH   9  16
ATOM     15  C   UNL     1      53.421   4.574   7.039  0.00  0.00    +0.000 C 
ATOM     16  O   UNL     1      52.605   5.633   6.555  0.00  0.00    +0.000 OA
ENDBRANCH   9  16
ENDBRANCH   8  13
ENDBRANCH   2   8
ENDBRANCH   1   5
BRANCH   1  17
ATOM     17  N   UNL     1      46.390   7.419  12.285  0.00  0.00    +0.000 N 
ATOM     18  C   UNL     1      45.186   7.244  11.643  0.00  0.00    +0.000 C 
ATOM     19  O   UNL     1      44.618   8.167  11.066  0.00  0.00    +0.000 OA
ATOM     20  H   UNL     1      46.704   6.724  12.956  0.00  0.00    +0.000 HD
BRANCH  18  21
ATOM     21  C   UNL     1      44.635   5.885  11.634  0.00  0.00    +0.000 A 
ATOM     22  C   UNL     1      43.891   5.439  12.718  0.00  0.00    +0.000 A 
ATOM     23  S   UNL     1      43.311   3.844  12.543  0.00  0.00    +0.000 S 
ATOM     24  C   UNL     1      44.074   3.676  11.032  0.00  0.00    +0.000 A 
ATOM     25  N   UNL     1      44.006   2.506  10.341  0.00  0.00    +0.000 NA
ATOM     26  C   UNL     1      44.650   2.511   9.222  0.00  0.00    +0.000 A 
ATOM     27  N   UNL     1      45.350   3.581   8.727  0.00  0.00    +0.000 N 
ATOM     28  C   UNL     1      45.420   4.793   9.375  0.00  0.00    +0.000 A 
ATOM     29  O   UNL     1      46.010   5.747   8.881  0.00  0.00    +0.000 OA
ATOM     30  C   UNL     1      44.733   4.833  10.650  0.00  0.00    +0.000 A 
ATOM     31  H   UNL     1      45.820   3.524   7.836  0.00  0.00    +0.000 HD
ENDBRANCH  18  21
ENDBRANCH   1  17
TORSDOF 6
ENDMDL
MODEL 8
REMARK VINA RESULT:    -6.574      2.342      3.333
REMARK INTER + INTRA:          -9.917
REMARK INTER:                  -8.905
REMARK INTRA:                  -1.012
REMARK UNBOUND:                -1.037
REMARK  Name = 
REMARK  7 active torsions:
REMARK  status: ('A' for Active; 'I' for Inactive)
REMARK    1  A    between atoms: C_1  and  O_2
REMARK    2  A    between atoms: O_2  and  C_3
REMARK    3  A    between atoms: C_7  and  C_8
REMARK    4  A    between atoms: C_8  and  C_9
REMARK    5  A    between atoms: C_12  and  C_13
REMARK    6  A    between atoms: C_13  and  N_14
REMARK    7  A    between atoms: C_15  and  C_17
REMARK                            x       y       z     vdW  Elec       q    Type
REMARK                         _______ _______ _______ _____ _____    ______ ____
ROOT
ATOM      1  C   UNL     1      50.053   7.931  14.413  0.00  0.00    +0.000 C 
ENDROOT
BRANCH   1   5
ATOM      2  C   UNL     1      46.265   7.403  12.372  0.00  0.00    +0.000 A 
ATOM      3  C   UNL     1      47.332   6.526  12.132  0.00  0.00    +0.000 A 
ATOM      4  C   UNL     1      48.565   6.706  12.769  0.00  0.00    +0.000 A 
ATOM      5  C   UNL     1      48.756   7.767  13.665  0.00  0.00    +0.000 A 
ATOM      6  C   UNL     1      47.707   8.674  13.862  0.00  0.00    +0.000 A 
ATOM      7  C   UNL     1      46.472   8.490  13.231  0.00  0.00    +0.000 A 
BRANCH   2   8
ATOM      8  C   UNL     1      44.905   7.146  11.757  0.00  0.00    +0.000 C 
BRANCH   8  13
ATOM      9  C   UNL     1      44.012   3.562  10.798  0.00  0.00    +0.000 A 
ATOM     10  C   UNL     1      43.596   3.120  12.050  0.00  0.00    +0.000 A 
ATOM     11  N   UNL     1      43.604   3.875  13.171  0.00  0.00    +0.000 NA
ATOM     12  C   UNL     1      44.037   5.147  13.035  0.00  0.00    +0.000 A 
ATOM     13  C   UNL     1      44.478   5.701  11.835  0.00  0.00    +0.000 A 
ATOM     14  C   UNL     1      44.466   4.876  10.701  0.00  0.00    +0.000 A 
BRANCH   9  16
ATOM     15  C   UNL     1      45.138   2.328   9.114  0.00  0.00    +0.000 C 
ATOM     16  O   UNL     1      43.925   2.657   9.779  0.00  0.00    +0.000 OA
ENDBRANCH   9  16
ENDBRANCH   8  13
ENDBRANCH   2   8
ENDBRANCH   1   5
BRANCH   1  17
ATOM     17  N   UNL     1      49.848   8.100  15.830  0.00  0.00    +0.000 N 
ATOM     18  C   UNL     1      49.954   7.027  16.685  0.00  0.00    +0.000 C 
ATOM     19  O   UNL     1      50.261   5.907  16.285  0.00  0.00    +0.000 OA
ATOM     20  H   UNL     1      49.355   8.933  16.134  0.00  0.00    +0.000 HD
BRANCH  18  21
ATOM     21  C   UNL     1      49.733   7.295  18.110  0.00  0.00    +0.000 A 
ATOM     22  C   UNL     1      50.553   8.199  18.772  0.00  0.00    +0.000 A 
ATOM     23  S   UNL     1      50.154   8.408  20.418  0.00  0.00    +0.000 S 
ATOM     24  C   UNL     1      48.901   7.262  20.314  0.00  0.00    +0.000 A 
ATOM     25  N   UNL     1      48.164   6.932  21.410  0.00  0.00    +0.000 NA
ATOM     26  C   UNL     1      47.264   6.032  21.193  0.00  0.00    +0.000 A 
ATOM     27  N   UNL     1      47.026   5.439  19.980  0.00  0.00    +0.000 N 
ATOM     28  C   UNL     1      47.725   5.764  18.840  0.00  0.00    +0.000 A 
ATOM     29  O   UNL     1      47.454   5.254  17.759  0.00  0.00    +0.000 OA
ATOM     30  C   UNL     1      48.766   6.753  19.034  0.00  0.00    +0.000 A 
ATOM     31  H   UNL     1      46.295   4.752  19.875  0.00  0.00    +0.000 HD
ENDBRANCH  18  21
ENDBRANCH   1  17
TORSDOF 6
ENDMDL
MODEL 9
REMARK VINA RESULT:    -6.520      2.499      4.370
REMARK INTER + INTRA:          -9.844
REMARK INTER:                  -8.691
REMARK INTRA:                  -1.153
REMARK UNBOUND:                -1.037
REMARK  Name = 
REMARK  7 active torsions:
REMARK  status: ('A' for Active; 'I' for Inactive)
REMARK    1  A    between atoms: C_1  and  O_2
REMARK    2  A    between atoms: O_2  and  C_3
REMARK    3  A    between atoms: C_7  and  C_8
REMARK    4  A    between atoms: C_8  and  C_9
REMARK    5  A    between atoms: C_12  and  C_13
REMARK    6  A    between atoms: C_13  and  N_14
REMARK    7  A    between atoms: C_15  and  C_17
REMARK                            x       y       z     vdW  Elec       q    Type
REMARK                         _______ _______ _______ _____ _____    ______ ____
ROOT
ATOM      1  C   UNL     1      47.619   5.369  15.206  0.00  0.00    +0.000 C 
ENDROOT
BRANCH   1   5
ATOM      2  C   UNL     1      45.339   4.113  11.739  0.00  0.00    +0.000 A 
ATOM      3  C   UNL     1      45.844   3.167  12.641  0.00  0.00    +0.000 A 
ATOM      4  C   UNL     1      46.601   3.564  13.748  0.00  0.00    +0.000 A 
ATOM      5  C   UNL     1      46.868   4.920  13.980  0.00  0.00    +0.000 A 
ATOM      6  C   UNL     1      46.410   5.861  13.049  0.00  0.00    +0.000 A 
ATOM      7  C   UNL     1      45.646   5.465  11.946  0.00  0.00    +0.000 A 
BRANCH   2   8
ATOM      8  C   UNL     1      44.438   3.686  10.600  0.00  0.00    +0.000 C 
BRANCH   8  13
ATOM      9  C   UNL     1      46.326   1.927   7.788  0.00  0.00    +0.000 A 
ATOM     10  C   UNL     1      46.614   3.047   7.013  0.00  0.00    +0.000 A 
ATOM     11  N   UNL     1      46.228   4.307   7.313  0.00  0.00    +0.000 NA
ATOM     12  C   UNL     1      45.530   4.464   8.459  0.00  0.00    +0.000 A 
ATOM     13  C   UNL     1      45.183   3.422   9.315  0.00  0.00    +0.000 A 
ATOM     14  C   UNL     1      45.591   2.129   8.955  0.00  0.00    +0.000 A 
BRANCH   9  16
ATOM     15  C   UNL     1      47.299   0.721   5.993  0.00  0.00    +0.000 C 
ATOM     16  O   UNL     1      46.806   0.735   7.327  0.00  0.00    +0.000 OA
ENDBRANCH   9  16
ENDBRANCH   8  13
ENDBRANCH   2   8
ENDBRANCH   1   5
BRANCH   1  17
ATOM     17  N   UNL     1      48.087   6.727  15.094  0.00  0.00    +0.000 N 
ATOM     18  C   UNL     1      49.354   7.068  15.510  0.00  0.00    +0.000 C 
ATOM     19  O   UNL     1      50.138   6.232  15.951  0.00  0.00    +0.000 OA
ATOM     20  H   UNL     1      47.388   7.454  14.979  0.00  0.00    +0.000 HD
BRANCH  18  21
ATOM     21  C   UNL     1      49.744   8.472  15.353  0.00  0.00    +0.000 A 
ATOM     22  C   UNL     1      50.055   9.228  16.476  0.00  0.00    +0.000 A 
ATOM     23  S   UNL     1      50.504  10.835  16.119  0.00  0.00    +0.000 S 
ATOM     24  C   UNL     1      50.253  10.591  14.454  0.00  0.00    +0.000 A 
ATOM     25  N   UNL     1      50.427  11.607  13.566  0.00  0.00    +0.000 NA
ATOM     26  C   UNL     1      50.179  11.289  12.339  0.00  0.00    +0.000 A 
ATOM     27  N   UNL     1      49.782  10.045  11.919  0.00  0.00    +0.000 N 
ATOM     28  C   UNL     1      49.624   8.981  12.776  0.00  0.00    +0.000 A 
ATOM     29  O   UNL     1      49.319   7.868  12.363  0.00  0.00    +0.000 OA
ATOM     30  C   UNL     1      49.867   9.292  14.171  0.00  0.00    +0.000 A 
ATOM     31  H   UNL     1      49.619   9.858  10.941  0.00  0.00    +0.000 HD
ENDBRANCH  18  21
ENDBRANCH   1  17
TORSDOF 6
ENDMDL
