MODEL 1
REMARK VINA RESULT:    -7.915      0.000      0.000
REMARK INTER + INTRA:         -11.566
REMARK INTER:                 -10.691
REMARK INTRA:                  -0.875
REMARK UNBOUND:                -0.875
REMARK  Name = 
REMARK  6 active torsions:
REMARK  status: ('A' for Active; 'I' for Inactive)
REMARK    1  A    between atoms: C_2  and  C_19
REMARK    2  A    between atoms: N_3  and  C_4
REMARK    3  A    between atoms: C_4  and  C_5
REMARK    4  A    between atoms: C_8  and  C_9
REMARK    5  A    between atoms: C_9  and  N_10
REMARK    6  A    between atoms: N_10  and  C_11
REMARK                            x       y       z     vdW  Elec       q    Type
REMARK                         _______ _______ _______ _____ _____    ______ ____
ROOT
ATOM      1  C   UNL     1      44.048   3.138  10.236  0.00  0.00    +0.000 C 
ENDROOT
BRANCH   1   2
ATOM      2  C   UNL     1      45.043   2.952   9.119  0.00  0.00    +0.000 A 
ATOM      3  C   UNL     1      45.410   4.017   8.279  0.00  0.00    +0.000 A 
ATOM      4  C   UNL     1      46.279   3.808   7.204  0.00  0.00    +0.000 A 
ATOM      5  C   UNL     1      46.784   2.528   6.932  0.00  0.00    +0.000 A 
ATOM      6  C   UNL     1      46.424   1.469   7.776  0.00  0.00    +0.000 A 
ATOM      7  C   UNL     1      45.555   1.676   8.849  0.00  0.00    +0.000 A 
BRANCH   5   8
ATOM      8  C   UNL     1      47.697   2.291   5.752  0.00  0.00    +0.000 C 
BRANCH   8   9
ATOM      9  N   UNL     1      47.755   0.866   5.448  0.00  0.00    +0.000 N 
ATOM     10  H   UNL     1      47.586   0.293   6.273  0.00  0.00    +0.000 HD
BRANCH   9  11
ATOM     11  C   UNL     1      47.076   0.402   4.319  0.00  0.00    +0.000 A 
ATOM     12  C   UNL     1      46.959  -0.925   3.937  0.00  0.00    +0.000 A 
ATOM     13  N   UNL     1      46.231  -1.376   2.888  0.00  0.00    +0.000 NA
ATOM     14  C   UNL     1      45.557  -0.439   2.209  0.00  0.00    +0.000 A 
ATOM     15  N   UNL     1      45.547   0.873   2.484  0.00  0.00    +0.000 NA
ATOM     16  C   UNL     1      46.297   1.250   3.542  0.00  0.00    +0.000 A 
ENDBRANCH   9  11
ENDBRANCH   8   9
ENDBRANCH   5   8
ENDBRANCH   1   2
BRANCH   1  19
ATOM     17  O   UNL     1      42.481   5.059  11.696  0.00  0.00    +0.000 OA
ATOM     18  C   UNL     1      43.709   5.105  11.701  0.00  0.00    +0.000 C 
ATOM     19  N   UNL     1      44.529   4.151  11.141  0.00  0.00    +0.000 N 
ATOM     20  H   UNL     1      45.501   4.385  11.028  0.00  0.00    +0.000 HD
BRANCH  18  21
ATOM     21  C   UNL     1      44.462   6.279  12.116  0.00  0.00    +0.000 A 
ATOM     22  C   UNL     1      44.158   7.557  11.684  0.00  0.00    +0.000 A 
ATOM     23  S   UNL     1      45.480   8.632  11.892  0.00  0.00    +0.000 S 
ATOM     24  C   UNL     1      46.406   7.432  12.677  0.00  0.00    +0.000 A 
ATOM     25  N   UNL     1      47.712   7.617  13.008  0.00  0.00    +0.000 NA
ATOM     26  C   UNL     1      48.242   6.620  13.640  0.00  0.00    +0.000 A 
ATOM     27  N   UNL     1      47.577   5.480  14.014  0.00  0.00    +0.000 N 
ATOM     28  C   UNL     1      46.257   5.254  13.712  0.00  0.00    +0.000 A 
ATOM     29  O   UNL     1      45.666   4.254  14.102  0.00  0.00    +0.000 OA
ATOM     30  C   UNL     1      45.663   6.292  12.896  0.00  0.00    +0.000 A 
ATOM     31  H   UNL     1      48.029   4.774  14.577  0.00  0.00    +0.000 HD
ENDBRANCH  18  21
ENDBRANCH   1  19
TORSDOF 6
ENDMDL
MODEL 2
REMARK VINA RESULT:    -7.777      3.492      6.133
REMARK INTER + INTRA:         -11.380
REMARK INTER:                 -10.458
REMARK INTRA:                  -0.922
REMARK UNBOUND:                -0.875
REMARK  Name = 
REMARK  6 active torsions:
REMARK  status: ('A' for Active; 'I' for Inactive)
REMARK    1  A    between atoms: C_2  and  C_19
REMARK    2  A    between atoms: N_3  and  C_4
REMARK    3  A    between atoms: C_4  and  C_5
REMARK    4  A    between atoms: C_8  and  C_9
REMARK    5  A    between atoms: C_9  and  N_10
REMARK    6  A    between atoms: N_10  and  C_11
REMARK                            x       y       z     vdW  Elec       q    Type
REMARK                         _______ _______ _______ _____ _____    ______ ____
ROOT
ATOM      1  C   UNL     1      48.441   6.644  13.223  0.00  0.00    +0.000 C 
ENDROOT
BRANCH   1   2
ATOM      2  C   UNL     1      47.190   6.096  12.585  0.00  0.00    +0.000 A 
ATOM      3  C   UNL     1      46.499   5.007  13.144  0.00  0.00    +0.000 A 
ATOM      4  C   UNL     1      45.382   4.467  12.498  0.00  0.00    +0.000 A 
ATOM      5  C   UNL     1      44.945   4.988  11.271  0.00  0.00    +0.000 A 
ATOM      6  C   UNL     1      45.631   6.079  10.720  0.00  0.00    +0.000 A 
ATOM      7  C   UNL     1      46.746   6.619  11.363  0.00  0.00    +0.000 A 
BRANCH   5   8
ATOM      8  C   UNL     1      43.759   4.387  10.554  0.00  0.00    +0.000 C 
BRANCH   8   9
ATOM      9  N   UNL     1      43.986   4.411   9.114  0.00  0.00    +0.000 N 
ATOM     10  H   UNL     1      44.146   5.356   8.769  0.00  0.00    +0.000 HD
BRANCH   9  11
ATOM     11  C   UNL     1      44.871   3.479   8.568  0.00  0.00    +0.000 A 
ATOM     12  C   UNL     1      45.880   3.761   7.660  0.00  0.00    +0.000 A 
ATOM     13  N   UNL     1      46.788   2.868   7.197  0.00  0.00    +0.000 NA
ATOM     14  C   UNL     1      46.691   1.632   7.703  0.00  0.00    +0.000 A 
ATOM     15  N   UNL     1      45.793   1.226   8.610  0.00  0.00    +0.000 NA
ATOM     16  C   UNL     1      44.918   2.168   9.026  0.00  0.00    +0.000 A 
ENDBRANCH   9  11
ENDBRANCH   8   9
ENDBRANCH   5   8
ENDBRANCH   1   2
BRANCH   1  19
ATOM     17  O   UNL     1      50.402   6.966  15.303  0.00  0.00    +0.000 OA
ATOM     18  C   UNL     1      49.203   6.902  15.565  0.00  0.00    +0.000 C 
ATOM     19  N   UNL     1      48.198   6.881  14.624  0.00  0.00    +0.000 N 
ATOM     20  H   UNL     1      47.276   6.629  14.936  0.00  0.00    +0.000 HD
BRANCH  18  21
ATOM     21  C   UNL     1      48.690   6.626  16.898  0.00  0.00    +0.000 A 
ATOM     22  C   UNL     1      48.507   7.613  17.851  0.00  0.00    +0.000 A 
ATOM     23  S   UNL     1      48.406   6.958  19.435  0.00  0.00    +0.000 S 
ATOM     24  C   UNL     1      48.471   5.360  18.840  0.00  0.00    +0.000 A 
ATOM     25  N   UNL     1      48.573   4.279  19.660  0.00  0.00    +0.000 NA
ATOM     26  C   UNL     1      48.561   3.144  19.039  0.00  0.00    +0.000 A 
ATOM     27  N   UNL     1      48.408   2.987  17.685  0.00  0.00    +0.000 N 
ATOM     28  C   UNL     1      48.291   4.047  16.820  0.00  0.00    +0.000 A 
ATOM     29  O   UNL     1      48.100   3.885  15.620  0.00  0.00    +0.000 OA
ATOM     30  C   UNL     1      48.425   5.337  17.463  0.00  0.00    +0.000 A 
ATOM     31  H   UNL     1      48.326   2.068  17.272  0.00  0.00    +0.000 HD
ENDBRANCH  18  21
ENDBRANCH   1  19
TORSDOF 6
ENDMDL
MODEL 3
REMARK VINA RESULT:    -7.676      3.424      6.212
REMARK INTER + INTRA:         -11.244
REMARK INTER:                 -10.305
REMARK INTRA:                  -0.939
REMARK UNBOUND:                -0.875
REMARK  Name = 
REMARK  6 active torsions:
REMARK  status: ('A' for Active; 'I' for Inactive)
REMARK    1  A    between atoms: C_2  and  C_19
REMARK    2  A    between atoms: N_3  and  C_4
REMARK    3  A    between atoms: C_4  and  C_5
REMARK    4  A    between atoms: C_8  and  C_9
REMARK    5  A    between atoms: C_9  and  N_10
REMARK    6  A    between atoms: N_10  and  C_11
REMARK                            x       y       z     vdW  Elec       q    Type
REMARK                         _______ _______ _______ _____ _____    ______ ____
ROOT
ATOM      1  C   UNL     1      47.921   7.090  13.541  0.00  0.00    +0.000 C 
ENDROOT
BRANCH   1   2
ATOM      2  C   UNL     1      46.809   6.336  12.856  0.00  0.00    +0.000 A 
ATOM      3  C   UNL     1      46.506   5.006  13.198  0.00  0.00    +0.000 A 
ATOM      4  C   UNL     1      45.521   4.300  12.502  0.00  0.00    +0.000 A 
ATOM      5  C   UNL     1      44.831   4.898  11.436  0.00  0.00    +0.000 A 
ATOM      6  C   UNL     1      45.129   6.226  11.103  0.00  0.00    +0.000 A 
ATOM      7  C   UNL     1      46.113   6.933  11.797  0.00  0.00    +0.000 A 
BRANCH   5   8
ATOM      8  C   UNL     1      43.788   4.129  10.660  0.00  0.00    +0.000 C 
BRANCH   8   9
ATOM      9  N   UNL     1      44.019   4.285   9.229  0.00  0.00    +0.000 N 
ATOM     10  H   UNL     1      44.139   5.262   8.967  0.00  0.00    +0.000 HD
BRANCH   9  11
ATOM     11  C   UNL     1      44.947   3.442   8.613  0.00  0.00    +0.000 A 
ATOM     12  C   UNL     1      45.955   3.846   7.750  0.00  0.00    +0.000 A 
ATOM     13  N   UNL     1      46.902   3.036   7.221  0.00  0.00    +0.000 NA
ATOM     14  C   UNL     1      46.850   1.756   7.610  0.00  0.00    +0.000 A 
ATOM     15  N   UNL     1      45.958   1.233   8.462  0.00  0.00    +0.000 NA
ATOM     16  C   UNL     1      45.042   2.098   8.950  0.00  0.00    +0.000 A 
ENDBRANCH   9  11
ENDBRANCH   8   9
ENDBRANCH   5   8
ENDBRANCH   1   2
BRANCH   1  19
ATOM     17  O   UNL     1      48.563   8.220  16.107  0.00  0.00    +0.000 OA
ATOM     18  C   UNL     1      48.719   7.021  15.884  0.00  0.00    +0.000 C 
ATOM     19  N   UNL     1      48.314   6.383  14.733  0.00  0.00    +0.000 N 
ATOM     20  H   UNL     1      48.665   5.454  14.571  0.00  0.00    +0.000 HD
BRANCH  18  21
ATOM     21  C   UNL     1      49.541   6.154  16.714  0.00  0.00    +0.000 A 
ATOM     22  C   UNL     1      50.745   6.560  17.261  0.00  0.00    +0.000 A 
ATOM     23  S   UNL     1      51.717   5.223  17.726  0.00  0.00    +0.000 S 
ATOM     24  C   UNL     1      50.483   4.114  17.324  0.00  0.00    +0.000 A 
ATOM     25  N   UNL     1      50.678   2.768  17.337  0.00  0.00    +0.000 NA
ATOM     26  C   UNL     1      49.621   2.079  17.052  0.00  0.00    +0.000 A 
ATOM     27  N   UNL     1      48.379   2.607  16.805  0.00  0.00    +0.000 N 
ATOM     28  C   UNL     1      48.132   3.957  16.792  0.00  0.00    +0.000 A 
ATOM     29  O   UNL     1      47.004   4.407  16.623  0.00  0.00    +0.000 OA
ATOM     30  C   UNL     1      49.318   4.765  16.983  0.00  0.00    +0.000 A 
ATOM     31  H   UNL     1      47.576   2.009  16.668  0.00  0.00    +0.000 HD
ENDBRANCH  18  21
ENDBRANCH   1  19
TORSDOF 6
ENDMDL
MODEL 4
REMARK VINA RESULT:    -7.339      3.119      5.578
REMARK INTER + INTRA:         -10.788
REMARK INTER:                  -9.694
REMARK INTRA:                  -1.095
REMARK UNBOUND:                -0.875
REMARK  Name = 
REMARK  6 active torsions:
REMARK  status: ('A' for Active; 'I' for Inactive)
REMARK    1  A    between atoms: C_2  and  C_19
REMARK    2  A    between atoms: N_3  and  C_4
REMARK    3  A    between atoms: C_4  and  C_5
REMARK    4  A    between atoms: C_8  and  C_9
REMARK    5  A    between atoms: C_9  and  N_10
REMARK    6  A    between atoms: N_10  and  C_11
REMARK                            x       y       z     vdW  Elec       q    Type
REMARK                         _______ _______ _______ _____ _____    ______ ____
ROOT
ATOM      1  C   UNL     1      47.587   6.502  13.619  0.00  0.00    +0.000 C 
ENDROOT
BRANCH   1   2
ATOM      2  C   UNL     1      46.620   5.667  12.819  0.00  0.00    +0.000 A 
ATOM      3  C   UNL     1      46.267   4.367  13.223  0.00  0.00    +0.000 A 
ATOM      4  C   UNL     1      45.425   3.581  12.430  0.00  0.00    +0.000 A 
ATOM      5  C   UNL     1      44.935   4.066  11.208  0.00  0.00    +0.000 A 
ATOM      6  C   UNL     1      45.282   5.364  10.812  0.00  0.00    +0.000 A 
ATOM      7  C   UNL     1      46.123   6.151  11.603  0.00  0.00    +0.000 A 
BRANCH   5   8
ATOM      8  C   UNL     1      44.053   3.208  10.333  0.00  0.00    +0.000 C 
BRANCH   8   9
ATOM      9  N   UNL     1      44.269   3.543   8.930  0.00  0.00    +0.000 N 
ATOM     10  H   UNL     1      44.237   4.548   8.769  0.00  0.00    +0.000 HD
BRANCH   9  11
ATOM     11  C   UNL     1      45.322   2.921   8.257  0.00  0.00    +0.000 A 
ATOM     12  C   UNL     1      46.227   3.551   7.416  0.00  0.00    +0.000 A 
ATOM     13  N   UNL     1      47.295   2.959   6.831  0.00  0.00    +0.000 NA
ATOM     14  C   UNL     1      47.478   1.669   7.137  0.00  0.00    +0.000 A 
ATOM     15  N   UNL     1      46.709   0.942   7.959  0.00  0.00    +0.000 NA
ATOM     16  C   UNL     1      45.661   1.597   8.505  0.00  0.00    +0.000 A 
ENDBRANCH   9  11
ENDBRANCH   8   9
ENDBRANCH   5   8
ENDBRANCH   1   2
BRANCH   1  19
ATOM     17  O   UNL     1      48.077   9.186  14.530  0.00  0.00    +0.000 OA
ATOM     18  C   UNL     1      48.105   8.906  13.334  0.00  0.00    +0.000 C 
ATOM     19  N   UNL     1      48.012   7.629  12.828  0.00  0.00    +0.000 N 
ATOM     20  H   UNL     1      47.847   7.532  11.841  0.00  0.00    +0.000 HD
BRANCH  18  21
ATOM     21  C   UNL     1      48.027   9.904  12.278  0.00  0.00    +0.000 A 
ATOM     22  C   UNL     1      49.144  10.405  11.634  0.00  0.00    +0.000 A 
ATOM     23  S   UNL     1      48.812  11.893  10.844  0.00  0.00    +0.000 S 
ATOM     24  C   UNL     1      47.156  11.802  11.247  0.00  0.00    +0.000 A 
ATOM     25  N   UNL     1      46.289  12.823  11.008  0.00  0.00    +0.000 NA
ATOM     26  C   UNL     1      45.065  12.562  11.333  0.00  0.00    +0.000 A 
ATOM     27  N   UNL     1      44.619  11.362  11.827  0.00  0.00    +0.000 N 
ATOM     28  C   UNL     1      45.454  10.301  12.074  0.00  0.00    +0.000 A 
ATOM     29  O   UNL     1      45.028   9.219  12.464  0.00  0.00    +0.000 OA
ATOM     30  C   UNL     1      46.851  10.597  11.840  0.00  0.00    +0.000 A 
ATOM     31  H   UNL     1      43.635  11.196  11.985  0.00  0.00    +0.000 HD
ENDBRANCH  18  21
ENDBRANCH   1  19
TORSDOF 6
ENDMDL
MODEL 5
REMARK VINA RESULT:    -7.257      4.019      6.513
REMARK INTER + INTRA:         -10.677
REMARK INTER:                  -9.937
REMARK INTRA:                  -0.739
REMARK UNBOUND:                -0.875
REMARK  Name = 
REMARK  6 active torsions:
REMARK  status: ('A' for Active; 'I' for Inactive)
REMARK    1  A    between atoms: C_2  and  C_19
REMARK    2  A    between atoms: N_3  and  C_4
REMARK    3  A    between atoms: C_4  and  C_5
REMARK    4  A    between atoms: C_8  and  C_9
REMARK    5  A    between atoms: C_9  and  N_10
REMARK    6  A    between atoms: N_10  and  C_11
REMARK                            x       y       z     vdW  Elec       q    Type
REMARK                         _______ _______ _______ _____ _____    ______ ____
ROOT
ATOM      1  C   UNL     1      48.215   6.678  13.528  0.00  0.00    +0.000 C 
ENDROOT
BRANCH   1   2
ATOM      2  C   UNL     1      47.018   6.084  12.830  0.00  0.00    +0.000 A 
ATOM      3  C   UNL     1      46.450   4.869  13.254  0.00  0.00    +0.000 A 
ATOM      4  C   UNL     1      45.386   4.298  12.549  0.00  0.00    +0.000 A 
ATOM      5  C   UNL     1      44.879   4.915  11.396  0.00  0.00    +0.000 A 
ATOM      6  C   UNL     1      45.441   6.130  10.981  0.00  0.00    +0.000 A 
ATOM      7  C   UNL     1      46.504   6.701  11.682  0.00  0.00    +0.000 A 
BRANCH   5   8
ATOM      8  C   UNL     1      43.751   4.285  10.614  0.00  0.00    +0.000 C 
BRANCH   8   9
ATOM      9  N   UNL     1      44.020   4.389   9.184  0.00  0.00    +0.000 N 
ATOM     10  H   UNL     1      44.216   5.348   8.902  0.00  0.00    +0.000 HD
BRANCH   9  11
ATOM     11  C   UNL     1      44.896   3.466   8.607  0.00  0.00    +0.000 A 
ATOM     12  C   UNL     1      45.913   3.768   7.714  0.00  0.00    +0.000 A 
ATOM     13  N   UNL     1      46.810   2.882   7.222  0.00  0.00    +0.000 NA
ATOM     14  C   UNL     1      46.696   1.630   7.682  0.00  0.00    +0.000 A 
ATOM     15  N   UNL     1      45.789   1.202   8.571  0.00  0.00    +0.000 NA
ATOM     16  C   UNL     1      44.925   2.139   9.017  0.00  0.00    +0.000 A 
ENDBRANCH   9  11
ENDBRANCH   8   9
ENDBRANCH   5   8
ENDBRANCH   1   2
BRANCH   1  19
ATOM     17  O   UNL     1      50.055   7.506  15.578  0.00  0.00    +0.000 OA
ATOM     18  C   UNL     1      49.089   6.794  15.841  0.00  0.00    +0.000 C 
ATOM     19  N   UNL     1      48.095   6.465  14.948  0.00  0.00    +0.000 N 
ATOM     20  H   UNL     1      47.466   5.723  15.207  0.00  0.00    +0.000 HD
BRANCH  18  21
ATOM     21  C   UNL     1      48.974   6.028  17.074  0.00  0.00    +0.000 A 
ATOM     22  C   UNL     1      49.036   4.647  17.108  0.00  0.00    +0.000 A 
ATOM     23  S   UNL     1      48.361   4.014  18.554  0.00  0.00    +0.000 S 
ATOM     24  C   UNL     1      48.110   5.578  19.189  0.00  0.00    +0.000 A 
ATOM     25  N   UNL     1      47.432   5.796  20.347  0.00  0.00    +0.000 NA
ATOM     26  C   UNL     1      47.380   7.040  20.702  0.00  0.00    +0.000 A 
ATOM     27  N   UNL     1      47.983   8.076  20.035  0.00  0.00    +0.000 N 
ATOM     28  C   UNL     1      48.687   7.902  18.870  0.00  0.00    +0.000 A 
ATOM     29  O   UNL     1      49.265   8.832  18.318  0.00  0.00    +0.000 OA
ATOM     30  C   UNL     1      48.662   6.543  18.374  0.00  0.00    +0.000 A 
ATOM     31  H   UNL     1      47.972   9.014  20.410  0.00  0.00    +0.000 HD
ENDBRANCH  18  21
ENDBRANCH   1  19
TORSDOF 6
ENDMDL
MODEL 6
REMARK VINA RESULT:    -7.235      5.596      7.908
REMARK INTER + INTRA:         -10.647
REMARK INTER:                  -9.312
REMARK INTRA:                  -1.336
REMARK UNBOUND:                -0.875
REMARK  Name = 
REMARK  6 active torsions:
REMARK  status: ('A' for Active; 'I' for Inactive)
REMARK    1  A    between atoms: C_2  and  C_19
REMARK    2  A    between atoms: N_3  and  C_4
REMARK    3  A    between atoms: C_4  and  C_5
REMARK    4  A    between atoms: C_8  and  C_9
REMARK    5  A    between atoms: C_9  and  N_10
REMARK    6  A    between atoms: N_10  and  C_11
REMARK                            x       y       z     vdW  Elec       q    Type
REMARK                         _______ _______ _______ _____ _____    ______ ____
ROOT
ATOM      1  C   UNL     1      49.483   8.172  14.038  0.00  0.00    +0.000 C 
ENDROOT
BRANCH   1   2
ATOM      2  C   UNL     1      48.191   8.035  13.273  0.00  0.00    +0.000 A 
ATOM      3  C   UNL     1      47.044   8.763  13.636  0.00  0.00    +0.000 A 
ATOM      4  C   UNL     1      45.836   8.568  12.960  0.00  0.00    +0.000 A 
ATOM      5  C   UNL     1      45.740   7.629  11.922  0.00  0.00    +0.000 A 
ATOM      6  C   UNL     1      46.887   6.911  11.557  0.00  0.00    +0.000 A 
ATOM      7  C   UNL     1      48.094   7.104  12.231  0.00  0.00    +0.000 A 
BRANCH   5   8
ATOM      8  C   UNL     1      44.429   7.392  11.211  0.00  0.00    +0.000 C 
BRANCH   8   9
ATOM      9  N   UNL     1      43.512   6.673  12.087  0.00  0.00    +0.000 N 
ATOM     10  H   UNL     1      42.592   7.110  12.118  0.00  0.00    +0.000 HD
BRANCH   9  11
ATOM     11  C   UNL     1      43.445   5.282  11.976  0.00  0.00    +0.000 A 
ATOM     12  C   UNL     1      43.442   4.567  10.788  0.00  0.00    +0.000 A 
ATOM     13  N   UNL     1      43.460   3.217  10.688  0.00  0.00    +0.000 NA
ATOM     14  C   UNL     1      43.519   2.553  11.849  0.00  0.00    +0.000 A 
ATOM     15  N   UNL     1      43.563   3.109  13.068  0.00  0.00    +0.000 NA
ATOM     16  C   UNL     1      43.540   4.460  13.091  0.00  0.00    +0.000 A 
ENDBRANCH   9  11
ENDBRANCH   8   9
ENDBRANCH   5   8
ENDBRANCH   1   2
BRANCH   1  19
ATOM     17  O   UNL     1      51.211   6.608  15.725  0.00  0.00    +0.000 OA
ATOM     18  C   UNL     1      50.094   6.953  16.105  0.00  0.00    +0.000 C 
ATOM     19  N   UNL     1      49.264   7.808  15.415  0.00  0.00    +0.000 N 
ATOM     20  H   UNL     1      48.305   7.864  15.714  0.00  0.00    +0.000 HD
BRANCH  18  21
ATOM     21  C   UNL     1      49.410   6.340  17.233  0.00  0.00    +0.000 A 
ATOM     22  C   UNL     1      49.640   6.715  18.545  0.00  0.00    +0.000 A 
ATOM     23  S   UNL     1      49.119   5.511  19.653  0.00  0.00    +0.000 S 
ATOM     24  C   UNL     1      48.469   4.556  18.396  0.00  0.00    +0.000 A 
ATOM     25  N   UNL     1      47.984   3.303  18.608  0.00  0.00    +0.000 NA
ATOM     26  C   UNL     1      47.487   2.744  17.552  0.00  0.00    +0.000 A 
ATOM     27  N   UNL     1      47.384   3.339  16.320  0.00  0.00    +0.000 N 
ATOM     28  C   UNL     1      47.849   4.604  16.062  0.00  0.00    +0.000 A 
ATOM     29  O   UNL     1      47.698   5.139  14.969  0.00  0.00    +0.000 OA
ATOM     30  C   UNL     1      48.525   5.214  17.188  0.00  0.00    +0.000 A 
ATOM     31  H   UNL     1      46.911   2.877  15.556  0.00  0.00    +0.000 HD
ENDBRANCH  18  21
ENDBRANCH   1  19
TORSDOF 6
ENDMDL
MODEL 7
REMARK VINA RESULT:    -7.037      3.179      5.255
REMARK INTER + INTRA:         -10.381
REMARK INTER:                  -9.562
REMARK INTRA:                  -0.818
REMARK UNBOUND:                -0.875
REMARK  Name = 
REMARK  6 active torsions:
REMARK  status: ('A' for Active; 'I' for Inactive)
REMARK    1  A    between atoms: C_2  and  C_19
REMARK    2  A    between atoms: N_3  and  C_4
REMARK    3  A    between atoms: C_4  and  C_5
REMARK    4  A    between atoms: C_8  and  C_9
REMARK    5  A    between atoms: C_9  and  N_10
REMARK    6  A    between atoms: N_10  and  C_11
REMARK                            x       y       z     vdW  Elec       q    Type
REMARK                         _______ _______ _______ _____ _____    ______ ____
ROOT
ATOM      1  C   UNL     1      46.962   5.073  14.523  0.00  0.00    +0.000 C 
ENDROOT
BRANCH   1   2
ATOM      2  C   UNL     1      46.261   4.838  13.209  0.00  0.00    +0.000 A 
ATOM      3  C   UNL     1      46.063   5.881  12.288  0.00  0.00    +0.000 A 
ATOM      4  C   UNL     1      45.347   5.661  11.108  0.00  0.00    +0.000 A 
ATOM      5  C   UNL     1      44.795   4.401  10.831  0.00  0.00    +0.000 A 
ATOM      6  C   UNL     1      45.000   3.361  11.748  0.00  0.00    +0.000 A 
ATOM      7  C   UNL     1      45.715   3.580  12.927  0.00  0.00    +0.000 A 
BRANCH   5   8
ATOM      8  C   UNL     1      43.992   4.166   9.573  0.00  0.00    +0.000 C 
BRANCH   8   9
ATOM      9  N   UNL     1      44.846   4.330   8.403  0.00  0.00    +0.000 N 
ATOM     10  H   UNL     1      45.290   5.246   8.380  0.00  0.00    +0.000 HD
BRANCH   9  11
ATOM     11  C   UNL     1      45.725   3.295   8.075  0.00  0.00    +0.000 A 
ATOM     12  C   UNL     1      45.576   1.965   8.436  0.00  0.00    +0.000 A 
ATOM     13  N   UNL     1      46.387   0.953   8.047  0.00  0.00    +0.000 NA
ATOM     14  C   UNL     1      47.383   1.298   7.221  0.00  0.00    +0.000 A 
ATOM     15  N   UNL     1      47.627   2.532   6.761  0.00  0.00    +0.000 NA
ATOM     16  C   UNL     1      46.779   3.491   7.192  0.00  0.00    +0.000 A 
ENDBRANCH   9  11
ENDBRANCH   8   9
ENDBRANCH   5   8
ENDBRANCH   1   2
BRANCH   1  19
ATOM     17  O   UNL     1      49.209   5.764  16.181  0.00  0.00    +0.000 OA
ATOM     18  C   UNL     1      48.782   6.544  15.332  0.00  0.00    +0.000 C 
ATOM     19  N   UNL     1      47.802   6.239  14.415  0.00  0.00    +0.000 N 
ATOM     20  H   UNL     1      47.393   7.002  13.904  0.00  0.00    +0.000 HD
BRANCH  18  21
ATOM     21  C   UNL     1      49.105   7.963  15.317  0.00  0.00    +0.000 A 
ATOM     22  C   UNL     1      49.243   8.713  16.471  0.00  0.00    +0.000 A 
ATOM     23  S   UNL     1      49.098  10.395  16.158  0.00  0.00    +0.000 S 
ATOM     24  C   UNL     1      48.985  10.130  14.475  0.00  0.00    +0.000 A 
ATOM     25  N   UNL     1      48.702  11.129  13.596  0.00  0.00    +0.000 NA
ATOM     26  C   UNL     1      48.704  10.756  12.357  0.00  0.00    +0.000 A 
ATOM     27  N   UNL     1      49.011   9.495  11.913  0.00  0.00    +0.000 N 
ATOM     28  C   UNL     1      49.314   8.459  12.762  0.00  0.00    +0.000 A 
ATOM     29  O   UNL     1      49.638   7.353  12.344  0.00  0.00    +0.000 OA
ATOM     30  C   UNL     1      49.199   8.805  14.163  0.00  0.00    +0.000 A 
ATOM     31  H   UNL     1      49.073   9.290  10.926  0.00  0.00    +0.000 HD
ENDBRANCH  18  21
ENDBRANCH   1  19
TORSDOF 6
ENDMDL
MODEL 8
REMARK VINA RESULT:    -6.678      3.238      5.705
REMARK INTER + INTRA:          -9.895
REMARK INTER:                  -9.010
REMARK INTRA:                  -0.885
REMARK UNBOUND:                -0.875
REMARK  Name = 
REMARK  6 active torsions:
REMARK  status: ('A' for Active; 'I' for Inactive)
REMARK    1  A    between atoms: C_2  and  C_19
REMARK    2  A    between atoms: N_3  and  C_4
REMARK    3  A    between atoms: C_4  and  C_5
REMARK    4  A    between atoms: C_8  and  C_9
REMARK    5  A    between atoms: C_9  and  N_10
REMARK    6  A    between atoms: N_10  and  C_11
REMARK                            x       y       z     vdW  Elec       q    Type
REMARK                         _______ _______ _______ _____ _____    ______ ____
ROOT
ATOM      1  C   UNL     1      47.384   5.672  14.395  0.00  0.00    +0.000 C 
ENDROOT
BRANCH   1   2
ATOM      2  C   UNL     1      46.473   5.277  13.261  0.00  0.00    +0.000 A 
ATOM      3  C   UNL     1      45.936   3.981  13.169  0.00  0.00    +0.000 A 
ATOM      4  C   UNL     1      45.152   3.613  12.072  0.00  0.00    +0.000 A 
ATOM      5  C   UNL     1      44.905   4.522  11.032  0.00  0.00    +0.000 A 
ATOM      6  C   UNL     1      45.435   5.816  11.130  0.00  0.00    +0.000 A 
ATOM      7  C   UNL     1      46.218   6.185  12.225  0.00  0.00    +0.000 A 
BRANCH   5   8
ATOM      8  C   UNL     1      44.086   4.119   9.829  0.00  0.00    +0.000 C 
BRANCH   8   9
ATOM      9  N   UNL     1      44.833   4.390   8.607  0.00  0.00    +0.000 N 
ATOM     10  H   UNL     1      45.306   5.291   8.641  0.00  0.00    +0.000 HD
BRANCH   9  11
ATOM     11  C   UNL     1      45.639   3.375   8.086  0.00  0.00    +0.000 A 
ATOM     12  C   UNL     1      46.697   3.557   7.208  0.00  0.00    +0.000 A 
ATOM     13  N   UNL     1      47.527   2.580   6.770  0.00  0.00    +0.000 NA
ATOM     14  C   UNL     1      47.297   1.360   7.273  0.00  0.00    +0.000 A 
ATOM     15  N   UNL     1      46.337   1.044   8.153  0.00  0.00    +0.000 NA
ATOM     16  C   UNL     1      45.547   2.068   8.544  0.00  0.00    +0.000 A 
ENDBRANCH   9  11
ENDBRANCH   8   9
ENDBRANCH   5   8
ENDBRANCH   1   2
BRANCH   1  19
ATOM     17  O   UNL     1      48.711   7.839  15.743  0.00  0.00    +0.000 OA
ATOM     18  C   UNL     1      48.943   7.588  14.563  0.00  0.00    +0.000 C 
ATOM     19  N   UNL     1      48.453   6.493  13.886  0.00  0.00    +0.000 N 
ATOM     20  H   UNL     1      48.541   6.491  12.884  0.00  0.00    +0.000 HD
BRANCH  18  21
ATOM     21  C   UNL     1      49.597   8.524  13.660  0.00  0.00    +0.000 A 
ATOM     22  C   UNL     1      48.896   9.383  12.833  0.00  0.00    +0.000 A 
ATOM     23  S   UNL     1      49.871   9.966  11.546  0.00  0.00    +0.000 S 
ATOM     24  C   UNL     1      51.256   9.183  12.165  0.00  0.00    +0.000 A 
ATOM     25  N   UNL     1      52.433   9.136  11.486  0.00  0.00    +0.000 NA
ATOM     26  C   UNL     1      53.388   8.544  12.126  0.00  0.00    +0.000 A 
ATOM     27  N   UNL     1      53.290   8.039  13.398  0.00  0.00    +0.000 N 
ATOM     28  C   UNL     1      52.127   8.073  14.126  0.00  0.00    +0.000 A 
ATOM     29  O   UNL     1      52.073   7.666  15.281  0.00  0.00    +0.000 OA
ATOM     30  C   UNL     1      51.001   8.617  13.395  0.00  0.00    +0.000 A 
ATOM     31  H   UNL     1      54.098   7.660  13.873  0.00  0.00    +0.000 HD
ENDBRANCH  18  21
ENDBRANCH   1  19
TORSDOF 6
ENDMDL
MODEL 9
REMARK VINA RESULT:    -6.391      3.215      5.819
REMARK INTER + INTRA:          -9.508
REMARK INTER:                  -8.682
REMARK INTRA:                  -0.825
REMARK UNBOUND:                -0.875
REMARK  Name = 
REMARK  6 active torsions:
REMARK  status: ('A' for Active; 'I' for Inactive)
REMARK    1  A    between atoms: C_2  and  C_19
REMARK    2  A    between atoms: N_3  and  C_4
REMARK    3  A    between atoms: C_4  and  C_5
REMARK    4  A    between atoms: C_8  and  C_9
REMARK    5  A    between atoms: C_9  and  N_10
REMARK    6  A    between atoms: N_10  and  C_11
REMARK                            x       y       z     vdW  Elec       q    Type
REMARK                         _______ _______ _______ _____ _____    ______ ____
ROOT
ATOM      1  C   UNL     1      47.489   6.005  14.434  0.00  0.00    +0.000 C 
ENDROOT
BRANCH   1   2
ATOM      2  C   UNL     1      46.456   5.253  13.634  0.00  0.00    +0.000 A 
ATOM      3  C   UNL     1      46.579   3.873  13.392  0.00  0.00    +0.000 A 
ATOM      4  C   UNL     1      45.650   3.207  12.587  0.00  0.00    +0.000 A 
ATOM      5  C   UNL     1      44.590   3.907  11.990  0.00  0.00    +0.000 A 
ATOM      6  C   UNL     1      44.465   5.280  12.239  0.00  0.00    +0.000 A 
ATOM      7  C   UNL     1      45.393   5.947  13.042  0.00  0.00    +0.000 A 
BRANCH   5   8
ATOM      8  C   UNL     1      43.603   3.198  11.093  0.00  0.00    +0.000 C 
BRANCH   8   9
ATOM      9  N   UNL     1      44.292   2.192  10.294  0.00  0.00    +0.000 N 
ATOM     10  H   UNL     1      43.699   1.386  10.102  0.00  0.00    +0.000 HD
BRANCH   9  11
ATOM     11  C   UNL     1      45.008   2.615   9.172  0.00  0.00    +0.000 A 
ATOM     12  C   UNL     1      45.078   3.918   8.704  0.00  0.00    +0.000 A 
ATOM     13  N   UNL     1      45.839   4.337   7.665  0.00  0.00    +0.000 NA
ATOM     14  C   UNL     1      46.596   3.394   7.089  0.00  0.00    +0.000 A 
ATOM     15  N   UNL     1      46.658   2.107   7.455  0.00  0.00    +0.000 NA
ATOM     16  C   UNL     1      45.871   1.761   8.497  0.00  0.00    +0.000 A 
ENDBRANCH   9  11
ENDBRANCH   8   9
ENDBRANCH   5   8
ENDBRANCH   1   2
BRANCH   1  19
ATOM     17  O   UNL     1      48.907   7.244  12.259  0.00  0.00    +0.000 OA
ATOM     18  C   UNL     1      48.275   7.917  13.071  0.00  0.00    +0.000 C 
ATOM     19  N   UNL     1      47.466   7.396  14.055  0.00  0.00    +0.000 N 
ATOM     20  H   UNL     1      47.158   8.021  14.781  0.00  0.00    +0.000 HD
BRANCH  18  21
ATOM     21  C   UNL     1      48.460   9.351  13.236  0.00  0.00    +0.000 A 
ATOM     22  C   UNL     1      47.823  10.287  12.441  0.00  0.00    +0.000 A 
ATOM     23  S   UNL     1      48.605  11.814  12.503  0.00  0.00    +0.000 S 
ATOM     24  C   UNL     1      49.707  11.265  13.686  0.00  0.00    +0.000 A 
ATOM     25  N   UNL     1      50.762  12.015  14.104  0.00  0.00    +0.000 NA
ATOM     26  C   UNL     1      51.463  11.462  15.040  0.00  0.00    +0.000 A 
ATOM     27  N   UNL     1      51.180  10.256  15.629  0.00  0.00    +0.000 N 
ATOM     28  C   UNL     1      50.121   9.470  15.248  0.00  0.00    +0.000 A 
ATOM     29  O   UNL     1      49.852   8.422  15.823  0.00  0.00    +0.000 OA
ATOM     30  C   UNL     1      49.385   9.998  14.118  0.00  0.00    +0.000 A 
ATOM     31  H   UNL     1      51.723   9.917  16.411  0.00  0.00    +0.000 HD
ENDBRANCH  18  21
ENDBRANCH   1  19
TORSDOF 6
ENDMDL
