MODEL 1
REMARK VINA RESULT:    -8.037      0.000      0.000
REMARK INTER + INTRA:         -12.426
REMARK INTER:                 -11.326
REMARK INTRA:                  -1.101
REMARK UNBOUND:                -1.101
REMARK  Name = 
REMARK  8 active torsions:
REMARK  status: ('A' for Active; 'I' for Inactive)
REMARK    1  A    between atoms: C_1  and  C_2
REMARK    2  A    between atoms: C_2  and  C_3
REMARK    3  A    between atoms: C_2  and  C_14
REMARK    4  A    between atoms: C_3  and  O_4
REMARK    5  A    between atoms: O_4  and  C_5
REMARK    6  A    between atoms: C_8  and  C_9
REMARK    7  A    between atoms: C_18  and  O_19
REMARK    8  A    between atoms: O_19  and  C_20
REMARK                            x       y       z     vdW  Elec       q    Type
REMARK                         _______ _______ _______ _____ _____    ______ ____
ROOT
ATOM      1  C   UNL     1      43.626   3.704  12.971  0.00  0.00    +0.000 C 
ATOM      2  C   UNL     1      43.911   5.039  12.272  0.00  0.00    +0.000 C 
ENDROOT
BRANCH   2   3
ATOM      3  C   UNL     1      45.345   5.480  12.523  0.00  0.00    +0.000 A 
ATOM      4  C   UNL     1      45.984   6.331  11.612  0.00  0.00    +0.000 A 
ATOM      5  C   UNL     1      47.293   6.761  11.842  0.00  0.00    +0.000 A 
ATOM      6  C   UNL     1      47.983   6.344  12.982  0.00  0.00    +0.000 A 
ATOM      7  C   UNL     1      47.366   5.485  13.887  0.00  0.00    +0.000 A 
ATOM      8  C   UNL     1      46.055   5.063  13.659  0.00  0.00    +0.000 A 
BRANCH   7   9
ATOM      9  O   UNL     1      47.931   5.027  15.050  0.00  0.00    +0.000 OA
BRANCH   9  10
ATOM     10  C   UNL     1      47.198   4.078  15.857  0.00  0.00    +0.000 C 
ATOM     11  C   UNL     1      46.966   4.422  17.341  0.00  0.00    +0.000 C 
ATOM     12  N   UNL     1      47.528   3.123  17.746  0.00  0.00    +0.000 NA
ATOM     13  C   UNL     1      48.039   2.898  16.386  0.00  0.00    +0.000 C 
ATOM     14  H   UNL     1      46.832   2.442  18.046  0.00  0.00    +0.000 HD
ENDBRANCH   9  10
ENDBRANCH   7   9
ENDBRANCH   2   3
BRANCH   2  15
ATOM     15  C   UNL     1      43.595   4.915  10.773  0.00  0.00    +0.000 C 
BRANCH  15  16
ATOM     16  O   UNL     1      43.546   3.535  10.379  0.00  0.00    +0.000 OA
BRANCH  16  17
ATOM     17  C   UNL     1      44.531   3.233   9.459  0.00  0.00    +0.000 A 
ATOM     18  C   UNL     1      45.072   4.279   8.735  0.00  0.00    +0.000 A 
ATOM     19  C   UNL     1      46.059   3.986   7.789  0.00  0.00    +0.000 A 
ATOM     20  C   UNL     1      46.473   2.664   7.602  0.00  0.00    +0.000 A 
ATOM     21  C   UNL     1      45.871   1.692   8.387  0.00  0.00    +0.000 A 
ATOM     22  N   UNL     1      44.909   1.945   9.301  0.00  0.00    +0.000 NA
BRANCH  20  23
ATOM     23  C   UNL     1      47.511   2.351   6.594  0.00  0.00    +0.000 C 
ATOM     24  N   UNL     1      47.417   2.896   5.343  0.00  0.00    +0.000 N 
ATOM     25  O   UNL     1      48.454   1.614   6.868  0.00  0.00    +0.000 OA
ATOM     26  H   UNL     1      46.688   3.507   5.009  0.00  0.00    +0.000 HD
ATOM     27  H   UNL     1      48.154   2.656   4.691  0.00  0.00    +0.000 HD
ENDBRANCH  20  23
ENDBRANCH  16  17
ENDBRANCH  15  16
ENDBRANCH   2  15
TORSDOF 7
ENDMDL
MODEL 2
REMARK VINA RESULT:    -6.755      3.149      4.685
REMARK INTER + INTRA:         -10.620
REMARK INTER:                  -9.937
REMARK INTRA:                  -0.683
REMARK UNBOUND:                -1.101
REMARK  Name = 
REMARK  8 active torsions:
REMARK  status: ('A' for Active; 'I' for Inactive)
REMARK    1  A    between atoms: C_1  and  C_2
REMARK    2  A    between atoms: C_2  and  C_3
REMARK    3  A    between atoms: C_2  and  C_14
REMARK    4  A    between atoms: C_3  and  O_4
REMARK    5  A    between atoms: O_4  and  C_5
REMARK    6  A    between atoms: C_8  and  C_9
REMARK    7  A    between atoms: C_18  and  O_19
REMARK    8  A    between atoms: O_19  and  C_20
REMARK                            x       y       z     vdW  Elec       q    Type
REMARK                         _______ _______ _______ _____ _____    ______ ____
ROOT
ATOM      1  C   UNL     1      45.572   3.311  12.620  0.00  0.00    +0.000 C 
ATOM      2  C   UNL     1      44.598   4.470  12.374  0.00  0.00    +0.000 C 
ENDROOT
BRANCH   2   3
ATOM      3  C   UNL     1      45.351   5.787  12.261  0.00  0.00    +0.000 A 
ATOM      4  C   UNL     1      46.742   5.785  12.096  0.00  0.00    +0.000 A 
ATOM      5  C   UNL     1      47.442   6.987  11.970  0.00  0.00    +0.000 A 
ATOM      6  C   UNL     1      46.765   8.207  12.011  0.00  0.00    +0.000 A 
ATOM      7  C   UNL     1      45.385   8.224  12.190  0.00  0.00    +0.000 A 
ATOM      8  C   UNL     1      44.685   7.021  12.309  0.00  0.00    +0.000 A 
BRANCH   7   9
ATOM      9  O   UNL     1      44.608   9.354  12.224  0.00  0.00    +0.000 OA
BRANCH   9  10
ATOM     10  C   UNL     1      44.253   9.996  10.978  0.00  0.00    +0.000 C 
ATOM     11  C   UNL     1      43.963  11.509  11.004  0.00  0.00    +0.000 C 
ATOM     12  N   UNL     1      42.669  11.288  10.338  0.00  0.00    +0.000 NA
ATOM     13  C   UNL     1      42.774   9.841  10.572  0.00  0.00    +0.000 C 
ATOM     14  H   UNL     1      42.656  11.549   9.353  0.00  0.00    +0.000 HD
ENDBRANCH   9  10
ENDBRANCH   7   9
ENDBRANCH   2   3
BRANCH   2  15
ATOM     15  C   UNL     1      43.750   4.177  11.127  0.00  0.00    +0.000 C 
BRANCH  15  16
ATOM     16  O   UNL     1      44.222   4.936  10.004  0.00  0.00    +0.000 OA
BRANCH  16  17
ATOM     17  C   UNL     1      45.008   4.170   9.165  0.00  0.00    +0.000 A 
ATOM     18  C   UNL     1      44.876   2.796   9.244  0.00  0.00    +0.000 A 
ATOM     19  C   UNL     1      45.677   2.007   8.413  0.00  0.00    +0.000 A 
ATOM     20  C   UNL     1      46.575   2.615   7.531  0.00  0.00    +0.000 A 
ATOM     21  C   UNL     1      46.622   4.001   7.526  0.00  0.00    +0.000 A 
ATOM     22  N   UNL     1      45.867   4.787   8.325  0.00  0.00    +0.000 NA
BRANCH  20  23
ATOM     23  C   UNL     1      47.430   1.782   6.656  0.00  0.00    +0.000 C 
ATOM     24  N   UNL     1      48.527   2.342   6.060  0.00  0.00    +0.000 N 
ATOM     25  O   UNL     1      47.171   0.598   6.463  0.00  0.00    +0.000 OA
ATOM     26  H   UNL     1      48.831   3.299   6.145  0.00  0.00    +0.000 HD
ATOM     27  H   UNL     1      49.084   1.730   5.476  0.00  0.00    +0.000 HD
ENDBRANCH  20  23
ENDBRANCH  16  17
ENDBRANCH  15  16
ENDBRANCH   2  15
TORSDOF 7
ENDMDL
MODEL 3
REMARK VINA RESULT:    -6.631      2.768      3.676
REMARK INTER + INTRA:         -10.445
REMARK INTER:                  -9.794
REMARK INTRA:                  -0.651
REMARK UNBOUND:                -1.101
REMARK  Name = 
REMARK  8 active torsions:
REMARK  status: ('A' for Active; 'I' for Inactive)
REMARK    1  A    between atoms: C_1  and  C_2
REMARK    2  A    between atoms: C_2  and  C_3
REMARK    3  A    between atoms: C_2  and  C_14
REMARK    4  A    between atoms: C_3  and  O_4
REMARK    5  A    between atoms: O_4  and  C_5
REMARK    6  A    between atoms: C_8  and  C_9
REMARK    7  A    between atoms: C_18  and  O_19
REMARK    8  A    between atoms: O_19  and  C_20
REMARK                            x       y       z     vdW  Elec       q    Type
REMARK                         _______ _______ _______ _____ _____    ______ ____
ROOT
ATOM      1  C   UNL     1      45.657   3.248  12.772  0.00  0.00    +0.000 C 
ATOM      2  C   UNL     1      44.618   4.316  12.405  0.00  0.00    +0.000 C 
ENDROOT
BRANCH   2   3
ATOM      3  C   UNL     1      45.283   5.674  12.239  0.00  0.00    +0.000 A 
ATOM      4  C   UNL     1      44.497   6.817  12.042  0.00  0.00    +0.000 A 
ATOM      5  C   UNL     1      45.095   8.073  11.908  0.00  0.00    +0.000 A 
ATOM      6  C   UNL     1      46.483   8.204  11.966  0.00  0.00    +0.000 A 
ATOM      7  C   UNL     1      47.276   7.075  12.145  0.00  0.00    +0.000 A 
ATOM      8  C   UNL     1      46.677   5.821  12.286  0.00  0.00    +0.000 A 
BRANCH   7   9
ATOM      9  O   UNL     1      48.644   7.080  12.241  0.00  0.00    +0.000 OA
BRANCH   9  10
ATOM     10  C   UNL     1      49.394   8.076  11.510  0.00  0.00    +0.000 C 
ATOM     11  C   UNL     1      50.813   7.706  11.036  0.00  0.00    +0.000 C 
ATOM     12  N   UNL     1      51.358   8.916  11.673  0.00  0.00    +0.000 NA
ATOM     13  C   UNL     1      50.092   9.132  12.390  0.00  0.00    +0.000 C 
ATOM     14  H   UNL     1      51.596   9.661  11.020  0.00  0.00    +0.000 HD
ENDBRANCH   9  10
ENDBRANCH   7   9
ENDBRANCH   2   3
BRANCH   2  15
ATOM     15  C   UNL     1      43.856   3.883  11.144  0.00  0.00    +0.000 C 
BRANCH  15  16
ATOM     16  O   UNL     1      44.249   4.680  10.016  0.00  0.00    +0.000 OA
BRANCH  16  17
ATOM     17  C   UNL     1      45.043   3.965   9.140  0.00  0.00    +0.000 A 
ATOM     18  C   UNL     1      44.999   2.586   9.219  0.00  0.00    +0.000 A 
ATOM     19  C   UNL     1      45.809   1.849   8.349  0.00  0.00    +0.000 A 
ATOM     20  C   UNL     1      46.629   2.513   7.431  0.00  0.00    +0.000 A 
ATOM     21  C   UNL     1      46.590   3.900   7.431  0.00  0.00    +0.000 A 
ATOM     22  N   UNL     1      45.825   4.636   8.266  0.00  0.00    +0.000 NA
BRANCH  20  23
ATOM     23  C   UNL     1      47.494   1.736   6.516  0.00  0.00    +0.000 C 
ATOM     24  N   UNL     1      48.530   2.363   5.879  0.00  0.00    +0.000 N 
ATOM     25  O   UNL     1      47.297   0.539   6.326  0.00  0.00    +0.000 OA
ATOM     26  H   UNL     1      48.779   3.336   5.957  0.00  0.00    +0.000 HD
ATOM     27  H   UNL     1      49.096   1.787   5.267  0.00  0.00    +0.000 HD
ENDBRANCH  20  23
ENDBRANCH  16  17
ENDBRANCH  15  16
ENDBRANCH   2  15
TORSDOF 7
ENDMDL
MODEL 4
REMARK VINA RESULT:    -6.625      2.377      3.334
REMARK INTER + INTRA:         -10.436
REMARK INTER:                  -9.648
REMARK INTRA:                  -0.787
REMARK UNBOUND:                -1.101
REMARK  Name = 
REMARK  8 active torsions:
REMARK  status: ('A' for Active; 'I' for Inactive)
REMARK    1  A    between atoms: C_1  and  C_2
REMARK    2  A    between atoms: C_2  and  C_3
REMARK    3  A    between atoms: C_2  and  C_14
REMARK    4  A    between atoms: C_3  and  O_4
REMARK    5  A    between atoms: O_4  and  C_5
REMARK    6  A    between atoms: C_8  and  C_9
REMARK    7  A    between atoms: C_18  and  O_19
REMARK    8  A    between atoms: O_19  and  C_20
REMARK                            x       y       z     vdW  Elec       q    Type
REMARK                         _______ _______ _______ _____ _____    ______ ____
ROOT
ATOM      1  C   UNL     1      44.311   7.172  11.355  0.00  0.00    +0.000 C 
ATOM      2  C   UNL     1      45.098   5.858  11.268  0.00  0.00    +0.000 C 
ENDROOT
BRANCH   2   3
ATOM      3  C   UNL     1      45.997   5.690  12.483  0.00  0.00    +0.000 A 
ATOM      4  C   UNL     1      46.026   4.468  13.167  0.00  0.00    +0.000 A 
ATOM      5  C   UNL     1      46.863   4.294  14.272  0.00  0.00    +0.000 A 
ATOM      6  C   UNL     1      47.679   5.339  14.712  0.00  0.00    +0.000 A 
ATOM      7  C   UNL     1      47.647   6.563  14.052  0.00  0.00    +0.000 A 
ATOM      8  C   UNL     1      46.815   6.733  12.942  0.00  0.00    +0.000 A 
BRANCH   7   9
ATOM      9  O   UNL     1      48.416   7.652  14.374  0.00  0.00    +0.000 OA
BRANCH   9  10
ATOM     10  C   UNL     1      49.687   7.833  13.709  0.00  0.00    +0.000 C 
ATOM     11  C   UNL     1      50.954   7.905  14.583  0.00  0.00    +0.000 C 
ATOM     12  N   UNL     1      51.342   9.173  13.943  0.00  0.00    +0.000 NA
ATOM     13  C   UNL     1      50.012   9.291  13.327  0.00  0.00    +0.000 C 
ATOM     14  H   UNL     1      52.103   9.086  13.272  0.00  0.00    +0.000 HD
ENDBRANCH   9  10
ENDBRANCH   7   9
ENDBRANCH   2   3
BRANCH   2  15
ATOM     15  C   UNL     1      44.123   4.683  11.099  0.00  0.00    +0.000 C 
BRANCH  15  16
ATOM     16  O   UNL     1      43.717   4.555   9.728  0.00  0.00    +0.000 OA
BRANCH  16  17
ATOM     17  C   UNL     1      44.627   3.820   8.994  0.00  0.00    +0.000 A 
ATOM     18  C   UNL     1      44.752   2.477   9.291  0.00  0.00    +0.000 A 
ATOM     19  C   UNL     1      45.681   1.724   8.566  0.00  0.00    +0.000 A 
ATOM     20  C   UNL     1      46.447   2.336   7.570  0.00  0.00    +0.000 A 
ATOM     21  C   UNL     1      46.237   3.689   7.347  0.00  0.00    +0.000 A 
ATOM     22  N   UNL     1      45.354   4.442   8.038  0.00  0.00    +0.000 NA
BRANCH  20  23
ATOM     23  C   UNL     1      47.438   1.543   6.808  0.00  0.00    +0.000 C 
ATOM     24  N   UNL     1      48.655   2.095   6.513  0.00  0.00    +0.000 N 
ATOM     25  O   UNL     1      47.184   0.399   6.442  0.00  0.00    +0.000 OA
ATOM     26  H   UNL     1      48.967   3.022   6.758  0.00  0.00    +0.000 HD
ATOM     27  H   UNL     1      49.300   1.511   5.995  0.00  0.00    +0.000 HD
ENDBRANCH  20  23
ENDBRANCH  16  17
ENDBRANCH  15  16
ENDBRANCH   2  15
TORSDOF 7
ENDMDL
MODEL 5
REMARK VINA RESULT:    -6.487      2.446      8.123
REMARK INTER + INTRA:         -10.242
REMARK INTER:                  -9.785
REMARK INTRA:                  -0.457
REMARK UNBOUND:                -1.101
REMARK  Name = 
REMARK  8 active torsions:
REMARK  status: ('A' for Active; 'I' for Inactive)
REMARK    1  A    between atoms: C_1  and  C_2
REMARK    2  A    between atoms: C_2  and  C_3
REMARK    3  A    between atoms: C_2  and  C_14
REMARK    4  A    between atoms: C_3  and  O_4
REMARK    5  A    between atoms: O_4  and  C_5
REMARK    6  A    between atoms: C_8  and  C_9
REMARK    7  A    between atoms: C_18  and  O_19
REMARK    8  A    between atoms: O_19  and  C_20
REMARK                            x       y       z     vdW  Elec       q    Type
REMARK                         _______ _______ _______ _____ _____    ______ ____
ROOT
ATOM      1  C   UNL     1      47.489   5.903  13.312  0.00  0.00    +0.000 C 
ATOM      2  C   UNL     1      46.474   4.929  13.922  0.00  0.00    +0.000 C 
ENDROOT
BRANCH   2   3
ATOM      3  C   UNL     1      45.315   4.693  12.966  0.00  0.00    +0.000 A 
ATOM      4  C   UNL     1      44.150   5.462  13.076  0.00  0.00    +0.000 A 
ATOM      5  C   UNL     1      43.087   5.270  12.190  0.00  0.00    +0.000 A 
ATOM      6  C   UNL     1      43.171   4.306  11.185  0.00  0.00    +0.000 A 
ATOM      7  C   UNL     1      44.317   3.523  11.073  0.00  0.00    +0.000 A 
ATOM      8  C   UNL     1      45.381   3.722  11.955  0.00  0.00    +0.000 A 
BRANCH   7   9
ATOM      9  O   UNL     1      44.526   2.564  10.116  0.00  0.00    +0.000 OA
BRANCH   9  10
ATOM     10  C   UNL     1      44.676   2.972   8.738  0.00  0.00    +0.000 C 
ATOM     11  C   UNL     1      45.949   2.530   7.989  0.00  0.00    +0.000 C 
ATOM     12  N   UNL     1      46.222   3.923   7.599  0.00  0.00    +0.000 NA
ATOM     13  C   UNL     1      45.206   4.407   8.545  0.00  0.00    +0.000 C 
ATOM     14  H   UNL     1      46.014   4.132   6.624  0.00  0.00    +0.000 HD
ENDBRANCH   9  10
ENDBRANCH   7   9
ENDBRANCH   2   3
BRANCH   2  15
ATOM     15  C   UNL     1      47.182   3.622  14.310  0.00  0.00    +0.000 C 
BRANCH  15  16
ATOM     16  O   UNL     1      47.062   3.381  15.720  0.00  0.00    +0.000 OA
BRANCH  16  17
ATOM     17  C   UNL     1      48.298   3.213  16.315  0.00  0.00    +0.000 A 
ATOM     18  C   UNL     1      48.800   4.268  17.053  0.00  0.00    +0.000 A 
ATOM     19  C   UNL     1      50.057   4.119  17.647  0.00  0.00    +0.000 A 
ATOM     20  C   UNL     1      50.764   2.923  17.489  0.00  0.00    +0.000 A 
ATOM     21  C   UNL     1      50.164   1.924  16.735  0.00  0.00    +0.000 A 
ATOM     22  N   UNL     1      48.956   2.046  16.142  0.00  0.00    +0.000 NA
BRANCH  20  23
ATOM     23  C   UNL     1      52.098   2.766  18.109  0.00  0.00    +0.000 C 
ATOM     24  N   UNL     1      52.395   3.465  19.248  0.00  0.00    +0.000 N 
ATOM     25  O   UNL     1      52.938   2.016  17.620  0.00  0.00    +0.000 OA
ATOM     26  H   UNL     1      51.787   4.108  19.730  0.00  0.00    +0.000 HD
ATOM     27  H   UNL     1      53.318   3.319  19.637  0.00  0.00    +0.000 HD
ENDBRANCH  20  23
ENDBRANCH  16  17
ENDBRANCH  15  16
ENDBRANCH   2  15
TORSDOF 7
ENDMDL
MODEL 6
REMARK VINA RESULT:    -6.390      1.799      8.191
REMARK INTER + INTRA:         -10.105
REMARK INTER:                  -9.358
REMARK INTRA:                  -0.747
REMARK UNBOUND:                -1.101
REMARK  Name = 
REMARK  8 active torsions:
REMARK  status: ('A' for Active; 'I' for Inactive)
REMARK    1  A    between atoms: C_1  and  C_2
REMARK    2  A    between atoms: C_2  and  C_3
REMARK    3  A    between atoms: C_2  and  C_14
REMARK    4  A    between atoms: C_3  and  O_4
REMARK    5  A    between atoms: O_4  and  C_5
REMARK    6  A    between atoms: C_8  and  C_9
REMARK    7  A    between atoms: C_18  and  O_19
REMARK    8  A    between atoms: O_19  and  C_20
REMARK                            x       y       z     vdW  Elec       q    Type
REMARK                         _______ _______ _______ _____ _____    ______ ____
ROOT
ATOM      1  C   UNL     1      47.157   6.933  11.732  0.00  0.00    +0.000 C 
ATOM      2  C   UNL     1      46.421   6.178  12.847  0.00  0.00    +0.000 C 
ENDROOT
BRANCH   2   3
ATOM      3  C   UNL     1      45.176   5.498  12.301  0.00  0.00    +0.000 A 
ATOM      4  C   UNL     1      43.938   5.704  12.922  0.00  0.00    +0.000 A 
ATOM      5  C   UNL     1      42.782   5.102  12.418  0.00  0.00    +0.000 A 
ATOM      6  C   UNL     1      42.848   4.282  11.289  0.00  0.00    +0.000 A 
ATOM      7  C   UNL     1      44.074   4.055  10.672  0.00  0.00    +0.000 A 
ATOM      8  C   UNL     1      45.227   4.664  11.173  0.00  0.00    +0.000 A 
BRANCH   7   9
ATOM      9  O   UNL     1      44.262   3.292   9.548  0.00  0.00    +0.000 OA
BRANCH   9  10
ATOM     10  C   UNL     1      45.608   3.062   9.075  0.00  0.00    +0.000 C 
ATOM     11  C   UNL     1      45.985   3.603   7.682  0.00  0.00    +0.000 C 
ATOM     12  N   UNL     1      46.468   2.272   7.279  0.00  0.00    +0.000 NA
ATOM     13  C   UNL     1      45.846   1.666   8.465  0.00  0.00    +0.000 C 
ATOM     14  H   UNL     1      47.483   2.186   7.253  0.00  0.00    +0.000 HD
ENDBRANCH   9  10
ENDBRANCH   7   9
ENDBRANCH   2   3
BRANCH   2  15
ATOM     15  C   UNL     1      47.381   5.182  13.517  0.00  0.00    +0.000 C 
BRANCH  15  16
ATOM     16  O   UNL     1      46.676   4.348  14.448  0.00  0.00    +0.000 OA
BRANCH  16  17
ATOM     17  C   UNL     1      47.272   4.359  15.694  0.00  0.00    +0.000 A 
ATOM     18  C   UNL     1      48.117   5.412  15.989  0.00  0.00    +0.000 A 
ATOM     19  C   UNL     1      48.739   5.429  17.240  0.00  0.00    +0.000 A 
ATOM     20  C   UNL     1      48.495   4.398  18.153  0.00  0.00    +0.000 A 
ATOM     21  C   UNL     1      47.624   3.393  17.759  0.00  0.00    +0.000 A 
ATOM     22  N   UNL     1      47.016   3.348  16.553  0.00  0.00    +0.000 NA
BRANCH  20  23
ATOM     23  C   UNL     1      49.160   4.408  19.475  0.00  0.00    +0.000 C 
ATOM     24  N   UNL     1      48.516   3.866  20.554  0.00  0.00    +0.000 N 
ATOM     25  O   UNL     1      50.280   4.892  19.615  0.00  0.00    +0.000 OA
ATOM     26  H   UNL     1      47.598   3.449  20.556  0.00  0.00    +0.000 HD
ATOM     27  H   UNL     1      49.015   3.892  21.435  0.00  0.00    +0.000 HD
ENDBRANCH  20  23
ENDBRANCH  16  17
ENDBRANCH  15  16
ENDBRANCH   2  15
TORSDOF 7
ENDMDL
MODEL 7
REMARK VINA RESULT:    -6.256      2.899      4.481
REMARK INTER + INTRA:          -9.917
REMARK INTER:                  -8.932
REMARK INTRA:                  -0.985
REMARK UNBOUND:                -1.101
REMARK  Name = 
REMARK  8 active torsions:
REMARK  status: ('A' for Active; 'I' for Inactive)
REMARK    1  A    between atoms: C_1  and  C_2
REMARK    2  A    between atoms: C_2  and  C_3
REMARK    3  A    between atoms: C_2  and  C_14
REMARK    4  A    between atoms: C_3  and  O_4
REMARK    5  A    between atoms: O_4  and  C_5
REMARK    6  A    between atoms: C_8  and  C_9
REMARK    7  A    between atoms: C_18  and  O_19
REMARK    8  A    between atoms: O_19  and  C_20
REMARK                            x       y       z     vdW  Elec       q    Type
REMARK                         _______ _______ _______ _____ _____    ______ ____
ROOT
ATOM      1  C   UNL     1      48.923   8.637  11.475  0.00  0.00    +0.000 C 
ATOM      2  C   UNL     1      47.920   7.877  12.351  0.00  0.00    +0.000 C 
ENDROOT
BRANCH   2   3
ATOM      3  C   UNL     1      48.395   7.835  13.795  0.00  0.00    +0.000 A 
ATOM      4  C   UNL     1      48.739   9.023  14.453  0.00  0.00    +0.000 A 
ATOM      5  C   UNL     1      49.156   9.000  15.786  0.00  0.00    +0.000 A 
ATOM      6  C   UNL     1      49.239   7.791  16.479  0.00  0.00    +0.000 A 
ATOM      7  C   UNL     1      48.916   6.602  15.834  0.00  0.00    +0.000 A 
ATOM      8  C   UNL     1      48.492   6.627  14.503  0.00  0.00    +0.000 A 
BRANCH   7   9
ATOM      9  O   UNL     1      48.936   5.359  16.414  0.00  0.00    +0.000 OA
BRANCH   9  10
ATOM     10  C   UNL     1      47.713   4.592  16.468  0.00  0.00    +0.000 C 
ATOM     11  C   UNL     1      47.035   4.412  17.840  0.00  0.00    +0.000 C 
ATOM     12  N   UNL     1      47.003   2.953  17.650  0.00  0.00    +0.000 NA
ATOM     13  C   UNL     1      47.911   3.064  16.499  0.00  0.00    +0.000 C 
ATOM     14  H   UNL     1      46.083   2.582  17.418  0.00  0.00    +0.000 HD
ENDBRANCH   9  10
ENDBRANCH   7   9
ENDBRANCH   2   3
BRANCH   2  15
ATOM     15  C   UNL     1      46.529   8.514  12.215  0.00  0.00    +0.000 C 
BRANCH  15  16
ATOM     16  O   UNL     1      45.592   7.877  13.096  0.00  0.00    +0.000 OA
BRANCH  16  17
ATOM     17  C   UNL     1      45.200   6.642  12.617  0.00  0.00    +0.000 A 
ATOM     18  C   UNL     1      44.482   6.614  11.437  0.00  0.00    +0.000 A 
ATOM     19  C   UNL     1      44.065   5.372  10.948  0.00  0.00    +0.000 A 
ATOM     20  C   UNL     1      44.383   4.205  11.650  0.00  0.00    +0.000 A 
ATOM     21  C   UNL     1      45.115   4.346  12.820  0.00  0.00    +0.000 A 
ATOM     22  N   UNL     1      45.522   5.533  13.319  0.00  0.00    +0.000 NA
BRANCH  20  23
ATOM     23  C   UNL     1      43.935   2.890  11.139  0.00  0.00    +0.000 C 
ATOM     24  N   UNL     1      44.622   2.300  10.113  0.00  0.00    +0.000 N 
ATOM     25  O   UNL     1      42.961   2.323  11.625  0.00  0.00    +0.000 OA
ATOM     26  H   UNL     1      45.428   2.675   9.638  0.00  0.00    +0.000 HD
ATOM     27  H   UNL     1      44.280   1.399   9.802  0.00  0.00    +0.000 HD
ENDBRANCH  20  23
ENDBRANCH  16  17
ENDBRANCH  15  16
ENDBRANCH   2  15
TORSDOF 7
ENDMDL
MODEL 8
REMARK VINA RESULT:    -6.230      3.070      7.527
REMARK INTER + INTRA:          -9.880
REMARK INTER:                  -8.854
REMARK INTRA:                  -1.026
REMARK UNBOUND:                -1.101
REMARK  Name = 
REMARK  8 active torsions:
REMARK  status: ('A' for Active; 'I' for Inactive)
REMARK    1  A    between atoms: C_1  and  C_2
REMARK    2  A    between atoms: C_2  and  C_3
REMARK    3  A    between atoms: C_2  and  C_14
REMARK    4  A    between atoms: C_3  and  O_4
REMARK    5  A    between atoms: O_4  and  C_5
REMARK    6  A    between atoms: C_8  and  C_9
REMARK    7  A    between atoms: C_18  and  O_19
REMARK    8  A    between atoms: O_19  and  C_20
REMARK                            x       y       z     vdW  Elec       q    Type
REMARK                         _______ _______ _______ _____ _____    ______ ____
ROOT
ATOM      1  C   UNL     1      50.168   7.882  11.278  0.00  0.00    +0.000 C 
ATOM      2  C   UNL     1      49.363   8.289  12.519  0.00  0.00    +0.000 C 
ENDROOT
BRANCH   2   3
ATOM      3  C   UNL     1      47.874   8.104  12.276  0.00  0.00    +0.000 A 
ATOM      4  C   UNL     1      46.981   9.138  12.588  0.00  0.00    +0.000 A 
ATOM      5  C   UNL     1      45.613   8.989  12.350  0.00  0.00    +0.000 A 
ATOM      6  C   UNL     1      45.116   7.805  11.801  0.00  0.00    +0.000 A 
ATOM      7  C   UNL     1      45.990   6.764  11.501  0.00  0.00    +0.000 A 
ATOM      8  C   UNL     1      47.359   6.918  11.733  0.00  0.00    +0.000 A 
BRANCH   7   9
ATOM      9  O   UNL     1      45.626   5.567  10.939  0.00  0.00    +0.000 OA
BRANCH   9  10
ATOM     10  C   UNL     1      44.791   4.663  11.697  0.00  0.00    +0.000 C 
ATOM     11  C   UNL     1      45.436   3.895  12.867  0.00  0.00    +0.000 C 
ATOM     12  N   UNL     1      44.946   2.619  12.320  0.00  0.00    +0.000 NA
ATOM     13  C   UNL     1      44.593   3.276  11.053  0.00  0.00    +0.000 C 
ATOM     14  H   UNL     1      44.149   2.228  12.820  0.00  0.00    +0.000 HD
ENDBRANCH   9  10
ENDBRANCH   7   9
ENDBRANCH   2   3
BRANCH   2  15
ATOM     15  C   UNL     1      49.857   7.494  13.738  0.00  0.00    +0.000 C 
BRANCH  15  16
ATOM     16  O   UNL     1      49.135   7.877  14.918  0.00  0.00    +0.000 OA
BRANCH  16  17
ATOM     17  C   UNL     1      48.731   6.776  15.647  0.00  0.00    +0.000 A 
ATOM     18  C   UNL     1      49.012   6.768  17.001  0.00  0.00    +0.000 A 
ATOM     19  C   UNL     1      48.623   5.653  17.749  0.00  0.00    +0.000 A 
ATOM     20  C   UNL     1      47.964   4.590  17.123  0.00  0.00    +0.000 A 
ATOM     21  C   UNL     1      47.725   4.703  15.761  0.00  0.00    +0.000 A 
ATOM     22  N   UNL     1      48.098   5.765  15.013  0.00  0.00    +0.000 NA
BRANCH  20  23
ATOM     23  C   UNL     1      47.559   3.404  17.911  0.00  0.00    +0.000 C 
ATOM     24  N   UNL     1      48.249   3.090  19.050  0.00  0.00    +0.000 N 
ATOM     25  O   UNL     1      46.614   2.705  17.559  0.00  0.00    +0.000 OA
ATOM     26  H   UNL     1      49.039   3.588  19.429  0.00  0.00    +0.000 HD
ATOM     27  H   UNL     1      47.930   2.273  19.558  0.00  0.00    +0.000 HD
ENDBRANCH  20  23
ENDBRANCH  16  17
ENDBRANCH  15  16
ENDBRANCH   2  15
TORSDOF 7
ENDMDL
MODEL 9
REMARK VINA RESULT:    -5.910      3.514      5.830
REMARK INTER + INTRA:          -9.430
REMARK INTER:                  -8.523
REMARK INTRA:                  -0.906
REMARK UNBOUND:                -1.101
REMARK  Name = 
REMARK  8 active torsions:
REMARK  status: ('A' for Active; 'I' for Inactive)
REMARK    1  A    between atoms: C_1  and  C_2
REMARK    2  A    between atoms: C_2  and  C_3
REMARK    3  A    between atoms: C_2  and  C_14
REMARK    4  A    between atoms: C_3  and  O_4
REMARK    5  A    between atoms: O_4  and  C_5
REMARK    6  A    between atoms: C_8  and  C_9
REMARK    7  A    between atoms: C_18  and  O_19
REMARK    8  A    between atoms: O_19  and  C_20
REMARK                            x       y       z     vdW  Elec       q    Type
REMARK                         _______ _______ _______ _____ _____    ______ ____
ROOT
ATOM      1  C   UNL     1      50.013   9.639  15.246  0.00  0.00    +0.000 C 
ATOM      2  C   UNL     1      50.165   8.267  14.577  0.00  0.00    +0.000 C 
ENDROOT
BRANCH   2   3
ATOM      3  C   UNL     1      50.772   7.263  15.544  0.00  0.00    +0.000 A 
ATOM      4  C   UNL     1      52.157   7.242  15.751  0.00  0.00    +0.000 A 
ATOM      5  C   UNL     1      52.726   6.339  16.653  0.00  0.00    +0.000 A 
ATOM      6  C   UNL     1      51.920   5.443  17.357  0.00  0.00    +0.000 A 
ATOM      7  C   UNL     1      50.544   5.442  17.150  0.00  0.00    +0.000 A 
ATOM      8  C   UNL     1      49.977   6.351  16.253  0.00  0.00    +0.000 A 
BRANCH   7   9
ATOM      9  O   UNL     1      49.650   4.629  17.798  0.00  0.00    +0.000 OA
BRANCH   9  10
ATOM     10  C   UNL     1      48.436   4.240  17.116  0.00  0.00    +0.000 C 
ATOM     11  C   UNL     1      47.093   4.522  17.817  0.00  0.00    +0.000 C 
ATOM     12  N   UNL     1      46.693   3.115  17.649  0.00  0.00    +0.000 NA
ATOM     13  C   UNL     1      48.064   2.751  17.262  0.00  0.00    +0.000 C 
ATOM     14  H   UNL     1      46.001   2.963  16.917  0.00  0.00    +0.000 HD
ENDBRANCH   9  10
ENDBRANCH   7   9
ENDBRANCH   2   3
BRANCH   2  15
ATOM     15  C   UNL     1      48.803   7.803  14.037  0.00  0.00    +0.000 C 
BRANCH  15  16
ATOM     16  O   UNL     1      48.967   6.714  13.117  0.00  0.00    +0.000 OA
BRANCH  16  17
ATOM     17  C   UNL     1      47.785   6.026  12.926  0.00  0.00    +0.000 A 
ATOM     18  C   UNL     1      46.945   6.467  11.921  0.00  0.00    +0.000 A 
ATOM     19  C   UNL     1      45.737   5.790  11.726  0.00  0.00    +0.000 A 
ATOM     20  C   UNL     1      45.413   4.697  12.536  0.00  0.00    +0.000 A 
ATOM     21  C   UNL     1      46.331   4.333  13.510  0.00  0.00    +0.000 A 
ATOM     22  N   UNL     1      47.500   4.975  13.726  0.00  0.00    +0.000 NA
BRANCH  20  23
ATOM     23  C   UNL     1      44.131   3.985  12.338  0.00  0.00    +0.000 C 
ATOM     24  N   UNL     1      44.057   2.647  12.614  0.00  0.00    +0.000 N 
ATOM     25  O   UNL     1      43.135   4.579  11.934  0.00  0.00    +0.000 OA
ATOM     26  H   UNL     1      44.809   2.062  12.944  0.00  0.00    +0.000 HD
ATOM     27  H   UNL     1      43.157   2.206  12.468  0.00  0.00    +0.000 HD
ENDBRANCH  20  23
ENDBRANCH  16  17
ENDBRANCH  15  16
ENDBRANCH   2  15
TORSDOF 7
ENDMDL
