MODEL 1
REMARK VINA RESULT:    -7.974      0.000      0.000
REMARK INTER + INTRA:         -12.507
REMARK INTER:                 -11.237
REMARK INTRA:                  -1.270
REMARK UNBOUND:                -1.270
REMARK  Name = 
REMARK  7 active torsions:
REMARK  status: ('A' for Active; 'I' for Inactive)
REMARK    1  A    between atoms: C_2  and  C_20
REMARK    2  A    between atoms: N_3  and  C_4
REMARK    3  A    between atoms: C_4  and  C_5
REMARK    4  A    between atoms: C_8  and  C_9
REMARK    5  A    between atoms: C_9  and  C_10
REMARK    6  A    between atoms: C_10  and  O_11
REMARK    7  A    between atoms: O_11  and  C_12
REMARK                            x       y       z     vdW  Elec       q    Type
REMARK                         _______ _______ _______ _____ _____    ______ ____
ROOT
ATOM      1  C   UNL     1      45.186   7.019  11.421  0.00  0.00    +0.000 C 
ENDROOT
BRANCH   1   2
ATOM      2  C   UNL     1      46.371   7.314  12.289  0.00  0.00    +0.000 A 
ATOM      3  C   UNL     1      46.358   8.382  13.182  0.00  0.00    +0.000 A 
ATOM      4  C   UNL     1      47.491   8.677  13.971  0.00  0.00    +0.000 A 
ATOM      5  C   UNL     1      48.660   7.906  13.862  0.00  0.00    +0.000 A 
ATOM      6  C   UNL     1      48.674   6.840  12.952  0.00  0.00    +0.000 A 
ATOM      7  C   UNL     1      47.542   6.549  12.175  0.00  0.00    +0.000 A 
BRANCH   5   8
ATOM      8  C   UNL     1      49.911   8.170  14.672  0.00  0.00    +0.000 C 
BRANCH   8   9
ATOM      9  C   UNL     1      50.252   7.110  15.720  0.00  0.00    +0.000 C 
BRANCH   9  10
ATOM     10  O   UNL     1      49.120   6.843  16.546  0.00  0.00    +0.000 OA
BRANCH  10  11
ATOM     11  C   UNL     1      48.772   5.518  16.662  0.00  0.00    +0.000 A 
ATOM     12  C   UNL     1      47.723   4.894  15.978  0.00  0.00    +0.000 A 
ATOM     13  C   UNL     1      47.463   3.534  16.163  0.00  0.00    +0.000 A 
ATOM     14  C   UNL     1      48.248   2.793  17.041  0.00  0.00    +0.000 A 
ATOM     15  C   UNL     1      49.294   3.405  17.730  0.00  0.00    +0.000 A 
ATOM     16  C   UNL     1      49.550   4.768  17.542  0.00  0.00    +0.000 A 
ENDBRANCH  10  11
ENDBRANCH   9  10
ENDBRANCH   8   9
ENDBRANCH   5   8
ENDBRANCH   1   2
BRANCH   1  19
ATOM     17  O   UNL     1      42.854   5.536  10.756  0.00  0.00    +0.000 OA
ATOM     18  C   UNL     1      43.958   5.017  10.670  0.00  0.00    +0.000 C 
ATOM     19  N   UNL     1      45.121   5.617  11.107  0.00  0.00    +0.000 N 
ATOM     20  H   UNL     1      45.971   5.112  10.868  0.00  0.00    +0.000 HD
BRANCH  18  21
ATOM     21  C   UNL     1      44.213   3.739   9.981  0.00  0.00    +0.000 A 
ATOM     22  N   UNL     1      43.723   2.578  10.470  0.00  0.00    +0.000 NA
ATOM     23  N   UNL     1      44.367   1.637   9.762  0.00  0.00    +0.000 N 
ATOM     24  C   UNL     1      45.285   2.133   8.879  0.00  0.00    +0.000 A 
ATOM     25  C   UNL     1      46.272   1.501   8.114  0.00  0.00    +0.000 A 
ATOM     26  C   UNL     1      47.026   2.312   7.261  0.00  0.00    +0.000 A 
ATOM     27  C   UNL     1      46.767   3.678   7.147  0.00  0.00    +0.000 A 
ATOM     28  C   UNL     1      45.806   4.295   7.958  0.00  0.00    +0.000 A 
ATOM     29  C   UNL     1      45.086   3.508   8.876  0.00  0.00    +0.000 A 
ATOM     30  H   UNL     1      44.164   0.664   9.958  0.00  0.00    +0.000 HD
ENDBRANCH  18  21
ENDBRANCH   1  19
TORSDOF 7
ENDMDL
MODEL 2
REMARK VINA RESULT:    -7.924      2.789      8.559
REMARK INTER + INTRA:         -12.437
REMARK INTER:                 -11.333
REMARK INTRA:                  -1.103
REMARK UNBOUND:                -1.270
REMARK  Name = 
REMARK  7 active torsions:
REMARK  status: ('A' for Active; 'I' for Inactive)
REMARK    1  A    between atoms: C_2  and  C_20
REMARK    2  A    between atoms: N_3  and  C_4
REMARK    3  A    between atoms: C_4  and  C_5
REMARK    4  A    between atoms: C_8  and  C_9
REMARK    5  A    between atoms: C_9  and  C_10
REMARK    6  A    between atoms: C_10  and  O_11
REMARK    7  A    between atoms: O_11  and  C_12
REMARK                            x       y       z     vdW  Elec       q    Type
REMARK                         _______ _______ _______ _____ _____    ______ ____
ROOT
ATOM      1  C   UNL     1      47.216   7.215  13.288  0.00  0.00    +0.000 C 
ENDROOT
BRANCH   1   2
ATOM      2  C   UNL     1      46.364   6.148  12.672  0.00  0.00    +0.000 A 
ATOM      3  C   UNL     1      46.076   4.973  13.359  0.00  0.00    +0.000 A 
ATOM      4  C   UNL     1      45.302   3.956  12.758  0.00  0.00    +0.000 A 
ATOM      5  C   UNL     1      44.817   4.104  11.448  0.00  0.00    +0.000 A 
ATOM      6  C   UNL     1      45.120   5.284  10.755  0.00  0.00    +0.000 A 
ATOM      7  C   UNL     1      45.885   6.292  11.359  0.00  0.00    +0.000 A 
BRANCH   5   8
ATOM      8  C   UNL     1      43.988   3.053  10.743  0.00  0.00    +0.000 C 
BRANCH   8   9
ATOM      9  C   UNL     1      44.363   2.791   9.283  0.00  0.00    +0.000 C 
BRANCH   9  10
ATOM     10  O   UNL     1      45.566   2.027   9.207  0.00  0.00    +0.000 OA
BRANCH  10  11
ATOM     11  C   UNL     1      46.206   2.053   7.990  0.00  0.00    +0.000 A 
ATOM     12  C   UNL     1      46.944   0.998   7.441  0.00  0.00    +0.000 A 
ATOM     13  C   UNL     1      47.547   1.129   6.189  0.00  0.00    +0.000 A 
ATOM     14  C   UNL     1      47.420   2.321   5.481  0.00  0.00    +0.000 A 
ATOM     15  C   UNL     1      46.690   3.379   6.020  0.00  0.00    +0.000 A 
ATOM     16  C   UNL     1      46.089   3.243   7.276  0.00  0.00    +0.000 A 
ENDBRANCH  10  11
ENDBRANCH   9  10
ENDBRANCH   8   9
ENDBRANCH   5   8
ENDBRANCH   1   2
BRANCH   1  19
ATOM     17  O   UNL     1      48.515   8.493  15.469  0.00  0.00    +0.000 OA
ATOM     18  C   UNL     1      48.685   7.299  15.266  0.00  0.00    +0.000 C 
ATOM     19  N   UNL     1      48.208   6.637  14.153  0.00  0.00    +0.000 N 
ATOM     20  H   UNL     1      48.332   5.627  14.179  0.00  0.00    +0.000 HD
BRANCH  18  21
ATOM     21  C   UNL     1      49.313   6.383  16.236  0.00  0.00    +0.000 A 
ATOM     22  N   UNL     1      50.613   6.522  16.579  0.00  0.00    +0.000 NA
ATOM     23  N   UNL     1      50.891   5.386  17.240  0.00  0.00    +0.000 N 
ATOM     24  C   UNL     1      49.851   4.502  17.294  0.00  0.00    +0.000 A 
ATOM     25  C   UNL     1      49.787   3.168  17.709  0.00  0.00    +0.000 A 
ATOM     26  C   UNL     1      48.532   2.555  17.678  0.00  0.00    +0.000 A 
ATOM     27  C   UNL     1      47.391   3.262  17.297  0.00  0.00    +0.000 A 
ATOM     28  C   UNL     1      47.487   4.583  16.841  0.00  0.00    +0.000 A 
ATOM     29  C   UNL     1      48.754   5.195  16.795  0.00  0.00    +0.000 A 
ATOM     30  H   UNL     1      51.829   5.257  17.600  0.00  0.00    +0.000 HD
ENDBRANCH  18  21
ENDBRANCH   1  19
TORSDOF 7
ENDMDL
MODEL 3
REMARK VINA RESULT:    -7.593      1.812      2.602
REMARK INTER + INTRA:         -11.971
REMARK INTER:                 -11.171
REMARK INTRA:                  -0.800
REMARK UNBOUND:                -1.270
REMARK  Name = 
REMARK  7 active torsions:
REMARK  status: ('A' for Active; 'I' for Inactive)
REMARK    1  A    between atoms: C_2  and  C_20
REMARK    2  A    between atoms: N_3  and  C_4
REMARK    3  A    between atoms: C_4  and  C_5
REMARK    4  A    between atoms: C_8  and  C_9
REMARK    5  A    between atoms: C_9  and  C_10
REMARK    6  A    between atoms: C_10  and  O_11
REMARK    7  A    between atoms: O_11  and  C_12
REMARK                            x       y       z     vdW  Elec       q    Type
REMARK                         _______ _______ _______ _____ _____    ______ ____
ROOT
ATOM      1  C   UNL     1      44.542   6.141  11.169  0.00  0.00    +0.000 C 
ENDROOT
BRANCH   1   2
ATOM      2  C   UNL     1      45.517   5.885  12.278  0.00  0.00    +0.000 A 
ATOM      3  C   UNL     1      45.311   4.856  13.192  0.00  0.00    +0.000 A 
ATOM      4  C   UNL     1      46.214   4.644  14.256  0.00  0.00    +0.000 A 
ATOM      5  C   UNL     1      47.334   5.476  14.422  0.00  0.00    +0.000 A 
ATOM      6  C   UNL     1      47.531   6.519  13.507  0.00  0.00    +0.000 A 
ATOM      7  C   UNL     1      46.632   6.721  12.449  0.00  0.00    +0.000 A 
BRANCH   5   8
ATOM      8  C   UNL     1      48.337   5.309  15.542  0.00  0.00    +0.000 C 
BRANCH   8   9
ATOM      9  C   UNL     1      47.927   4.342  16.654  0.00  0.00    +0.000 C 
BRANCH   9  10
ATOM     10  O   UNL     1      48.815   4.453  17.765  0.00  0.00    +0.000 OA
BRANCH  10  11
ATOM     11  C   UNL     1      49.926   3.644  17.715  0.00  0.00    +0.000 A 
ATOM     12  C   UNL     1      49.940   2.313  17.284  0.00  0.00    +0.000 A 
ATOM     13  C   UNL     1      51.131   1.584  17.264  0.00  0.00    +0.000 A 
ATOM     14  C   UNL     1      52.315   2.183  17.685  0.00  0.00    +0.000 A 
ATOM     15  C   UNL     1      52.312   3.507  18.120  0.00  0.00    +0.000 A 
ATOM     16  C   UNL     1      51.116   4.233  18.139  0.00  0.00    +0.000 A 
ENDBRANCH  10  11
ENDBRANCH   9  10
ENDBRANCH   8   9
ENDBRANCH   5   8
ENDBRANCH   1   2
BRANCH   1  19
ATOM     17  O   UNL     1      46.092   5.674   8.833  0.00  0.00    +0.000 OA
ATOM     18  C   UNL     1      45.342   4.806   9.257  0.00  0.00    +0.000 C 
ATOM     19  N   UNL     1      44.455   5.003  10.296  0.00  0.00    +0.000 N 
ATOM     20  H   UNL     1      43.979   4.159  10.609  0.00  0.00    +0.000 HD
BRANCH  18  21
ATOM     21  C   UNL     1      45.369   3.404   8.802  0.00  0.00    +0.000 A 
ATOM     22  N   UNL     1      44.812   2.423   9.547  0.00  0.00    +0.000 NA
ATOM     23  N   UNL     1      45.260   1.294   8.972  0.00  0.00    +0.000 N 
ATOM     24  C   UNL     1      46.118   1.501   7.930  0.00  0.00    +0.000 A 
ATOM     25  C   UNL     1      46.931   0.620   7.209  0.00  0.00    +0.000 A 
ATOM     26  C   UNL     1      47.667   1.160   6.150  0.00  0.00    +0.000 A 
ATOM     27  C   UNL     1      47.552   2.507   5.804  0.00  0.00    +0.000 A 
ATOM     28  C   UNL     1      46.768   3.379   6.570  0.00  0.00    +0.000 A 
ATOM     29  C   UNL     1      46.076   2.868   7.684  0.00  0.00    +0.000 A 
ATOM     30  H   UNL     1      44.972   0.407   9.368  0.00  0.00    +0.000 HD
ENDBRANCH  18  21
ENDBRANCH   1  19
TORSDOF 7
ENDMDL
MODEL 4
REMARK VINA RESULT:    -7.462      3.204      9.272
REMARK INTER + INTRA:         -11.786
REMARK INTER:                 -10.989
REMARK INTRA:                  -0.797
REMARK UNBOUND:                -1.270
REMARK  Name = 
REMARK  7 active torsions:
REMARK  status: ('A' for Active; 'I' for Inactive)
REMARK    1  A    between atoms: C_2  and  C_20
REMARK    2  A    between atoms: N_3  and  C_4
REMARK    3  A    between atoms: C_4  and  C_5
REMARK    4  A    between atoms: C_8  and  C_9
REMARK    5  A    between atoms: C_9  and  C_10
REMARK    6  A    between atoms: C_10  and  O_11
REMARK    7  A    between atoms: O_11  and  C_12
REMARK                            x       y       z     vdW  Elec       q    Type
REMARK                         _______ _______ _______ _____ _____    ______ ____
ROOT
ATOM      1  C   UNL     1      48.266   6.449  14.154  0.00  0.00    +0.000 C 
ENDROOT
BRANCH   1   2
ATOM      2  C   UNL     1      47.152   6.069  13.227  0.00  0.00    +0.000 A 
ATOM      3  C   UNL     1      46.653   6.975  12.295  0.00  0.00    +0.000 A 
ATOM      4  C   UNL     1      45.579   6.623  11.450  0.00  0.00    +0.000 A 
ATOM      5  C   UNL     1      44.983   5.354  11.539  0.00  0.00    +0.000 A 
ATOM      6  C   UNL     1      45.479   4.450  12.488  0.00  0.00    +0.000 A 
ATOM      7  C   UNL     1      46.550   4.804  13.322  0.00  0.00    +0.000 A 
BRANCH   5   8
ATOM      8  C   UNL     1      43.826   4.914  10.669  0.00  0.00    +0.000 C 
BRANCH   8   9
ATOM      9  C   UNL     1      44.095   3.696   9.784  0.00  0.00    +0.000 C 
BRANCH   9  10
ATOM     10  O   UNL     1      44.633   4.102   8.526  0.00  0.00    +0.000 OA
BRANCH  10  11
ATOM     11  C   UNL     1      45.595   3.273   8.000  0.00  0.00    +0.000 A 
ATOM     12  C   UNL     1      46.569   3.653   7.070  0.00  0.00    +0.000 A 
ATOM     13  C   UNL     1      47.508   2.729   6.607  0.00  0.00    +0.000 A 
ATOM     14  C   UNL     1      47.471   1.415   7.067  0.00  0.00    +0.000 A 
ATOM     15  C   UNL     1      46.502   1.026   7.990  0.00  0.00    +0.000 A 
ATOM     16  C   UNL     1      45.563   1.956   8.450  0.00  0.00    +0.000 A 
ENDBRANCH  10  11
ENDBRANCH   9  10
ENDBRANCH   8   9
ENDBRANCH   5   8
ENDBRANCH   1   2
BRANCH   1  19
ATOM     17  O   UNL     1      50.191   6.009  16.199  0.00  0.00    +0.000 OA
ATOM     18  C   UNL     1      48.997   5.908  16.446  0.00  0.00    +0.000 C 
ATOM     19  N   UNL     1      48.010   5.965  15.483  0.00  0.00    +0.000 N 
ATOM     20  H   UNL     1      47.062   5.978  15.853  0.00  0.00    +0.000 HD
BRANCH  18  21
ATOM     21  C   UNL     1      48.445   5.835  17.811  0.00  0.00    +0.000 A 
ATOM     22  N   UNL     1      47.424   4.998  18.101  0.00  0.00    +0.000 NA
ATOM     23  N   UNL     1      47.024   5.395  19.320  0.00  0.00    +0.000 N 
ATOM     24  C   UNL     1      47.701   6.478  19.805  0.00  0.00    +0.000 A 
ATOM     25  C   UNL     1      47.469   7.296  20.917  0.00  0.00    +0.000 A 
ATOM     26  C   UNL     1      48.399   8.311  21.159  0.00  0.00    +0.000 A 
ATOM     27  C   UNL     1      49.528   8.465  20.354  0.00  0.00    +0.000 A 
ATOM     28  C   UNL     1      49.712   7.665  19.219  0.00  0.00    +0.000 A 
ATOM     29  C   UNL     1      48.750   6.683  18.917  0.00  0.00    +0.000 A 
ATOM     30  H   UNL     1      46.250   4.907  19.755  0.00  0.00    +0.000 HD
ENDBRANCH  18  21
ENDBRANCH   1  19
TORSDOF 7
ENDMDL
MODEL 5
REMARK VINA RESULT:    -7.145      3.145      8.764
REMARK INTER + INTRA:         -11.339
REMARK INTER:                 -10.135
REMARK INTRA:                  -1.204
REMARK UNBOUND:                -1.270
REMARK  Name = 
REMARK  7 active torsions:
REMARK  status: ('A' for Active; 'I' for Inactive)
REMARK    1  A    between atoms: C_2  and  C_20
REMARK    2  A    between atoms: N_3  and  C_4
REMARK    3  A    between atoms: C_4  and  C_5
REMARK    4  A    between atoms: C_8  and  C_9
REMARK    5  A    between atoms: C_9  and  C_10
REMARK    6  A    between atoms: C_10  and  O_11
REMARK    7  A    between atoms: O_11  and  C_12
REMARK                            x       y       z     vdW  Elec       q    Type
REMARK                         _______ _______ _______ _____ _____    ______ ____
ROOT
ATOM      1  C   UNL     1      47.374   3.678  15.343  0.00  0.00    +0.000 C 
ENDROOT
BRANCH   1   2
ATOM      2  C   UNL     1      46.844   4.208  14.046  0.00  0.00    +0.000 A 
ATOM      3  C   UNL     1      47.117   5.510  13.637  0.00  0.00    +0.000 A 
ATOM      4  C   UNL     1      46.584   6.015  12.432  0.00  0.00    +0.000 A 
ATOM      5  C   UNL     1      45.755   5.217  11.625  0.00  0.00    +0.000 A 
ATOM      6  C   UNL     1      45.472   3.911  12.047  0.00  0.00    +0.000 A 
ATOM      7  C   UNL     1      46.009   3.414  13.244  0.00  0.00    +0.000 A 
BRANCH   5   8
ATOM      8  C   UNL     1      45.146   5.696  10.325  0.00  0.00    +0.000 C 
BRANCH   8   9
ATOM      9  C   UNL     1      44.572   4.601   9.425  0.00  0.00    +0.000 C 
BRANCH   9  10
ATOM     10  O   UNL     1      45.242   4.588   8.165  0.00  0.00    +0.000 OA
BRANCH  10  11
ATOM     11  C   UNL     1      45.910   3.426   7.863  0.00  0.00    +0.000 A 
ATOM     12  C   UNL     1      45.662   2.176   8.442  0.00  0.00    +0.000 A 
ATOM     13  C   UNL     1      46.396   1.054   8.052  0.00  0.00    +0.000 A 
ATOM     14  C   UNL     1      47.389   1.179   7.085  0.00  0.00    +0.000 A 
ATOM     15  C   UNL     1      47.647   2.419   6.505  0.00  0.00    +0.000 A 
ATOM     16  C   UNL     1      46.909   3.541   6.899  0.00  0.00    +0.000 A 
ENDBRANCH  10  11
ENDBRANCH   9  10
ENDBRANCH   8   9
ENDBRANCH   5   8
ENDBRANCH   1   2
BRANCH   1  19
ATOM     17  O   UNL     1      49.585   4.293  17.021  0.00  0.00    +0.000 OA
ATOM     18  C   UNL     1      48.603   5.022  17.006  0.00  0.00    +0.000 C 
ATOM     19  N   UNL     1      47.437   4.720  16.331  0.00  0.00    +0.000 N 
ATOM     20  H   UNL     1      46.751   5.472  16.319  0.00  0.00    +0.000 HD
BRANCH  18  21
ATOM     21  C   UNL     1      48.573   6.371  17.600  0.00  0.00    +0.000 A 
ATOM     22  N   UNL     1      48.101   6.567  18.851  0.00  0.00    +0.000 NA
ATOM     23  N   UNL     1      47.975   7.901  18.939  0.00  0.00    +0.000 N 
ATOM     24  C   UNL     1      48.292   8.569  17.790  0.00  0.00    +0.000 A 
ATOM     25  C   UNL     1      48.118   9.905  17.415  0.00  0.00    +0.000 A 
ATOM     26  C   UNL     1      48.606  10.279  16.159  0.00  0.00    +0.000 A 
ATOM     27  C   UNL     1      49.279   9.367  15.345  0.00  0.00    +0.000 A 
ATOM     28  C   UNL     1      49.399   8.024  15.722  0.00  0.00    +0.000 A 
ATOM     29  C   UNL     1      48.850   7.612  16.951  0.00  0.00    +0.000 A 
ATOM     30  H   UNL     1      47.626   8.295  19.804  0.00  0.00    +0.000 HD
ENDBRANCH  18  21
ENDBRANCH   1  19
TORSDOF 7
ENDMDL
MODEL 6
REMARK VINA RESULT:    -7.101      3.447      9.691
REMARK INTER + INTRA:         -11.277
REMARK INTER:                 -10.696
REMARK INTRA:                  -0.581
REMARK UNBOUND:                -1.270
REMARK  Name = 
REMARK  7 active torsions:
REMARK  status: ('A' for Active; 'I' for Inactive)
REMARK    1  A    between atoms: C_2  and  C_20
REMARK    2  A    between atoms: N_3  and  C_4
REMARK    3  A    between atoms: C_4  and  C_5
REMARK    4  A    between atoms: C_8  and  C_9
REMARK    5  A    between atoms: C_9  and  C_10
REMARK    6  A    between atoms: C_10  and  O_11
REMARK    7  A    between atoms: O_11  and  C_12
REMARK                            x       y       z     vdW  Elec       q    Type
REMARK                         _______ _______ _______ _____ _____    ______ ____
ROOT
ATOM      1  C   UNL     1      44.631   4.525  11.545  0.00  0.00    +0.000 C 
ENDROOT
BRANCH   1   2
ATOM      2  C   UNL     1      45.053   4.024  10.198  0.00  0.00    +0.000 A 
ATOM      3  C   UNL     1      44.967   2.673   9.874  0.00  0.00    +0.000 A 
ATOM      4  C   UNL     1      45.400   2.202   8.616  0.00  0.00    +0.000 A 
ATOM      5  C   UNL     1      45.940   3.087   7.668  0.00  0.00    +0.000 A 
ATOM      6  C   UNL     1      46.039   4.444   8.002  0.00  0.00    +0.000 A 
ATOM      7  C   UNL     1      45.601   4.906   9.252  0.00  0.00    +0.000 A 
BRANCH   5   8
ATOM      8  C   UNL     1      46.430   2.649   6.304  0.00  0.00    +0.000 C 
BRANCH   8   9
ATOM      9  C   UNL     1      47.235   1.349   6.281  0.00  0.00    +0.000 C 
BRANCH   9  10
ATOM     10  O   UNL     1      47.822   1.149   4.996  0.00  0.00    +0.000 OA
BRANCH  10  11
ATOM     11  C   UNL     1      47.017   0.534   4.067  0.00  0.00    +0.000 A 
ATOM     12  C   UNL     1      46.158   1.190   3.179  0.00  0.00    +0.000 A 
ATOM     13  C   UNL     1      45.389   0.465   2.267  0.00  0.00    +0.000 A 
ATOM     14  C   UNL     1      45.470  -0.924   2.244  0.00  0.00    +0.000 A 
ATOM     15  C   UNL     1      46.319  -1.589   3.127  0.00  0.00    +0.000 A 
ATOM     16  C   UNL     1      47.087  -0.857   4.040  0.00  0.00    +0.000 A 
ENDBRANCH  10  11
ENDBRANCH   9  10
ENDBRANCH   8   9
ENDBRANCH   5   8
ENDBRANCH   1   2
BRANCH   1  19
ATOM     17  O   UNL     1      46.547   6.384  12.523  0.00  0.00    +0.000 OA
ATOM     18  C   UNL     1      46.451   5.275  13.030  0.00  0.00    +0.000 C 
ATOM     19  N   UNL     1      45.651   4.270  12.526  0.00  0.00    +0.000 N 
ATOM     20  H   UNL     1      45.589   3.444  13.117  0.00  0.00    +0.000 HD
BRANCH  18  21
ATOM     21  C   UNL     1      47.078   4.901  14.311  0.00  0.00    +0.000 A 
ATOM     22  N   UNL     1      46.719   3.768  14.954  0.00  0.00    +0.000 NA
ATOM     23  N   UNL     1      47.276   3.901  16.169  0.00  0.00    +0.000 N 
ATOM     24  C   UNL     1      47.931   5.085  16.356  0.00  0.00    +0.000 A 
ATOM     25  C   UNL     1      48.465   5.678  17.505  0.00  0.00    +0.000 A 
ATOM     26  C   UNL     1      49.124   6.899  17.339  0.00  0.00    +0.000 A 
ATOM     27  C   UNL     1      49.281   7.469  16.075  0.00  0.00    +0.000 A 
ATOM     28  C   UNL     1      48.695   6.881  14.946  0.00  0.00    +0.000 A 
ATOM     29  C   UNL     1      47.966   5.687  15.105  0.00  0.00    +0.000 A 
ATOM     30  H   UNL     1      47.138   3.159  16.844  0.00  0.00    +0.000 HD
ENDBRANCH  18  21
ENDBRANCH   1  19
TORSDOF 7
ENDMDL
MODEL 7
REMARK VINA RESULT:    -6.904      3.931      8.474
REMARK INTER + INTRA:         -10.999
REMARK INTER:                  -9.776
REMARK INTRA:                  -1.222
REMARK UNBOUND:                -1.270
REMARK  Name = 
REMARK  7 active torsions:
REMARK  status: ('A' for Active; 'I' for Inactive)
REMARK    1  A    between atoms: C_2  and  C_20
REMARK    2  A    between atoms: N_3  and  C_4
REMARK    3  A    between atoms: C_4  and  C_5
REMARK    4  A    between atoms: C_8  and  C_9
REMARK    5  A    between atoms: C_9  and  C_10
REMARK    6  A    between atoms: C_10  and  O_11
REMARK    7  A    between atoms: O_11  and  C_12
REMARK                            x       y       z     vdW  Elec       q    Type
REMARK                         _______ _______ _______ _____ _____    ______ ____
ROOT
ATOM      1  C   UNL     1      47.392   3.588  17.356  0.00  0.00    +0.000 C 
ENDROOT
BRANCH   1   2
ATOM      2  C   UNL     1      47.538   4.453  16.142  0.00  0.00    +0.000 A 
ATOM      3  C   UNL     1      48.327   5.599  16.167  0.00  0.00    +0.000 A 
ATOM      4  C   UNL     1      48.431   6.430  15.031  0.00  0.00    +0.000 A 
ATOM      5  C   UNL     1      47.729   6.124  13.853  0.00  0.00    +0.000 A 
ATOM      6  C   UNL     1      46.924   4.977  13.836  0.00  0.00    +0.000 A 
ATOM      7  C   UNL     1      46.830   4.153  14.967  0.00  0.00    +0.000 A 
BRANCH   5   8
ATOM      8  C   UNL     1      47.790   6.973  12.602  0.00  0.00    +0.000 C 
BRANCH   8   9
ATOM      9  C   UNL     1      46.460   7.582  12.155  0.00  0.00    +0.000 C 
BRANCH   9  10
ATOM     10  O   UNL     1      46.023   6.985  10.935  0.00  0.00    +0.000 OA
BRANCH  10  11
ATOM     11  C   UNL     1      45.091   5.983  11.067  0.00  0.00    +0.000 A 
ATOM     12  C   UNL     1      45.157   4.729  10.449  0.00  0.00    +0.000 A 
ATOM     13  C   UNL     1      44.157   3.779  10.661  0.00  0.00    +0.000 A 
ATOM     14  C   UNL     1      43.078   4.082  11.488  0.00  0.00    +0.000 A 
ATOM     15  C   UNL     1      43.001   5.329  12.105  0.00  0.00    +0.000 A 
ATOM     16  C   UNL     1      44.006   6.279  11.888  0.00  0.00    +0.000 A 
ENDBRANCH  10  11
ENDBRANCH   9  10
ENDBRANCH   8   9
ENDBRANCH   5   8
ENDBRANCH   1   2
BRANCH   1  19
ATOM     17  O   UNL     1      48.963   1.738  15.877  0.00  0.00    +0.000 OA
ATOM     18  C   UNL     1      49.408   2.246  16.897  0.00  0.00    +0.000 C 
ATOM     19  N   UNL     1      48.662   3.038  17.745  0.00  0.00    +0.000 N 
ATOM     20  H   UNL     1      49.197   3.478  18.490  0.00  0.00    +0.000 HD
BRANCH  18  21
ATOM     21  C   UNL     1      50.827   2.182  17.294  0.00  0.00    +0.000 A 
ATOM     22  N   UNL     1      51.423   0.995  17.544  0.00  0.00    +0.000 NA
ATOM     23  N   UNL     1      52.584   1.338  18.124  0.00  0.00    +0.000 N 
ATOM     24  C   UNL     1      52.741   2.683  18.308  0.00  0.00    +0.000 A 
ATOM     25  C   UNL     1      53.690   3.417  19.026  0.00  0.00    +0.000 A 
ATOM     26  C   UNL     1      53.589   4.810  18.969  0.00  0.00    +0.000 A 
ATOM     27  C   UNL     1      52.613   5.432  18.190  0.00  0.00    +0.000 A 
ATOM     28  C   UNL     1      51.644   4.675  17.518  0.00  0.00    +0.000 A 
ATOM     29  C   UNL     1      51.686   3.272  17.622  0.00  0.00    +0.000 A 
ATOM     30  H   UNL     1      53.215   0.600  18.411  0.00  0.00    +0.000 HD
ENDBRANCH  18  21
ENDBRANCH   1  19
TORSDOF 7
ENDMDL
MODEL 8
REMARK VINA RESULT:    -6.877      3.101      9.047
REMARK INTER + INTRA:         -10.961
REMARK INTER:                 -10.082
REMARK INTRA:                  -0.879
REMARK UNBOUND:                -1.270
REMARK  Name = 
REMARK  7 active torsions:
REMARK  status: ('A' for Active; 'I' for Inactive)
REMARK    1  A    between atoms: C_2  and  C_20
REMARK    2  A    between atoms: N_3  and  C_4
REMARK    3  A    between atoms: C_4  and  C_5
REMARK    4  A    between atoms: C_8  and  C_9
REMARK    5  A    between atoms: C_9  and  C_10
REMARK    6  A    between atoms: C_10  and  O_11
REMARK    7  A    between atoms: O_11  and  C_12
REMARK                            x       y       z     vdW  Elec       q    Type
REMARK                         _______ _______ _______ _____ _____    ______ ____
ROOT
ATOM      1  C   UNL     1      47.188   3.851  15.087  0.00  0.00    +0.000 C 
ENDROOT
BRANCH   1   2
ATOM      2  C   UNL     1      46.568   4.252  13.783  0.00  0.00    +0.000 A 
ATOM      3  C   UNL     1      46.669   5.557  13.311  0.00  0.00    +0.000 A 
ATOM      4  C   UNL     1      46.052   5.937  12.100  0.00  0.00    +0.000 A 
ATOM      5  C   UNL     1      45.311   5.008  11.351  0.00  0.00    +0.000 A 
ATOM      6  C   UNL     1      45.200   3.697  11.836  0.00  0.00    +0.000 A 
ATOM      7  C   UNL     1      45.820   3.325  13.038  0.00  0.00    +0.000 A 
BRANCH   5   8
ATOM      8  C   UNL     1      44.619   5.348  10.049  0.00  0.00    +0.000 C 
BRANCH   8   9
ATOM      9  C   UNL     1      44.533   4.209   9.032  0.00  0.00    +0.000 C 
BRANCH   9  10
ATOM     10  O   UNL     1      45.506   4.383   8.003  0.00  0.00    +0.000 OA
BRANCH  10  11
ATOM     11  C   UNL     1      46.096   3.229   7.547  0.00  0.00    +0.000 A 
ATOM     12  C   UNL     1      46.151   2.017   8.244  0.00  0.00    +0.000 A 
ATOM     13  C   UNL     1      46.769   0.900   7.680  0.00  0.00    +0.000 A 
ATOM     14  C   UNL     1      47.345   0.992   6.416  0.00  0.00    +0.000 A 
ATOM     15  C   UNL     1      47.300   2.195   5.714  0.00  0.00    +0.000 A 
ATOM     16  C   UNL     1      46.679   3.313   6.284  0.00  0.00    +0.000 A 
ENDBRANCH  10  11
ENDBRANCH   9  10
ENDBRANCH   8   9
ENDBRANCH   5   8
ENDBRANCH   1   2
BRANCH   1  19
ATOM     17  O   UNL     1      47.004   4.307  17.886  0.00  0.00    +0.000 OA
ATOM     18  C   UNL     1      47.642   5.074  17.179  0.00  0.00    +0.000 C 
ATOM     19  N   UNL     1      47.663   5.005  15.800  0.00  0.00    +0.000 N 
ATOM     20  H   UNL     1      48.325   5.637  15.357  0.00  0.00    +0.000 HD
BRANCH  18  21
ATOM     21  C   UNL     1      48.570   6.094  17.702  0.00  0.00    +0.000 A 
ATOM     22  N   UNL     1      48.108   7.278  18.164  0.00  0.00    +0.000 NA
ATOM     23  N   UNL     1      49.217   8.024  18.290  0.00  0.00    +0.000 N 
ATOM     24  C   UNL     1      50.361   7.398  17.882  0.00  0.00    +0.000 A 
ATOM     25  C   UNL     1      51.659   7.879  17.677  0.00  0.00    +0.000 A 
ATOM     26  C   UNL     1      52.626   6.945  17.295  0.00  0.00    +0.000 A 
ATOM     27  C   UNL     1      52.315   5.590  17.175  0.00  0.00    +0.000 A 
ATOM     28  C   UNL     1      50.998   5.141  17.340  0.00  0.00    +0.000 A 
ATOM     29  C   UNL     1      49.995   6.078  17.654  0.00  0.00    +0.000 A 
ATOM     30  H   UNL     1      49.121   8.976  18.625  0.00  0.00    +0.000 HD
ENDBRANCH  18  21
ENDBRANCH   1  19
TORSDOF 7
ENDMDL
MODEL 9
REMARK VINA RESULT:    -6.837      3.530      9.190
REMARK INTER + INTRA:         -10.905
REMARK INTER:                  -9.977
REMARK INTRA:                  -0.929
REMARK UNBOUND:                -1.270
REMARK  Name = 
REMARK  7 active torsions:
REMARK  status: ('A' for Active; 'I' for Inactive)
REMARK    1  A    between atoms: C_2  and  C_20
REMARK    2  A    between atoms: N_3  and  C_4
REMARK    3  A    between atoms: C_4  and  C_5
REMARK    4  A    between atoms: C_8  and  C_9
REMARK    5  A    between atoms: C_9  and  C_10
REMARK    6  A    between atoms: C_10  and  O_11
REMARK    7  A    between atoms: O_11  and  C_12
REMARK                            x       y       z     vdW  Elec       q    Type
REMARK                         _______ _______ _______ _____ _____    ______ ____
ROOT
ATOM      1  C   UNL     1      48.171   6.904  13.906  0.00  0.00    +0.000 C 
ENDROOT
BRANCH   1   2
ATOM      2  C   UNL     1      46.963   6.180  13.396  0.00  0.00    +0.000 A 
ATOM      3  C   UNL     1      45.908   6.871  12.806  0.00  0.00    +0.000 A 
ATOM      4  C   UNL     1      44.756   6.187  12.362  0.00  0.00    +0.000 A 
ATOM      5  C   UNL     1      44.645   4.795  12.516  0.00  0.00    +0.000 A 
ATOM      6  C   UNL     1      45.703   4.105  13.124  0.00  0.00    +0.000 A 
ATOM      7  C   UNL     1      46.847   4.790  13.559  0.00  0.00    +0.000 A 
BRANCH   5   8
ATOM      8  C   UNL     1      43.438   4.000  12.069  0.00  0.00    +0.000 C 
BRANCH   8   9
ATOM      9  C   UNL     1      43.637   3.153  10.811  0.00  0.00    +0.000 C 
BRANCH   9  10
ATOM     10  O   UNL     1      44.016   3.976   9.709  0.00  0.00    +0.000 OA
BRANCH  10  11
ATOM     11  C   UNL     1      44.982   3.451   8.884  0.00  0.00    +0.000 A 
ATOM     12  C   UNL     1      45.766   4.185   7.986  0.00  0.00    +0.000 A 
ATOM     13  C   UNL     1      46.729   3.549   7.199  0.00  0.00    +0.000 A 
ATOM     14  C   UNL     1      46.908   2.173   7.302  0.00  0.00    +0.000 A 
ATOM     15  C   UNL     1      46.130   1.432   8.191  0.00  0.00    +0.000 A 
ATOM     16  C   UNL     1      45.165   2.073   8.976  0.00  0.00    +0.000 A 
ENDBRANCH  10  11
ENDBRANCH   9  10
ENDBRANCH   8   9
ENDBRANCH   5   8
ENDBRANCH   1   2
BRANCH   1  19
ATOM     17  O   UNL     1      50.187   6.422  15.851  0.00  0.00    +0.000 OA
ATOM     18  C   UNL     1      49.150   6.988  16.167  0.00  0.00    +0.000 C 
ATOM     19  N   UNL     1      48.069   7.133  15.321  0.00  0.00    +0.000 N 
ATOM     20  H   UNL     1      47.324   7.722  15.687  0.00  0.00    +0.000 HD
BRANCH  18  21
ATOM     21  C   UNL     1      48.959   7.698  17.446  0.00  0.00    +0.000 A 
ATOM     22  N   UNL     1      48.832   7.014  18.605  0.00  0.00    +0.000 NA
ATOM     23  N   UNL     1      48.411   7.944  19.477  0.00  0.00    +0.000 N 
ATOM     24  C   UNL     1      48.212   9.178  18.926  0.00  0.00    +0.000 A 
ATOM     25  C   UNL     1      47.614  10.336  19.435  0.00  0.00    +0.000 A 
ATOM     26  C   UNL     1      47.615  11.464  18.609  0.00  0.00    +0.000 A 
ATOM     27  C   UNL     1      48.230  11.442  17.357  0.00  0.00    +0.000 A 
ATOM     28  C   UNL     1      48.781  10.257  16.850  0.00  0.00    +0.000 A 
ATOM     29  C   UNL     1      48.725   9.092  17.638  0.00  0.00    +0.000 A 
ATOM     30  H   UNL     1      48.238   7.662  20.435  0.00  0.00    +0.000 HD
ENDBRANCH  18  21
ENDBRANCH   1  19
TORSDOF 7
ENDMDL
