MODEL 1
REMARK VINA RESULT:    -8.005      0.000      0.000
REMARK INTER + INTRA:         -11.753
REMARK INTER:                 -10.813
REMARK INTRA:                  -0.940
REMARK UNBOUND:                -0.940
REMARK  Name = 
REMARK  6 active torsions:
REMARK  status: ('A' for Active; 'I' for Inactive)
REMARK    1  A    between atoms: C_2  and  C_4
REMARK    2  A    between atoms: C_7  and  C_8
REMARK    3  A    between atoms: C_8  and  C_9
REMARK    4  A    between atoms: C_9  and  O_10
REMARK    5  A    between atoms: O_10  and  C_11
REMARK    6  A    between atoms: C_15  and  C_16
REMARK                            x       y       z     vdW  Elec       q    Type
REMARK                         _______ _______ _______ _____ _____    ______ ____
ROOT
ATOM      1  C   UNL     1      43.498   3.980  11.264  0.00  0.00    +0.000 C 
ENDROOT
BRANCH   1   2
ATOM      2  C   UNL     1      43.814   4.659   9.936  0.00  0.00    +0.000 C 
BRANCH   2   6
ATOM      3  C   UNL     1      46.552   2.453   7.538  0.00  0.00    +0.000 A 
ATOM      4  C   UNL     1      45.758   1.763   8.452  0.00  0.00    +0.000 A 
ATOM      5  C   UNL     1      44.857   2.475   9.243  0.00  0.00    +0.000 A 
ATOM      6  C   UNL     1      44.770   3.858   9.094  0.00  0.00    +0.000 A 
ATOM      7  N   UNL     1      45.540   4.546   8.216  0.00  0.00    +0.000 NA
ATOM      8  C   UNL     1      46.420   3.832   7.468  0.00  0.00    +0.000 A 
BRANCH   3  10
ATOM      9  N   UNL     1      48.703   2.445   6.415  0.00  0.00    +0.000 N 
ATOM     10  C   UNL     1      47.537   1.776   6.670  0.00  0.00    +0.000 C 
ATOM     11  O   UNL     1      47.335   0.655   6.223  0.00  0.00    +0.000 OA
ATOM     12  H   UNL     1      49.410   1.938   5.898  0.00  0.00    +0.000 HD
ATOM     13  H   UNL     1      49.001   3.245   6.955  0.00  0.00    +0.000 HD
ENDBRANCH   3  10
ENDBRANCH   2   6
ENDBRANCH   1   2
BRANCH   1  14
ATOM     14  O   UNL     1      43.581   4.913  12.342  0.00  0.00    +0.000 OA
BRANCH  14  15
ATOM     15  C   UNL     1      44.846   5.174  12.800  0.00  0.00    +0.000 A 
ATOM     16  C   UNL     1      45.712   4.243  13.375  0.00  0.00    +0.000 A 
ATOM     17  C   UNL     1      46.997   4.622  13.752  0.00  0.00    +0.000 A 
ATOM     18  C   UNL     1      47.431   5.927  13.530  0.00  0.00    +0.000 A 
ATOM     19  C   UNL     1      46.596   6.879  12.917  0.00  0.00    +0.000 A 
ATOM     20  C   UNL     1      45.282   6.485  12.604  0.00  0.00    +0.000 A 
BRANCH  19  21
ATOM     21  C   UNL     1      47.116   8.195  12.494  0.00  0.00    +0.000 A 
ATOM     22  C   UNL     1      48.448   8.319  12.051  0.00  0.00    +0.000 A 
ATOM     23  C   UNL     1      48.934   9.509  11.526  0.00  0.00    +0.000 A 
ATOM     24  C   UNL     1      48.098  10.615  11.419  0.00  0.00    +0.000 A 
ATOM     25  C   UNL     1      46.783  10.528  11.866  0.00  0.00    +0.000 A 
ATOM     26  C   UNL     1      46.297   9.338  12.406  0.00  0.00    +0.000 A 
ENDBRANCH  19  21
ENDBRANCH  14  15
ENDBRANCH   1  14
TORSDOF 6
ENDMDL
MODEL 2
REMARK VINA RESULT:    -7.837      1.865      3.890
REMARK INTER + INTRA:         -11.525
REMARK INTER:                 -10.489
REMARK INTRA:                  -1.036
REMARK UNBOUND:                -0.940
REMARK  Name = 
REMARK  6 active torsions:
REMARK  status: ('A' for Active; 'I' for Inactive)
REMARK    1  A    between atoms: C_2  and  C_4
REMARK    2  A    between atoms: C_7  and  C_8
REMARK    3  A    between atoms: C_8  and  C_9
REMARK    4  A    between atoms: C_9  and  O_10
REMARK    5  A    between atoms: O_10  and  C_11
REMARK    6  A    between atoms: C_15  and  C_16
REMARK                            x       y       z     vdW  Elec       q    Type
REMARK                         _______ _______ _______ _____ _____    ______ ____
ROOT
ATOM      1  C   UNL     1      43.791   5.306  10.739  0.00  0.00    +0.000 C 
ENDROOT
BRANCH   1   2
ATOM      2  C   UNL     1      43.740   3.800  10.514  0.00  0.00    +0.000 C 
BRANCH   2   6
ATOM      3  C   UNL     1      46.548   2.428   7.624  0.00  0.00    +0.000 A 
ATOM      4  C   UNL     1      46.333   3.800   7.749  0.00  0.00    +0.000 A 
ATOM      5  C   UNL     1      45.417   4.261   8.693  0.00  0.00    +0.000 A 
ATOM      6  C   UNL     1      44.741   3.338   9.490  0.00  0.00    +0.000 A 
ATOM      7  N   UNL     1      44.931   2.000   9.375  0.00  0.00    +0.000 NA
ATOM      8  C   UNL     1      45.818   1.575   8.439  0.00  0.00    +0.000 A 
BRANCH   3  10
ATOM      9  N   UNL     1      48.570   2.629   6.298  0.00  0.00    +0.000 N 
ATOM     10  C   UNL     1      47.493   1.858   6.643  0.00  0.00    +0.000 C 
ATOM     11  O   UNL     1      47.341   0.735   6.181  0.00  0.00    +0.000 OA
ATOM     12  H   UNL     1      49.261   2.196   5.699  0.00  0.00    +0.000 HD
ATOM     13  H   UNL     1      48.854   3.438   6.833  0.00  0.00    +0.000 HD
ENDBRANCH   3  10
ENDBRANCH   2   6
ENDBRANCH   1   2
BRANCH   1  14
ATOM     14  O   UNL     1      44.103   5.604  12.101  0.00  0.00    +0.000 OA
BRANCH  14  15
ATOM     15  C   UNL     1      45.430   5.821  12.369  0.00  0.00    +0.000 A 
ATOM     16  C   UNL     1      46.284   6.644  11.635  0.00  0.00    +0.000 A 
ATOM     17  C   UNL     1      47.602   6.826  12.042  0.00  0.00    +0.000 A 
ATOM     18  C   UNL     1      48.063   6.206  13.201  0.00  0.00    +0.000 A 
ATOM     19  C   UNL     1      47.217   5.401  13.984  0.00  0.00    +0.000 A 
ATOM     20  C   UNL     1      45.908   5.185  13.515  0.00  0.00    +0.000 A 
BRANCH  19  21
ATOM     21  C   UNL     1      47.637   4.913  15.313  0.00  0.00    +0.000 A 
ATOM     22  C   UNL     1      47.333   3.595  15.711  0.00  0.00    +0.000 A 
ATOM     23  C   UNL     1      47.819   3.060  16.896  0.00  0.00    +0.000 A 
ATOM     24  C   UNL     1      48.634   3.826  17.721  0.00  0.00    +0.000 A 
ATOM     25  C   UNL     1      48.937   5.137  17.365  0.00  0.00    +0.000 A 
ATOM     26  C   UNL     1      48.438   5.680  16.182  0.00  0.00    +0.000 A 
ENDBRANCH  19  21
ENDBRANCH  14  15
ENDBRANCH   1  14
TORSDOF 6
ENDMDL
MODEL 3
REMARK VINA RESULT:    -7.773      0.949      1.660
REMARK INTER + INTRA:         -11.439
REMARK INTER:                 -10.607
REMARK INTRA:                  -0.832
REMARK UNBOUND:                -0.940
REMARK  Name = 
REMARK  6 active torsions:
REMARK  status: ('A' for Active; 'I' for Inactive)
REMARK    1  A    between atoms: C_2  and  C_4
REMARK    2  A    between atoms: C_7  and  C_8
REMARK    3  A    between atoms: C_8  and  C_9
REMARK    4  A    between atoms: C_9  and  O_10
REMARK    5  A    between atoms: O_10  and  C_11
REMARK    6  A    between atoms: C_15  and  C_16
REMARK                            x       y       z     vdW  Elec       q    Type
REMARK                         _______ _______ _______ _____ _____    ______ ____
ROOT
ATOM      1  C   UNL     1      43.249   3.584  11.499  0.00  0.00    +0.000 C 
ENDROOT
BRANCH   1   2
ATOM      2  C   UNL     1      43.619   4.444  10.296  0.00  0.00    +0.000 C 
BRANCH   2   6
ATOM      3  C   UNL     1      46.458   2.501   7.789  0.00  0.00    +0.000 A 
ATOM      4  C   UNL     1      46.366   3.891   7.743  0.00  0.00    +0.000 A 
ATOM      5  C   UNL     1      45.440   4.539   8.559  0.00  0.00    +0.000 A 
ATOM      6  C   UNL     1      44.634   3.779   9.405  0.00  0.00    +0.000 A 
ATOM      7  N   UNL     1      44.704   2.426   9.457  0.00  0.00    +0.000 NA
ATOM      8  C   UNL     1      45.603   1.818   8.642  0.00  0.00    +0.000 A 
BRANCH   3  10
ATOM      9  N   UNL     1      48.500   2.412   6.482  0.00  0.00    +0.000 N 
ATOM     10  C   UNL     1      47.404   1.739   6.950  0.00  0.00    +0.000 C 
ATOM     11  O   UNL     1      47.236   0.552   6.708  0.00  0.00    +0.000 OA
ATOM     12  H   UNL     1      49.190   1.861   5.987  0.00  0.00    +0.000 HD
ATOM     13  H   UNL     1      48.793   3.303   6.857  0.00  0.00    +0.000 HD
ENDBRANCH   3  10
ENDBRANCH   2   6
ENDBRANCH   1   2
BRANCH   1  14
ATOM     14  O   UNL     1      43.407   4.318  12.713  0.00  0.00    +0.000 OA
BRANCH  14  15
ATOM     15  C   UNL     1      44.636   4.899  12.896  0.00  0.00    +0.000 A 
ATOM     16  C   UNL     1      45.812   4.226  13.229  0.00  0.00    +0.000 A 
ATOM     17  C   UNL     1      47.012   4.924  13.333  0.00  0.00    +0.000 A 
ATOM     18  C   UNL     1      47.044   6.293  13.077  0.00  0.00    +0.000 A 
ATOM     19  C   UNL     1      45.884   6.992  12.702  0.00  0.00    +0.000 A 
ATOM     20  C   UNL     1      44.675   6.274  12.665  0.00  0.00    +0.000 A 
BRANCH  19  21
ATOM     21  C   UNL     1      45.950   8.391  12.231  0.00  0.00    +0.000 A 
ATOM     22  C   UNL     1      44.785   9.039  11.775  0.00  0.00    +0.000 A 
ATOM     23  C   UNL     1      44.781  10.387  11.445  0.00  0.00    +0.000 A 
ATOM     24  C   UNL     1      45.946  11.136  11.570  0.00  0.00    +0.000 A 
ATOM     25  C   UNL     1      47.117  10.520  11.999  0.00  0.00    +0.000 A 
ATOM     26  C   UNL     1      47.126   9.162  12.317  0.00  0.00    +0.000 A 
ENDBRANCH  19  21
ENDBRANCH  14  15
ENDBRANCH   1  14
TORSDOF 6
ENDMDL
MODEL 4
REMARK VINA RESULT:    -7.724      3.333      7.277
REMARK INTER + INTRA:         -11.374
REMARK INTER:                 -10.289
REMARK INTRA:                  -1.085
REMARK UNBOUND:                -0.940
REMARK  Name = 
REMARK  6 active torsions:
REMARK  status: ('A' for Active; 'I' for Inactive)
REMARK    1  A    between atoms: C_2  and  C_4
REMARK    2  A    between atoms: C_7  and  C_8
REMARK    3  A    between atoms: C_8  and  C_9
REMARK    4  A    between atoms: C_9  and  O_10
REMARK    5  A    between atoms: O_10  and  C_11
REMARK    6  A    between atoms: C_15  and  C_16
REMARK                            x       y       z     vdW  Elec       q    Type
REMARK                         _______ _______ _______ _____ _____    ______ ____
ROOT
ATOM      1  C   UNL     1      45.429   7.093  11.985  0.00  0.00    +0.000 C 
ENDROOT
BRANCH   1   2
ATOM      2  C   UNL     1      46.890   6.709  12.193  0.00  0.00    +0.000 C 
BRANCH   2   6
ATOM      3  C   UNL     1      47.444   4.182  15.573  0.00  0.00    +0.000 A 
ATOM      4  C   UNL     1      46.810   3.662  14.447  0.00  0.00    +0.000 A 
ATOM      5  C   UNL     1      46.623   4.480  13.333  0.00  0.00    +0.000 A 
ATOM      6  C   UNL     1      47.081   5.796  13.374  0.00  0.00    +0.000 A 
ATOM      7  N   UNL     1      47.692   6.321  14.464  0.00  0.00    +0.000 NA
ATOM      8  C   UNL     1      47.849   5.509  15.541  0.00  0.00    +0.000 A 
BRANCH   3  10
ATOM      9  N   UNL     1      48.973   3.147  17.147  0.00  0.00    +0.000 N 
ATOM     10  C   UNL     1      47.672   3.386  16.796  0.00  0.00    +0.000 C 
ATOM     11  O   UNL     1      46.743   2.983  17.482  0.00  0.00    +0.000 OA
ATOM     12  H   UNL     1      49.123   2.682  18.034  0.00  0.00    +0.000 HD
ATOM     13  H   UNL     1      49.748   3.662  16.752  0.00  0.00    +0.000 HD
ENDBRANCH   3  10
ENDBRANCH   2   6
ENDBRANCH   1   2
BRANCH   1  14
ATOM     14  O   UNL     1      44.975   6.676  10.697  0.00  0.00    +0.000 OA
BRANCH  14  15
ATOM     15  C   UNL     1      44.714   5.336  10.569  0.00  0.00    +0.000 A 
ATOM     16  C   UNL     1      43.737   4.627  11.268  0.00  0.00    +0.000 A 
ATOM     17  C   UNL     1      43.533   3.274  11.007  0.00  0.00    +0.000 A 
ATOM     18  C   UNL     1      44.288   2.634  10.027  0.00  0.00    +0.000 A 
ATOM     19  C   UNL     1      45.253   3.330   9.278  0.00  0.00    +0.000 A 
ATOM     20  C   UNL     1      45.481   4.680   9.605  0.00  0.00    +0.000 A 
BRANCH  19  21
ATOM     21  C   UNL     1      45.905   2.713   8.105  0.00  0.00    +0.000 A 
ATOM     22  C   UNL     1      46.226   3.500   6.980  0.00  0.00    +0.000 A 
ATOM     23  C   UNL     1      46.951   2.986   5.913  0.00  0.00    +0.000 A 
ATOM     24  C   UNL     1      47.387   1.666   5.941  0.00  0.00    +0.000 A 
ATOM     25  C   UNL     1      47.069   0.860   7.030  0.00  0.00    +0.000 A 
ATOM     26  C   UNL     1      46.329   1.370   8.095  0.00  0.00    +0.000 A 
ENDBRANCH  19  21
ENDBRANCH  14  15
ENDBRANCH   1  14
TORSDOF 6
ENDMDL
MODEL 5
REMARK VINA RESULT:    -7.056      4.460      8.321
REMARK INTER + INTRA:         -10.471
REMARK INTER:                  -9.867
REMARK INTRA:                  -0.605
REMARK UNBOUND:                -0.940
REMARK  Name = 
REMARK  6 active torsions:
REMARK  status: ('A' for Active; 'I' for Inactive)
REMARK    1  A    between atoms: C_2  and  C_4
REMARK    2  A    between atoms: C_7  and  C_8
REMARK    3  A    between atoms: C_8  and  C_9
REMARK    4  A    between atoms: C_9  and  O_10
REMARK    5  A    between atoms: O_10  and  C_11
REMARK    6  A    between atoms: C_15  and  C_16
REMARK                            x       y       z     vdW  Elec       q    Type
REMARK                         _______ _______ _______ _____ _____    ______ ____
ROOT
ATOM      1  C   UNL     1      46.778   4.278  13.794  0.00  0.00    +0.000 C 
ENDROOT
BRANCH   1   2
ATOM      2  C   UNL     1      47.579   5.429  14.391  0.00  0.00    +0.000 C 
BRANCH   2   6
ATOM      3  C   UNL     1      48.798   4.732  18.409  0.00  0.00    +0.000 A 
ATOM      4  C   UNL     1      47.666   4.075  17.931  0.00  0.00    +0.000 A 
ATOM      5  C   UNL     1      47.257   4.294  16.616  0.00  0.00    +0.000 A 
ATOM      6  C   UNL     1      47.995   5.163  15.813  0.00  0.00    +0.000 A 
ATOM      7  N   UNL     1      49.093   5.817  16.264  0.00  0.00    +0.000 NA
ATOM      8  C   UNL     1      49.463   5.597  17.553  0.00  0.00    +0.000 A 
BRANCH   3  10
ATOM      9  N   UNL     1      50.642   4.414  19.954  0.00  0.00    +0.000 N 
ATOM     10  C   UNL     1      49.291   4.562  19.791  0.00  0.00    +0.000 C 
ATOM     11  O   UNL     1      48.533   4.582  20.751  0.00  0.00    +0.000 OA
ATOM     12  H   UNL     1      50.982   4.391  20.907  0.00  0.00    +0.000 HD
ATOM     13  H   UNL     1      51.306   4.635  19.225  0.00  0.00    +0.000 HD
ENDBRANCH   3  10
ENDBRANCH   2   6
ENDBRANCH   1   2
BRANCH   1  14
ATOM     14  O   UNL     1      45.379   4.471  14.006  0.00  0.00    +0.000 OA
BRANCH  14  15
ATOM     15  C   UNL     1      44.614   4.538  12.870  0.00  0.00    +0.000 A 
ATOM     16  C   UNL     1      43.424   5.253  12.732  0.00  0.00    +0.000 A 
ATOM     17  C   UNL     1      42.766   5.287  11.505  0.00  0.00    +0.000 A 
ATOM     18  C   UNL     1      43.312   4.629  10.406  0.00  0.00    +0.000 A 
ATOM     19  C   UNL     1      44.529   3.932  10.503  0.00  0.00    +0.000 A 
ATOM     20  C   UNL     1      45.140   3.862  11.768  0.00  0.00    +0.000 A 
BRANCH  19  21
ATOM     21  C   UNL     1      45.212   3.411   9.301  0.00  0.00    +0.000 A 
ATOM     22  C   UNL     1      45.766   4.302   8.360  0.00  0.00    +0.000 A 
ATOM     23  C   UNL     1      46.523   3.853   7.287  0.00  0.00    +0.000 A 
ATOM     24  C   UNL     1      46.760   2.493   7.124  0.00  0.00    +0.000 A 
ATOM     25  C   UNL     1      46.211   1.587   8.027  0.00  0.00    +0.000 A 
ATOM     26  C   UNL     1      45.438   2.035   9.097  0.00  0.00    +0.000 A 
ENDBRANCH  19  21
ENDBRANCH  14  15
ENDBRANCH   1  14
TORSDOF 6
ENDMDL
MODEL 6
REMARK VINA RESULT:    -6.992      3.061      6.866
REMARK INTER + INTRA:         -10.385
REMARK INTER:                  -9.476
REMARK INTRA:                  -0.908
REMARK UNBOUND:                -0.940
REMARK  Name = 
REMARK  6 active torsions:
REMARK  status: ('A' for Active; 'I' for Inactive)
REMARK    1  A    between atoms: C_2  and  C_4
REMARK    2  A    between atoms: C_7  and  C_8
REMARK    3  A    between atoms: C_8  and  C_9
REMARK    4  A    between atoms: C_9  and  O_10
REMARK    5  A    between atoms: O_10  and  C_11
REMARK    6  A    between atoms: C_15  and  C_16
REMARK                            x       y       z     vdW  Elec       q    Type
REMARK                         _______ _______ _______ _____ _____    ______ ____
ROOT
ATOM      1  C   UNL     1      45.202   7.287  12.613  0.00  0.00    +0.000 C 
ENDROOT
BRANCH   1   2
ATOM      2  C   UNL     1      45.927   8.626  12.540  0.00  0.00    +0.000 C 
BRANCH   2   6
ATOM      3  C   UNL     1      50.063   8.260  11.605  0.00  0.00    +0.000 A 
ATOM      4  C   UNL     1      49.370   7.126  12.025  0.00  0.00    +0.000 A 
ATOM      5  C   UNL     1      48.014   7.234  12.333  0.00  0.00    +0.000 A 
ATOM      6  C   UNL     1      47.387   8.472  12.209  0.00  0.00    +0.000 A 
ATOM      7  N   UNL     1      48.047   9.587  11.810  0.00  0.00    +0.000 NA
ATOM      8  C   UNL     1      49.370   9.459  11.530  0.00  0.00    +0.000 A 
BRANCH   3  10
ATOM      9  N   UNL     1      51.965   7.125  10.614  0.00  0.00    +0.000 N 
ATOM     10  C   UNL     1      51.500   8.233  11.269  0.00  0.00    +0.000 C 
ATOM     11  O   UNL     1      52.240   9.171  11.536  0.00  0.00    +0.000 OA
ATOM     12  H   UNL     1      52.928   7.154  10.305  0.00  0.00    +0.000 HD
ATOM     13  H   UNL     1      51.350   6.459  10.169  0.00  0.00    +0.000 HD
ENDBRANCH   3  10
ENDBRANCH   2   6
ENDBRANCH   1   2
BRANCH   1  14
ATOM     14  O   UNL     1      44.683   6.922  11.334  0.00  0.00    +0.000 OA
BRANCH  14  15
ATOM     15  C   UNL     1      44.417   5.587  11.164  0.00  0.00    +0.000 A 
ATOM     16  C   UNL     1      43.436   4.861  11.841  0.00  0.00    +0.000 A 
ATOM     17  C   UNL     1      43.226   3.518  11.540  0.00  0.00    +0.000 A 
ATOM     18  C   UNL     1      43.978   2.905  10.540  0.00  0.00    +0.000 A 
ATOM     19  C   UNL     1      44.947   3.619   9.813  0.00  0.00    +0.000 A 
ATOM     20  C   UNL     1      45.180   4.957  10.182  0.00  0.00    +0.000 A 
BRANCH  19  21
ATOM     21  C   UNL     1      45.597   3.036   8.622  0.00  0.00    +0.000 A 
ATOM     22  C   UNL     1      45.964   3.863   7.541  0.00  0.00    +0.000 A 
ATOM     23  C   UNL     1      46.689   3.375   6.463  0.00  0.00    +0.000 A 
ATOM     24  C   UNL     1      47.078   2.040   6.433  0.00  0.00    +0.000 A 
ATOM     25  C   UNL     1      46.713   1.195   7.477  0.00  0.00    +0.000 A 
ATOM     26  C   UNL     1      45.973   1.680   8.554  0.00  0.00    +0.000 A 
ENDBRANCH  19  21
ENDBRANCH  14  15
ENDBRANCH   1  14
TORSDOF 6
ENDMDL
MODEL 7
REMARK VINA RESULT:    -6.868      4.200      8.236
REMARK INTER + INTRA:         -10.217
REMARK INTER:                  -9.480
REMARK INTRA:                  -0.737
REMARK UNBOUND:                -0.940
REMARK  Name = 
REMARK  6 active torsions:
REMARK  status: ('A' for Active; 'I' for Inactive)
REMARK    1  A    between atoms: C_2  and  C_4
REMARK    2  A    between atoms: C_7  and  C_8
REMARK    3  A    between atoms: C_8  and  C_9
REMARK    4  A    between atoms: C_9  and  O_10
REMARK    5  A    between atoms: O_10  and  C_11
REMARK    6  A    between atoms: C_15  and  C_16
REMARK                            x       y       z     vdW  Elec       q    Type
REMARK                         _______ _______ _______ _____ _____    ______ ____
ROOT
ATOM      1  C   UNL     1      45.415   3.976  13.588  0.00  0.00    +0.000 C 
ENDROOT
BRANCH   1   2
ATOM      2  C   UNL     1      46.939   4.003  13.554  0.00  0.00    +0.000 C 
BRANCH   2   6
ATOM      3  C   UNL     1      48.668   4.088  17.442  0.00  0.00    +0.000 A 
ATOM      4  C   UNL     1      48.324   5.296  16.837  0.00  0.00    +0.000 A 
ATOM      5  C   UNL     1      47.756   5.281  15.564  0.00  0.00    +0.000 A 
ATOM      6  C   UNL     1      47.543   4.057  14.931  0.00  0.00    +0.000 A 
ATOM      7  N   UNL     1      47.879   2.874  15.500  0.00  0.00    +0.000 NA
ATOM      8  C   UNL     1      48.444   2.916  16.735  0.00  0.00    +0.000 A 
BRANCH   3  10
ATOM      9  N   UNL     1      50.638   3.833  18.836  0.00  0.00    +0.000 N 
ATOM     10  C   UNL     1      49.282   4.018  18.783  0.00  0.00    +0.000 C 
ATOM     11  O   UNL     1      48.617   4.148  19.802  0.00  0.00    +0.000 OA
ATOM     12  H   UNL     1      51.063   3.879  19.753  0.00  0.00    +0.000 HD
ATOM     13  H   UNL     1      51.237   3.967  18.034  0.00  0.00    +0.000 HD
ENDBRANCH   3  10
ENDBRANCH   2   6
ENDBRANCH   1   2
BRANCH   1  14
ATOM     14  O   UNL     1      44.905   3.002  12.676  0.00  0.00    +0.000 OA
BRANCH  14  15
ATOM     15  C   UNL     1      44.614   3.467  11.419  0.00  0.00    +0.000 A 
ATOM     16  C   UNL     1      43.810   4.568  11.125  0.00  0.00    +0.000 A 
ATOM     17  C   UNL     1      43.634   4.975   9.805  0.00  0.00    +0.000 A 
ATOM     18  C   UNL     1      44.286   4.298   8.777  0.00  0.00    +0.000 A 
ATOM     19  C   UNL     1      45.134   3.208   9.043  0.00  0.00    +0.000 A 
ATOM     20  C   UNL     1      45.243   2.781  10.380  0.00  0.00    +0.000 A 
BRANCH  19  21
ATOM     21  C   UNL     1      45.983   2.621   7.987  0.00  0.00    +0.000 A 
ATOM     22  C   UNL     1      46.381   1.272   8.069  0.00  0.00    +0.000 A 
ATOM     23  C   UNL     1      47.070   0.650   7.036  0.00  0.00    +0.000 A 
ATOM     24  C   UNL     1      47.378   1.359   5.881  0.00  0.00    +0.000 A 
ATOM     25  C   UNL     1      47.016   2.699   5.779  0.00  0.00    +0.000 A 
ATOM     26  C   UNL     1      46.336   3.328   6.821  0.00  0.00    +0.000 A 
ENDBRANCH  19  21
ENDBRANCH  14  15
ENDBRANCH   1  14
TORSDOF 6
ENDMDL
MODEL 8
REMARK VINA RESULT:    -6.855      2.360      3.282
REMARK INTER + INTRA:         -10.199
REMARK INTER:                  -9.410
REMARK INTRA:                  -0.789
REMARK UNBOUND:                -0.940
REMARK  Name = 
REMARK  6 active torsions:
REMARK  status: ('A' for Active; 'I' for Inactive)
REMARK    1  A    between atoms: C_2  and  C_4
REMARK    2  A    between atoms: C_7  and  C_8
REMARK    3  A    between atoms: C_8  and  C_9
REMARK    4  A    between atoms: C_9  and  O_10
REMARK    5  A    between atoms: O_10  and  C_11
REMARK    6  A    between atoms: C_15  and  C_16
REMARK                            x       y       z     vdW  Elec       q    Type
REMARK                         _______ _______ _______ _____ _____    ______ ____
ROOT
ATOM      1  C   UNL     1      43.908   5.314  10.778  0.00  0.00    +0.000 C 
ENDROOT
BRANCH   1   2
ATOM      2  C   UNL     1      43.798   3.830  10.448  0.00  0.00    +0.000 C 
BRANCH   2   6
ATOM      3  C   UNL     1      46.573   2.696   7.427  0.00  0.00    +0.000 A 
ATOM      4  C   UNL     1      46.020   1.703   8.233  0.00  0.00    +0.000 A 
ATOM      5  C   UNL     1      45.109   2.062   9.225  0.00  0.00    +0.000 A 
ATOM      6  C   UNL     1      44.772   3.405   9.382  0.00  0.00    +0.000 A 
ATOM      7  N   UNL     1      45.307   4.386   8.614  0.00  0.00    +0.000 NA
ATOM      8  C   UNL     1      46.203   4.012   7.664  0.00  0.00    +0.000 A 
BRANCH   3  10
ATOM      9  N   UNL     1      47.137   2.585   5.069  0.00  0.00    +0.000 N 
ATOM     10  C   UNL     1      47.552   2.401   6.361  0.00  0.00    +0.000 C 
ATOM     11  O   UNL     1      48.692   2.038   6.617  0.00  0.00    +0.000 OA
ATOM     12  H   UNL     1      47.839   2.471   4.349  0.00  0.00    +0.000 HD
ATOM     13  H   UNL     1      46.305   3.108   4.834  0.00  0.00    +0.000 HD
ENDBRANCH   3  10
ENDBRANCH   2   6
ENDBRANCH   1   2
BRANCH   1  14
ATOM     14  O   UNL     1      44.804   5.525  11.871  0.00  0.00    +0.000 OA
BRANCH  14  15
ATOM     15  C   UNL     1      45.163   6.829  12.097  0.00  0.00    +0.000 A 
ATOM     16  C   UNL     1      46.271   7.252  12.831  0.00  0.00    +0.000 A 
ATOM     17  C   UNL     1      46.560   8.609  12.942  0.00  0.00    +0.000 A 
ATOM     18  C   UNL     1      45.756   9.546  12.297  0.00  0.00    +0.000 A 
ATOM     19  C   UNL     1      44.654   9.150  11.518  0.00  0.00    +0.000 A 
ATOM     20  C   UNL     1      44.350   7.777  11.474  0.00  0.00    +0.000 A 
BRANCH  19  21
ATOM     21  C   UNL     1      43.928  10.116  10.670  0.00  0.00    +0.000 A 
ATOM     22  C   UNL     1      42.534   9.996  10.497  0.00  0.00    +0.000 A 
ATOM     23  C   UNL     1      41.798  10.954   9.813  0.00  0.00    +0.000 A 
ATOM     24  C   UNL     1      42.434  12.072   9.285  0.00  0.00    +0.000 A 
ATOM     25  C   UNL     1      43.812  12.209   9.423  0.00  0.00    +0.000 A 
ATOM     26  C   UNL     1      44.554  11.240  10.098  0.00  0.00    +0.000 A 
ENDBRANCH  19  21
ENDBRANCH  14  15
ENDBRANCH   1  14
TORSDOF 6
ENDMDL
MODEL 9
REMARK VINA RESULT:    -6.848      3.592      7.629
REMARK INTER + INTRA:         -10.190
REMARK INTER:                  -9.519
REMARK INTRA:                  -0.670
REMARK UNBOUND:                -0.940
REMARK  Name = 
REMARK  6 active torsions:
REMARK  status: ('A' for Active; 'I' for Inactive)
REMARK    1  A    between atoms: C_2  and  C_4
REMARK    2  A    between atoms: C_7  and  C_8
REMARK    3  A    between atoms: C_8  and  C_9
REMARK    4  A    between atoms: C_9  and  O_10
REMARK    5  A    between atoms: O_10  and  C_11
REMARK    6  A    between atoms: C_15  and  C_16
REMARK                            x       y       z     vdW  Elec       q    Type
REMARK                         _______ _______ _______ _____ _____    ______ ____
ROOT
ATOM      1  C   UNL     1      44.309   3.413  12.995  0.00  0.00    +0.000 C 
ENDROOT
BRANCH   1   2
ATOM      2  C   UNL     1      45.813   3.183  12.907  0.00  0.00    +0.000 C 
BRANCH   2   6
ATOM      3  C   UNL     1      48.018   5.702  15.535  0.00  0.00    +0.000 A 
ATOM      4  C   UNL     1      47.715   6.170  14.258  0.00  0.00    +0.000 A 
ATOM      5  C   UNL     1      46.993   5.355  13.388  0.00  0.00    +0.000 A 
ATOM      6  C   UNL     1      46.588   4.093  13.821  0.00  0.00    +0.000 A 
ATOM      7  N   UNL     1      46.880   3.618  15.056  0.00  0.00    +0.000 NA
ATOM      8  C   UNL     1      47.598   4.426  15.880  0.00  0.00    +0.000 A 
BRANCH   3  10
ATOM      9  N   UNL     1      48.588   7.853  16.503  0.00  0.00    +0.000 N 
ATOM     10  C   UNL     1      48.786   6.499  16.512  0.00  0.00    +0.000 C 
ATOM     11  O   UNL     1      49.544   5.973  17.316  0.00  0.00    +0.000 OA
ATOM     12  H   UNL     1      49.045   8.381  17.234  0.00  0.00    +0.000 HD
ATOM     13  H   UNL     1      47.804   8.285  16.033  0.00  0.00    +0.000 HD
ENDBRANCH   3  10
ENDBRANCH   2   6
ENDBRANCH   1   2
BRANCH   1  14
ATOM     14  O   UNL     1      43.711   3.358  11.699  0.00  0.00    +0.000 OA
BRANCH  14  15
ATOM     15  C   UNL     1      44.411   3.981  10.699  0.00  0.00    +0.000 A 
ATOM     16  C   UNL     1      44.810   5.318  10.696  0.00  0.00    +0.000 A 
ATOM     17  C   UNL     1      45.568   5.820   9.642  0.00  0.00    +0.000 A 
ATOM     18  C   UNL     1      45.952   4.980   8.600  0.00  0.00    +0.000 A 
ATOM     19  C   UNL     1      45.599   3.618   8.593  0.00  0.00    +0.000 A 
ATOM     20  C   UNL     1      44.782   3.153   9.639  0.00  0.00    +0.000 A 
BRANCH  19  21
ATOM     21  C   UNL     1      46.174   2.683   7.605  0.00  0.00    +0.000 A 
ATOM     22  C   UNL     1      46.558   3.148   6.331  0.00  0.00    +0.000 A 
ATOM     23  C   UNL     1      47.216   2.330   5.423  0.00  0.00    +0.000 A 
ATOM     24  C   UNL     1      47.521   1.017   5.765  0.00  0.00    +0.000 A 
ATOM     25  C   UNL     1      47.138   0.523   7.009  0.00  0.00    +0.000 A 
ATOM     26  C   UNL     1      46.464   1.340   7.916  0.00  0.00    +0.000 A 
ENDBRANCH  19  21
ENDBRANCH  14  15
ENDBRANCH   1  14
TORSDOF 6
ENDMDL
