MODEL 1
REMARK VINA RESULT:    -7.517      0.000      0.000
REMARK INTER + INTRA:         -11.307
REMARK INTER:                 -10.593
REMARK INTRA:                  -0.714
REMARK UNBOUND:                -0.714
REMARK  Name = 
REMARK  7 active torsions:
REMARK  status: ('A' for Active; 'I' for Inactive)
REMARK    1  A    between atoms: C_2  and  C_20
REMARK    2  A    between atoms: N_3  and  C_4
REMARK    3  A    between atoms: C_4  and  C_5
REMARK    4  A    between atoms: C_8  and  O_9
REMARK    5  A    between atoms: O_9  and  C_10
REMARK    6  A    between atoms: C_10  and  C_11
REMARK    7  A    between atoms: C_11  and  N_12
REMARK                            x       y       z     vdW  Elec       q    Type
REMARK                         _______ _______ _______ _____ _____    ______ ____
ROOT
ATOM      1  C   UNL     1      47.691   6.629  14.065  0.00  0.00    +0.000 C 
ENDROOT
BRANCH   1   2
ATOM      2  C   UNL     1      46.689   6.043  13.105  0.00  0.00    +0.000 A 
ATOM      3  C   UNL     1      46.002   4.866  13.428  0.00  0.00    +0.000 A 
ATOM      4  C   UNL     1      45.019   4.351  12.573  0.00  0.00    +0.000 A 
ATOM      5  C   UNL     1      44.710   5.002  11.376  0.00  0.00    +0.000 A 
ATOM      6  C   UNL     1      45.417   6.153  11.030  0.00  0.00    +0.000 A 
ATOM      7  C   UNL     1      46.397   6.672  11.886  0.00  0.00    +0.000 A 
BRANCH   5   8
ATOM      8  O   UNL     1      43.766   4.575  10.472  0.00  0.00    +0.000 OA
BRANCH   8   9
ATOM      9  C   UNL     1      44.308   4.180   9.205  0.00  0.00    +0.000 C 
BRANCH   9  10
ATOM     10  C   UNL     1      44.897   2.756   9.275  0.00  0.00    +0.000 C 
BRANCH  10  11
ATOM     11  N   UNL     1      45.992   2.554   8.301  0.00  0.00    +0.000 NA
ATOM     12  C   UNL     1      46.234   1.129   8.025  0.00  0.00    +0.000 C 
ATOM     13  C   UNL     1      47.468   0.954   7.144  0.00  0.00    +0.000 C 
ATOM     14  C   UNL     1      47.324   1.715   5.834  0.00  0.00    +0.000 C 
ATOM     15  C   UNL     1      46.937   3.167   6.098  0.00  0.00    +0.000 C 
ATOM     16  C   UNL     1      45.736   3.276   7.044  0.00  0.00    +0.000 C 
ENDBRANCH  10  11
ENDBRANCH   9  10
ENDBRANCH   8   9
ENDBRANCH   5   8
ENDBRANCH   1   2
BRANCH   1  19
ATOM     17  O   UNL     1      49.911   6.566  15.679  0.00  0.00    +0.000 OA
ATOM     18  C   UNL     1      48.923   5.939  16.057  0.00  0.00    +0.000 C 
ATOM     19  N   UNL     1      47.753   5.926  15.323  0.00  0.00    +0.000 N 
ATOM     20  H   UNL     1      46.938   5.433  15.658  0.00  0.00    +0.000 HD
BRANCH  18  21
ATOM     21  C   UNL     1      48.926   5.164  17.297  0.00  0.00    +0.000 A 
ATOM     22  C   UNL     1      49.290   3.831  17.466  0.00  0.00    +0.000 A 
ATOM     23  N   UNL     1      49.178   3.515  18.798  0.00  0.00    +0.000 N 
ATOM     24  C   UNL     1      48.751   4.601  19.503  0.00  0.00    +0.000 A 
ATOM     25  N   UNL     1      48.557   4.609  20.836  0.00  0.00    +0.000 NA
ATOM     26  C   UNL     1      48.136   5.807  21.299  0.00  0.00    +0.000 A 
ATOM     27  C   UNL     1      47.901   6.936  20.527  0.00  0.00    +0.000 A 
ATOM     28  C   UNL     1      48.119   6.868  19.148  0.00  0.00    +0.000 A 
ATOM     29  C   UNL     1      48.573   5.649  18.607  0.00  0.00    +0.000 A 
ATOM     30  H   UNL     1      49.383   2.624  19.226  0.00  0.00    +0.000 HD
ENDBRANCH  18  21
ENDBRANCH   1  19
TORSDOF 7
ENDMDL
MODEL 2
REMARK VINA RESULT:    -7.423      4.290     11.505
REMARK INTER + INTRA:         -11.175
REMARK INTER:                 -10.384
REMARK INTRA:                  -0.791
REMARK UNBOUND:                -0.714
REMARK  Name = 
REMARK  7 active torsions:
REMARK  status: ('A' for Active; 'I' for Inactive)
REMARK    1  A    between atoms: C_2  and  C_20
REMARK    2  A    between atoms: N_3  and  C_4
REMARK    3  A    between atoms: C_4  and  C_5
REMARK    4  A    between atoms: C_8  and  O_9
REMARK    5  A    between atoms: O_9  and  C_10
REMARK    6  A    between atoms: C_10  and  C_11
REMARK    7  A    between atoms: C_11  and  N_12
REMARK                            x       y       z     vdW  Elec       q    Type
REMARK                         _______ _______ _______ _____ _____    ______ ____
ROOT
ATOM      1  C   UNL     1      46.884   3.264   6.678  0.00  0.00    +0.000 C 
ENDROOT
BRANCH   1   2
ATOM      2  C   UNL     1      45.923   3.273   7.838  0.00  0.00    +0.000 A 
ATOM      3  C   UNL     1      45.430   2.070   8.359  0.00  0.00    +0.000 A 
ATOM      4  C   UNL     1      44.592   2.065   9.481  0.00  0.00    +0.000 A 
ATOM      5  C   UNL     1      44.226   3.265  10.098  0.00  0.00    +0.000 A 
ATOM      6  C   UNL     1      44.682   4.468   9.561  0.00  0.00    +0.000 A 
ATOM      7  C   UNL     1      45.526   4.474   8.441  0.00  0.00    +0.000 A 
BRANCH   5   8
ATOM      8  O   UNL     1      43.408   3.363  11.199  0.00  0.00    +0.000 OA
BRANCH   8   9
ATOM      9  C   UNL     1      42.888   4.680  11.423  0.00  0.00    +0.000 C 
BRANCH   9  10
ATOM     10  C   UNL     1      43.049   5.096  12.900  0.00  0.00    +0.000 C 
BRANCH  10  11
ATOM     11  N   UNL     1      44.350   5.749  13.160  0.00  0.00    +0.000 NA
ATOM     12  C   UNL     1      45.444   4.774  13.295  0.00  0.00    +0.000 C 
ATOM     13  C   UNL     1      46.735   5.469  13.718  0.00  0.00    +0.000 C 
ATOM     14  C   UNL     1      47.130   6.552  12.725  0.00  0.00    +0.000 C 
ATOM     15  C   UNL     1      45.960   7.496  12.468  0.00  0.00    +0.000 C 
ATOM     16  C   UNL     1      44.677   6.734  12.115  0.00  0.00    +0.000 C 
ENDBRANCH  10  11
ENDBRANCH   9  10
ENDBRANCH   8   9
ENDBRANCH   5   8
ENDBRANCH   1   2
BRANCH   1  19
ATOM     17  O   UNL     1      48.192   1.002   5.835  0.00  0.00    +0.000 OA
ATOM     18  C   UNL     1      47.179   1.328   5.219  0.00  0.00    +0.000 C 
ATOM     19  N   UNL     1      46.443   2.439   5.579  0.00  0.00    +0.000 N 
ATOM     20  H   UNL     1      45.595   2.681   5.086  0.00  0.00    +0.000 HD
BRANCH  18  21
ATOM     21  C   UNL     1      46.696   0.570   4.065  0.00  0.00    +0.000 A 
ATOM     22  C   UNL     1      46.244   1.070   2.847  0.00  0.00    +0.000 A 
ATOM     23  N   UNL     1      45.920   0.011   2.036  0.00  0.00    +0.000 N 
ATOM     24  C   UNL     1      46.147  -1.166   2.687  0.00  0.00    +0.000 A 
ATOM     25  N   UNL     1      45.937  -2.381   2.147  0.00  0.00    +0.000 NA
ATOM     26  C   UNL     1      46.242  -3.392   2.992  0.00  0.00    +0.000 A 
ATOM     27  C   UNL     1      46.711  -3.247   4.290  0.00  0.00    +0.000 A 
ATOM     28  C   UNL     1      46.908  -1.960   4.797  0.00  0.00    +0.000 A 
ATOM     29  C   UNL     1      46.623  -0.865   3.957  0.00  0.00    +0.000 A 
ATOM     30  H   UNL     1      45.573   0.060   1.089  0.00  0.00    +0.000 HD
ENDBRANCH  18  21
ENDBRANCH   1  19
TORSDOF 7
ENDMDL
MODEL 3
REMARK VINA RESULT:    -7.411      1.387      2.077
REMARK INTER + INTRA:         -11.158
REMARK INTER:                 -10.310
REMARK INTRA:                  -0.848
REMARK UNBOUND:                -0.714
REMARK  Name = 
REMARK  7 active torsions:
REMARK  status: ('A' for Active; 'I' for Inactive)
REMARK    1  A    between atoms: C_2  and  C_20
REMARK    2  A    between atoms: N_3  and  C_4
REMARK    3  A    between atoms: C_4  and  C_5
REMARK    4  A    between atoms: C_8  and  O_9
REMARK    5  A    between atoms: O_9  and  C_10
REMARK    6  A    between atoms: C_10  and  C_11
REMARK    7  A    between atoms: C_11  and  N_12
REMARK                            x       y       z     vdW  Elec       q    Type
REMARK                         _______ _______ _______ _____ _____    ______ ____
ROOT
ATOM      1  C   UNL     1      47.271   7.772  13.510  0.00  0.00    +0.000 C 
ENDROOT
BRANCH   1   2
ATOM      2  C   UNL     1      46.372   6.812  12.775  0.00  0.00    +0.000 A 
ATOM      3  C   UNL     1      46.057   5.568  13.334  0.00  0.00    +0.000 A 
ATOM      4  C   UNL     1      45.168   4.697  12.691  0.00  0.00    +0.000 A 
ATOM      5  C   UNL     1      44.584   5.054  11.473  0.00  0.00    +0.000 A 
ATOM      6  C   UNL     1      44.924   6.274  10.891  0.00  0.00    +0.000 A 
ATOM      7  C   UNL     1      45.809   7.149  11.536  0.00  0.00    +0.000 A 
BRANCH   5   8
ATOM      8  O   UNL     1      43.704   4.269  10.766  0.00  0.00    +0.000 OA
BRANCH   8   9
ATOM      9  C   UNL     1      44.337   3.275   9.948  0.00  0.00    +0.000 C 
BRANCH   9  10
ATOM     10  C   UNL     1      44.494   3.771   8.496  0.00  0.00    +0.000 C 
BRANCH  10  11
ATOM     11  N   UNL     1      45.383   2.897   7.699  0.00  0.00    +0.000 NA
ATOM     12  C   UNL     1      46.500   3.642   7.097  0.00  0.00    +0.000 C 
ATOM     13  C   UNL     1      47.300   2.745   6.157  0.00  0.00    +0.000 C 
ATOM     14  C   UNL     1      47.832   1.519   6.884  0.00  0.00    +0.000 C 
ATOM     15  C   UNL     1      46.707   0.808   7.630  0.00  0.00    +0.000 C 
ATOM     16  C   UNL     1      45.898   1.776   8.501  0.00  0.00    +0.000 C 
ENDBRANCH  10  11
ENDBRANCH   9  10
ENDBRANCH   8   9
ENDBRANCH   5   8
ENDBRANCH   1   2
BRANCH   1  19
ATOM     17  O   UNL     1      49.843   6.998  14.078  0.00  0.00    +0.000 OA
ATOM     18  C   UNL     1      49.014   6.900  14.981  0.00  0.00    +0.000 C 
ATOM     19  N   UNL     1      47.699   7.281  14.797  0.00  0.00    +0.000 N 
ATOM     20  H   UNL     1      47.033   7.225  15.554  0.00  0.00    +0.000 HD
BRANCH  18  21
ATOM     21  C   UNL     1      49.361   6.366  16.297  0.00  0.00    +0.000 A 
ATOM     22  C   UNL     1      50.274   6.883  17.212  0.00  0.00    +0.000 A 
ATOM     23  N   UNL     1      50.264   6.090  18.333  0.00  0.00    +0.000 N 
ATOM     24  C   UNL     1      49.372   5.070  18.177  0.00  0.00    +0.000 A 
ATOM     25  N   UNL     1      49.126   4.132  19.112  0.00  0.00    +0.000 NA
ATOM     26  C   UNL     1      48.197   3.231  18.721  0.00  0.00    +0.000 A 
ATOM     27  C   UNL     1      47.545   3.221  17.495  0.00  0.00    +0.000 A 
ATOM     28  C   UNL     1      47.842   4.220  16.565  0.00  0.00    +0.000 A 
ATOM     29  C   UNL     1      48.793   5.197  16.921  0.00  0.00    +0.000 A 
ATOM     30  H   UNL     1      50.814   6.220  19.169  0.00  0.00    +0.000 HD
ENDBRANCH  18  21
ENDBRANCH   1  19
TORSDOF 7
ENDMDL
MODEL 4
REMARK VINA RESULT:    -7.155      1.714      2.091
REMARK INTER + INTRA:         -10.797
REMARK INTER:                 -10.015
REMARK INTRA:                  -0.782
REMARK UNBOUND:                -0.714
REMARK  Name = 
REMARK  7 active torsions:
REMARK  status: ('A' for Active; 'I' for Inactive)
REMARK    1  A    between atoms: C_2  and  C_20
REMARK    2  A    between atoms: N_3  and  C_4
REMARK    3  A    between atoms: C_4  and  C_5
REMARK    4  A    between atoms: C_8  and  O_9
REMARK    5  A    between atoms: O_9  and  C_10
REMARK    6  A    between atoms: C_10  and  C_11
REMARK    7  A    between atoms: C_11  and  N_12
REMARK                            x       y       z     vdW  Elec       q    Type
REMARK                         _______ _______ _______ _____ _____    ______ ____
ROOT
ATOM      1  C   UNL     1      47.976   7.218  13.400  0.00  0.00    +0.000 C 
ENDROOT
BRANCH   1   2
ATOM      2  C   UNL     1      46.915   6.321  12.819  0.00  0.00    +0.000 A 
ATOM      3  C   UNL     1      46.364   5.286  13.585  0.00  0.00    +0.000 A 
ATOM      4  C   UNL     1      45.329   4.491  13.078  0.00  0.00    +0.000 A 
ATOM      5  C   UNL     1      44.830   4.712  11.792  0.00  0.00    +0.000 A 
ATOM      6  C   UNL     1      45.401   5.715  11.009  0.00  0.00    +0.000 A 
ATOM      7  C   UNL     1      46.433   6.516  11.517  0.00  0.00    +0.000 A 
BRANCH   5   8
ATOM      8  O   UNL     1      43.821   3.985  11.206  0.00  0.00    +0.000 OA
BRANCH   8   9
ATOM      9  C   UNL     1      44.041   3.693   9.819  0.00  0.00    +0.000 C 
BRANCH   9  10
ATOM     10  C   UNL     1      44.783   2.352   9.647  0.00  0.00    +0.000 C 
BRANCH  10  11
ATOM     11  N   UNL     1      45.863   2.434   8.640  0.00  0.00    +0.000 NA
ATOM     12  C   UNL     1      46.180   1.121   8.057  0.00  0.00    +0.000 C 
ATOM     13  C   UNL     1      47.400   1.217   7.145  0.00  0.00    +0.000 C 
ATOM     14  C   UNL     1      47.179   2.233   6.034  0.00  0.00    +0.000 C 
ATOM     15  C   UNL     1      46.715   3.567   6.611  0.00  0.00    +0.000 C 
ATOM     16  C   UNL     1      45.533   3.394   7.573  0.00  0.00    +0.000 C 
ENDBRANCH  10  11
ENDBRANCH   9  10
ENDBRANCH   8   9
ENDBRANCH   5   8
ENDBRANCH   1   2
BRANCH   1  19
ATOM     17  O   UNL     1      49.967   6.583  15.181  0.00  0.00    +0.000 OA
ATOM     18  C   UNL     1      48.915   7.020  15.646  0.00  0.00    +0.000 C 
ATOM     19  N   UNL     1      47.863   7.384  14.829  0.00  0.00    +0.000 N 
ATOM     20  H   UNL     1      47.015   7.769  15.218  0.00  0.00    +0.000 HD
BRANCH  18  21
ATOM     21  C   UNL     1      48.708   7.171  17.085  0.00  0.00    +0.000 A 
ATOM     22  C   UNL     1      48.878   6.208  18.075  0.00  0.00    +0.000 A 
ATOM     23  N   UNL     1      48.609   6.783  19.293  0.00  0.00    +0.000 N 
ATOM     24  C   UNL     1      48.268   8.092  19.127  0.00  0.00    +0.000 A 
ATOM     25  N   UNL     1      47.960   8.927  20.139  0.00  0.00    +0.000 NA
ATOM     26  C   UNL     1      47.660  10.176  19.717  0.00  0.00    +0.000 A 
ATOM     27  C   UNL     1      47.642  10.602  18.396  0.00  0.00    +0.000 A 
ATOM     28  C   UNL     1      47.970   9.689  17.389  0.00  0.00    +0.000 A 
ATOM     29  C   UNL     1      48.307   8.375  17.767  0.00  0.00    +0.000 A 
ATOM     30  H   UNL     1      48.658   6.334  20.196  0.00  0.00    +0.000 HD
ENDBRANCH  18  21
ENDBRANCH   1  19
TORSDOF 7
ENDMDL
MODEL 5
REMARK VINA RESULT:    -7.113      1.561      2.200
REMARK INTER + INTRA:         -10.737
REMARK INTER:                  -9.993
REMARK INTRA:                  -0.744
REMARK UNBOUND:                -0.714
REMARK  Name = 
REMARK  7 active torsions:
REMARK  status: ('A' for Active; 'I' for Inactive)
REMARK    1  A    between atoms: C_2  and  C_20
REMARK    2  A    between atoms: N_3  and  C_4
REMARK    3  A    between atoms: C_4  and  C_5
REMARK    4  A    between atoms: C_8  and  O_9
REMARK    5  A    between atoms: O_9  and  C_10
REMARK    6  A    between atoms: C_10  and  C_11
REMARK    7  A    between atoms: C_11  and  N_12
REMARK                            x       y       z     vdW  Elec       q    Type
REMARK                         _______ _______ _______ _____ _____    ______ ____
ROOT
ATOM      1  C   UNL     1      47.338   4.098  14.737  0.00  0.00    +0.000 C 
ENDROOT
BRANCH   1   2
ATOM      2  C   UNL     1      46.431   4.290  13.549  0.00  0.00    +0.000 A 
ATOM      3  C   UNL     1      46.183   5.573  13.046  0.00  0.00    +0.000 A 
ATOM      4  C   UNL     1      45.398   5.755  11.901  0.00  0.00    +0.000 A 
ATOM      5  C   UNL     1      44.840   4.657  11.242  0.00  0.00    +0.000 A 
ATOM      6  C   UNL     1      45.050   3.379  11.760  0.00  0.00    +0.000 A 
ATOM      7  C   UNL     1      45.841   3.195  12.903  0.00  0.00    +0.000 A 
BRANCH   5   8
ATOM      8  O   UNL     1      44.055   4.733  10.116  0.00  0.00    +0.000 OA
BRANCH   8   9
ATOM      9  C   UNL     1      44.431   3.815   9.080  0.00  0.00    +0.000 C 
BRANCH   9  10
ATOM     10  C   UNL     1      45.598   4.374   8.241  0.00  0.00    +0.000 C 
BRANCH  10  11
ATOM     11  N   UNL     1      46.467   3.304   7.707  0.00  0.00    +0.000 NA
ATOM     12  C   UNL     1      45.988   1.963   8.077  0.00  0.00    +0.000 C 
ATOM     13  C   UNL     1      46.991   0.895   7.646  0.00  0.00    +0.000 C 
ATOM     14  C   UNL     1      47.251   0.954   6.149  0.00  0.00    +0.000 C 
ATOM     15  C   UNL     1      47.617   2.373   5.724  0.00  0.00    +0.000 C 
ATOM     16  C   UNL     1      46.610   3.404   6.245  0.00  0.00    +0.000 C 
ENDBRANCH  10  11
ENDBRANCH   9  10
ENDBRANCH   8   9
ENDBRANCH   5   8
ENDBRANCH   1   2
BRANCH   1  19
ATOM     17  O   UNL     1      49.178   4.371  16.756  0.00  0.00    +0.000 OA
ATOM     18  C   UNL     1      48.428   5.322  16.547  0.00  0.00    +0.000 C 
ATOM     19  N   UNL     1      47.481   5.287  15.542  0.00  0.00    +0.000 N 
ATOM     20  H   UNL     1      46.890   6.085  15.359  0.00  0.00    +0.000 HD
BRANCH  18  21
ATOM     21  C   UNL     1      48.480   6.542  17.352  0.00  0.00    +0.000 A 
ATOM     22  C   UNL     1      48.865   7.816  16.944  0.00  0.00    +0.000 A 
ATOM     23  N   UNL     1      48.732   8.672  18.009  0.00  0.00    +0.000 N 
ATOM     24  C   UNL     1      48.272   7.997  19.100  0.00  0.00    +0.000 A 
ATOM     25  N   UNL     1      48.028   8.568  20.295  0.00  0.00    +0.000 NA
ATOM     26  C   UNL     1      47.574   7.687  21.216  0.00  0.00    +0.000 A 
ATOM     27  C   UNL     1      47.376   6.329  21.008  0.00  0.00    +0.000 A 
ATOM     28  C   UNL     1      47.648   5.793  19.746  0.00  0.00    +0.000 A 
ATOM     29  C   UNL     1      48.110   6.664  18.740  0.00  0.00    +0.000 A 
ATOM     30  H   UNL     1      48.927   9.663  18.014  0.00  0.00    +0.000 HD
ENDBRANCH  18  21
ENDBRANCH   1  19
TORSDOF 7
ENDMDL
MODEL 6
REMARK VINA RESULT:    -7.077      2.101      9.412
REMARK INTER + INTRA:         -10.687
REMARK INTER:                  -9.870
REMARK INTRA:                  -0.817
REMARK UNBOUND:                -0.714
REMARK  Name = 
REMARK  7 active torsions:
REMARK  status: ('A' for Active; 'I' for Inactive)
REMARK    1  A    between atoms: C_2  and  C_20
REMARK    2  A    between atoms: N_3  and  C_4
REMARK    3  A    between atoms: C_4  and  C_5
REMARK    4  A    between atoms: C_8  and  O_9
REMARK    5  A    between atoms: O_9  and  C_10
REMARK    6  A    between atoms: C_10  and  C_11
REMARK    7  A    between atoms: C_11  and  N_12
REMARK                            x       y       z     vdW  Elec       q    Type
REMARK                         _______ _______ _______ _____ _____    ______ ____
ROOT
ATOM      1  C   UNL     1      45.181   6.848  11.064  0.00  0.00    +0.000 C 
ENDROOT
BRANCH   1   2
ATOM      2  C   UNL     1      46.176   7.212  12.135  0.00  0.00    +0.000 A 
ATOM      3  C   UNL     1      47.286   6.392  12.378  0.00  0.00    +0.000 A 
ATOM      4  C   UNL     1      48.254   6.757  13.322  0.00  0.00    +0.000 A 
ATOM      5  C   UNL     1      48.125   7.945  14.046  0.00  0.00    +0.000 A 
ATOM      6  C   UNL     1      47.002   8.746  13.837  0.00  0.00    +0.000 A 
ATOM      7  C   UNL     1      46.036   8.385  12.888  0.00  0.00    +0.000 A 
BRANCH   5   8
ATOM      8  O   UNL     1      49.017   8.387  14.994  0.00  0.00    +0.000 OA
BRANCH   8   9
ATOM      9  C   UNL     1      50.043   7.438  15.317  0.00  0.00    +0.000 C 
BRANCH   9  10
ATOM     10  C   UNL     1      49.779   6.782  16.688  0.00  0.00    +0.000 C 
BRANCH  10  11
ATOM     11  N   UNL     1      49.457   5.344  16.569  0.00  0.00    +0.000 NA
ATOM     12  C   UNL     1      50.084   4.544  17.633  0.00  0.00    +0.000 C 
ATOM     13  C   UNL     1      49.862   3.054  17.388  0.00  0.00    +0.000 C 
ATOM     14  C   UNL     1      48.379   2.724  17.302  0.00  0.00    +0.000 C 
ATOM     15  C   UNL     1      47.684   3.639  16.299  0.00  0.00    +0.000 C 
ATOM     16  C   UNL     1      48.003   5.117  16.556  0.00  0.00    +0.000 C 
ENDBRANCH  10  11
ENDBRANCH   9  10
ENDBRANCH   8   9
ENDBRANCH   5   8
ENDBRANCH   1   2
BRANCH   1  19
ATOM     17  O   UNL     1      43.256   5.023  10.352  0.00  0.00    +0.000 OA
ATOM     18  C   UNL     1      44.427   4.725  10.121  0.00  0.00    +0.000 C 
ATOM     19  N   UNL     1      45.464   5.585  10.427  0.00  0.00    +0.000 N 
ATOM     20  H   UNL     1      46.419   5.343  10.205  0.00  0.00    +0.000 HD
BRANCH  18  21
ATOM     21  C   UNL     1      44.796   3.444   9.522  0.00  0.00    +0.000 A 
ATOM     22  C   UNL     1      44.323   2.179   9.858  0.00  0.00    +0.000 A 
ATOM     23  N   UNL     1      44.906   1.259   9.022  0.00  0.00    +0.000 N 
ATOM     24  C   UNL     1      45.747   1.886   8.150  0.00  0.00    +0.000 A 
ATOM     25  N   UNL     1      46.456   1.252   7.196  0.00  0.00    +0.000 NA
ATOM     26  C   UNL     1      47.212   2.094   6.456  0.00  0.00    +0.000 A 
ATOM     27  C   UNL     1      47.296   3.469   6.628  0.00  0.00    +0.000 A 
ATOM     28  C   UNL     1      46.537   4.070   7.636  0.00  0.00    +0.000 A 
ATOM     29  C   UNL     1      45.717   3.246   8.430  0.00  0.00    +0.000 A 
ATOM     30  H   UNL     1      44.750   0.261   9.019  0.00  0.00    +0.000 HD
ENDBRANCH  18  21
ENDBRANCH   1  19
TORSDOF 7
ENDMDL
MODEL 7
REMARK VINA RESULT:    -6.953      1.427      2.012
REMARK INTER + INTRA:         -10.512
REMARK INTER:                  -9.738
REMARK INTRA:                  -0.774
REMARK UNBOUND:                -0.714
REMARK  Name = 
REMARK  7 active torsions:
REMARK  status: ('A' for Active; 'I' for Inactive)
REMARK    1  A    between atoms: C_2  and  C_20
REMARK    2  A    between atoms: N_3  and  C_4
REMARK    3  A    between atoms: C_4  and  C_5
REMARK    4  A    between atoms: C_8  and  O_9
REMARK    5  A    between atoms: O_9  and  C_10
REMARK    6  A    between atoms: C_10  and  C_11
REMARK    7  A    between atoms: C_11  and  N_12
REMARK                            x       y       z     vdW  Elec       q    Type
REMARK                         _______ _______ _______ _____ _____    ______ ____
ROOT
ATOM      1  C   UNL     1      48.168   6.787  13.631  0.00  0.00    +0.000 C 
ENDROOT
BRANCH   1   2
ATOM      2  C   UNL     1      47.021   6.072  12.965  0.00  0.00    +0.000 A 
ATOM      3  C   UNL     1      46.416   4.972  13.585  0.00  0.00    +0.000 A 
ATOM      4  C   UNL     1      45.305   4.344  13.007  0.00  0.00    +0.000 A 
ATOM      5  C   UNL     1      44.785   4.801  11.794  0.00  0.00    +0.000 A 
ATOM      6  C   UNL     1      45.407   5.872  11.151  0.00  0.00    +0.000 A 
ATOM      7  C   UNL     1      46.515   6.504  11.731  0.00  0.00    +0.000 A 
BRANCH   5   8
ATOM      8  O   UNL     1      43.703   4.251  11.147  0.00  0.00    +0.000 OA
BRANCH   8   9
ATOM      9  C   UNL     1      43.951   3.920   9.774  0.00  0.00    +0.000 C 
BRANCH   9  10
ATOM     10  C   UNL     1      44.630   2.540   9.651  0.00  0.00    +0.000 C 
BRANCH  10  11
ATOM     11  N   UNL     1      45.749   2.550   8.686  0.00  0.00    +0.000 NA
ATOM     12  C   UNL     1      46.046   1.206   8.164  0.00  0.00    +0.000 C 
ATOM     13  C   UNL     1      47.302   1.230   7.298  0.00  0.00    +0.000 C 
ATOM     14  C   UNL     1      47.157   2.209   6.143  0.00  0.00    +0.000 C 
ATOM     15  C   UNL     1      46.716   3.577   6.652  0.00  0.00    +0.000 C 
ATOM     16  C   UNL     1      45.493   3.478   7.572  0.00  0.00    +0.000 C 
ENDBRANCH  10  11
ENDBRANCH   9  10
ENDBRANCH   8   9
ENDBRANCH   5   8
ENDBRANCH   1   2
BRANCH   1  19
ATOM     17  O   UNL     1      50.252   7.632  15.207  0.00  0.00    +0.000 OA
ATOM     18  C   UNL     1      49.390   6.936  15.740  0.00  0.00    +0.000 C 
ATOM     19  N   UNL     1      48.294   6.478  15.034  0.00  0.00    +0.000 N 
ATOM     20  H   UNL     1      47.577   5.932  15.490  0.00  0.00    +0.000 HD
BRANCH  18  21
ATOM     21  C   UNL     1      49.474   6.540  17.145  0.00  0.00    +0.000 A 
ATOM     22  C   UNL     1      48.571   6.826  18.165  0.00  0.00    +0.000 A 
ATOM     23  N   UNL     1      49.018   6.233  19.320  0.00  0.00    +0.000 N 
ATOM     24  C   UNL     1      50.186   5.569  19.085  0.00  0.00    +0.000 A 
ATOM     25  N   UNL     1      50.863   4.877  20.021  0.00  0.00    +0.000 NA
ATOM     26  C   UNL     1      51.990   4.305  19.540  0.00  0.00    +0.000 A 
ATOM     27  C   UNL     1      52.450   4.400  18.234  0.00  0.00    +0.000 A 
ATOM     28  C   UNL     1      51.705   5.133  17.307  0.00  0.00    +0.000 A 
ATOM     29  C   UNL     1      50.512   5.741  17.746  0.00  0.00    +0.000 A 
ATOM     30  H   UNL     1      48.567   6.257  20.224  0.00  0.00    +0.000 HD
ENDBRANCH  18  21
ENDBRANCH   1  19
TORSDOF 7
ENDMDL
MODEL 8
REMARK VINA RESULT:    -6.932      2.068      8.994
REMARK INTER + INTRA:         -10.482
REMARK INTER:                  -9.276
REMARK INTRA:                  -1.206
REMARK UNBOUND:                -0.714
REMARK  Name = 
REMARK  7 active torsions:
REMARK  status: ('A' for Active; 'I' for Inactive)
REMARK    1  A    between atoms: C_2  and  C_20
REMARK    2  A    between atoms: N_3  and  C_4
REMARK    3  A    between atoms: C_4  and  C_5
REMARK    4  A    between atoms: C_8  and  O_9
REMARK    5  A    between atoms: O_9  and  C_10
REMARK    6  A    between atoms: C_10  and  C_11
REMARK    7  A    between atoms: C_11  and  N_12
REMARK                            x       y       z     vdW  Elec       q    Type
REMARK                         _______ _______ _______ _____ _____    ______ ____
ROOT
ATOM      1  C   UNL     1      47.444   7.904  12.345  0.00  0.00    +0.000 C 
ENDROOT
BRANCH   1   2
ATOM      2  C   UNL     1      48.112   7.910  13.695  0.00  0.00    +0.000 A 
ATOM      3  C   UNL     1      49.113   6.976  13.995  0.00  0.00    +0.000 A 
ATOM      4  C   UNL     1      49.788   7.018  15.221  0.00  0.00    +0.000 A 
ATOM      5  C   UNL     1      49.469   7.990  16.173  0.00  0.00    +0.000 A 
ATOM      6  C   UNL     1      48.447   8.898  15.897  0.00  0.00    +0.000 A 
ATOM      7  C   UNL     1      47.774   8.861  14.668  0.00  0.00    +0.000 A 
BRANCH   5   8
ATOM      8  O   UNL     1      50.071   8.110  17.403  0.00  0.00    +0.000 OA
BRANCH   8   9
ATOM      9  C   UNL     1      50.431   6.858  18.002  0.00  0.00    +0.000 C 
BRANCH   9  10
ATOM     10  C   UNL     1      49.239   6.247  18.768  0.00  0.00    +0.000 C 
BRANCH  10  11
ATOM     11  N   UNL     1      48.990   4.840  18.387  0.00  0.00    +0.000 NA
ATOM     12  C   UNL     1      47.767   4.691  17.582  0.00  0.00    +0.000 C 
ATOM     13  C   UNL     1      47.456   3.216  17.344  0.00  0.00    +0.000 C 
ATOM     14  C   UNL     1      48.615   2.513  16.653  0.00  0.00    +0.000 C 
ATOM     15  C   UNL     1      49.920   2.770  17.400  0.00  0.00    +0.000 C 
ATOM     16  C   UNL     1      50.139   4.264  17.670  0.00  0.00    +0.000 C 
ENDBRANCH  10  11
ENDBRANCH   9  10
ENDBRANCH   8   9
ENDBRANCH   5   8
ENDBRANCH   1   2
BRANCH   1  19
ATOM     17  O   UNL     1      44.836   7.107  12.665  0.00  0.00    +0.000 OA
ATOM     18  C   UNL     1      45.617   6.292  12.178  0.00  0.00    +0.000 C 
ATOM     19  N   UNL     1      46.945   6.606  11.962  0.00  0.00    +0.000 N 
ATOM     20  H   UNL     1      47.571   5.939  11.533  0.00  0.00    +0.000 HD
BRANCH  18  21
ATOM     21  C   UNL     1      45.197   4.941  11.809  0.00  0.00    +0.000 A 
ATOM     22  C   UNL     1      44.737   3.933  12.651  0.00  0.00    +0.000 A 
ATOM     23  N   UNL     1      44.419   2.838  11.887  0.00  0.00    +0.000 N 
ATOM     24  C   UNL     1      44.657   3.101  10.570  0.00  0.00    +0.000 A 
ATOM     25  N   UNL     1      44.430   2.226   9.571  0.00  0.00    +0.000 NA
ATOM     26  C   UNL     1      44.743   2.724   8.354  0.00  0.00    +0.000 A 
ATOM     27  C   UNL     1      45.257   3.990   8.106  0.00  0.00    +0.000 A 
ATOM     28  C   UNL     1      45.472   4.854   9.183  0.00  0.00    +0.000 A 
ATOM     29  C   UNL     1      45.151   4.396  10.476  0.00  0.00    +0.000 A 
ATOM     30  H   UNL     1      44.050   1.957  12.217  0.00  0.00    +0.000 HD
ENDBRANCH  18  21
ENDBRANCH   1  19
TORSDOF 7
ENDMDL
MODEL 9
REMARK VINA RESULT:    -6.839      1.800      2.677
REMARK INTER + INTRA:         -10.352
REMARK INTER:                  -9.644
REMARK INTRA:                  -0.707
REMARK UNBOUND:                -0.714
REMARK  Name = 
REMARK  7 active torsions:
REMARK  status: ('A' for Active; 'I' for Inactive)
REMARK    1  A    between atoms: C_2  and  C_20
REMARK    2  A    between atoms: N_3  and  C_4
REMARK    3  A    between atoms: C_4  and  C_5
REMARK    4  A    between atoms: C_8  and  O_9
REMARK    5  A    between atoms: O_9  and  C_10
REMARK    6  A    between atoms: C_10  and  C_11
REMARK    7  A    between atoms: C_11  and  N_12
REMARK                            x       y       z     vdW  Elec       q    Type
REMARK                         _______ _______ _______ _____ _____    ______ ____
ROOT
ATOM      1  C   UNL     1      47.644   4.258  15.374  0.00  0.00    +0.000 C 
ENDROOT
BRANCH   1   2
ATOM      2  C   UNL     1      46.904   4.657  14.123  0.00  0.00    +0.000 A 
ATOM      3  C   UNL     1      47.088   5.929  13.567  0.00  0.00    +0.000 A 
ATOM      4  C   UNL     1      46.460   6.284  12.367  0.00  0.00    +0.000 A 
ATOM      5  C   UNL     1      45.630   5.375  11.706  0.00  0.00    +0.000 A 
ATOM      6  C   UNL     1      45.411   4.121  12.275  0.00  0.00    +0.000 A 
ATOM      7  C   UNL     1      46.044   3.762  13.473  0.00  0.00    +0.000 A 
BRANCH   5   8
ATOM      8  O   UNL     1      44.968   5.631  10.528  0.00  0.00    +0.000 OA
BRANCH   8   9
ATOM      9  C   UNL     1      45.604   5.076   9.369  0.00  0.00    +0.000 C 
BRANCH   9  10
ATOM     10  C   UNL     1      44.662   4.103   8.631  0.00  0.00    +0.000 C 
BRANCH  10  11
ATOM     11  N   UNL     1      45.403   3.099   7.839  0.00  0.00    +0.000 NA
ATOM     12  C   UNL     1      46.576   3.678   7.164  0.00  0.00    +0.000 C 
ATOM     13  C   UNL     1      47.220   2.654   6.233  0.00  0.00    +0.000 C 
ATOM     14  C   UNL     1      47.630   1.400   6.990  0.00  0.00    +0.000 C 
ATOM     15  C   UNL     1      46.459   0.861   7.807  0.00  0.00    +0.000 C 
ATOM     16  C   UNL     1      45.811   1.953   8.667  0.00  0.00    +0.000 C 
ENDBRANCH  10  11
ENDBRANCH   9  10
ENDBRANCH   8   9
ENDBRANCH   5   8
ENDBRANCH   1   2
BRANCH   1  19
ATOM     17  O   UNL     1      49.428   4.687  17.417  0.00  0.00    +0.000 OA
ATOM     18  C   UNL     1      48.351   5.278  17.477  0.00  0.00    +0.000 C 
ATOM     19  N   UNL     1      47.397   5.141  16.488  0.00  0.00    +0.000 N 
ATOM     20  H   UNL     1      46.528   5.654  16.532  0.00  0.00    +0.000 HD
BRANCH  18  21
ATOM     21  C   UNL     1      48.009   6.152  18.599  0.00  0.00    +0.000 A 
ATOM     22  C   UNL     1      47.743   5.783  19.914  0.00  0.00    +0.000 A 
ATOM     23  N   UNL     1      47.502   6.921  20.645  0.00  0.00    +0.000 N 
ATOM     24  C   UNL     1      47.601   8.021  19.845  0.00  0.00    +0.000 A 
ATOM     25  N   UNL     1      47.430   9.286  20.275  0.00  0.00    +0.000 NA
ATOM     26  C   UNL     1      47.585  10.201  19.292  0.00  0.00    +0.000 A 
ATOM     27  C   UNL     1      47.875   9.920  17.964  0.00  0.00    +0.000 A 
ATOM     28  C   UNL     1      48.040   8.588  17.576  0.00  0.00    +0.000 A 
ATOM     29  C   UNL     1      47.907   7.589  18.560  0.00  0.00    +0.000 A 
ATOM     30  H   UNL     1      47.290   6.971  21.631  0.00  0.00    +0.000 HD
ENDBRANCH  18  21
ENDBRANCH   1  19
TORSDOF 7
ENDMDL
