MODEL 1
REMARK VINA RESULT:    -7.055      0.000      0.000
REMARK INTER + INTRA:          -9.152
REMARK INTER:                  -8.705
REMARK INTRA:                  -0.447
REMARK UNBOUND:                -0.447
REMARK  Name = 
REMARK  4 active torsions:
REMARK  status: ('A' for Active; 'I' for Inactive)
REMARK    1  A    between atoms: C_2  and  C_4
REMARK    2  A    between atoms: C_8  and  C_9
REMARK    3  A    between atoms: C_10  and  C_11
REMARK    4  A    between atoms: C_15  and  N_16
REMARK                            x       y       z     vdW  Elec       q    Type
REMARK                         _______ _______ _______ _____ _____    ______ ____
ROOT
ATOM      1  C   UNL     1      46.824   3.900  14.831  0.00  0.00    +0.000 C 
ATOM      2  C   UNL     1      46.081   4.169  13.928  0.00  0.00    +0.000 C 
ENDROOT
BRANCH   1   7
ATOM      3  C   UNL     1      48.633   3.942  18.052  0.00  0.00    +0.000 A 
ATOM      4  C   UNL     1      49.468   2.841  17.852  0.00  0.00    +0.000 A 
ATOM      5  C   UNL     1      49.366   2.161  16.654  0.00  0.00    +0.000 A 
ATOM      6  N   UNL     1      48.508   2.506  15.670  0.00  0.00    +0.000 NA
ATOM      7  C   UNL     1      47.732   3.589  15.887  0.00  0.00    +0.000 A 
ATOM      8  C   UNL     1      47.758   4.343  17.045  0.00  0.00    +0.000 A 
BRANCH   3  10
ATOM      9  N   UNL     1      48.550   3.917  20.482  0.00  0.00    +0.000 N 
ATOM     10  C   UNL     1      48.711   4.660  19.344  0.00  0.00    +0.000 C 
ATOM     11  O   UNL     1      48.952   5.858  19.397  0.00  0.00    +0.000 OA
ATOM     12  H   UNL     1      48.721   4.397  21.355  0.00  0.00    +0.000 HD
ATOM     13  H   UNL     1      48.610   2.909  20.486  0.00  0.00    +0.000 HD
ENDBRANCH   3  10
ENDBRANCH   1   7
BRANCH   2  14
ATOM     14  C   UNL     1      45.202   4.497  12.851  0.00  0.00    +0.000 A 
ATOM     15  C   UNL     1      44.210   5.456  13.025  0.00  0.00    +0.000 A 
ATOM     16  C   UNL     1      43.367   5.768  11.963  0.00  0.00    +0.000 A 
ATOM     17  C   UNL     1      43.524   5.123  10.731  0.00  0.00    +0.000 A 
ATOM     18  C   UNL     1      44.511   4.147  10.527  0.00  0.00    +0.000 A 
ATOM     19  C   UNL     1      45.345   3.851  11.616  0.00  0.00    +0.000 A 
BRANCH  18  20
ATOM     20  N   UNL     1      44.671   3.507   9.317  0.00  0.00    +0.000 N 
ATOM     21  C   UNL     1      44.624   2.048   9.159  0.00  0.00    +0.000 C 
ATOM     22  C   UNL     1      45.945   1.536   8.569  0.00  0.00    +0.000 C 
ATOM     23  O   UNL     1      46.274   2.212   7.343  0.00  0.00    +0.000 OA
ATOM     24  C   UNL     1      46.402   3.626   7.575  0.00  0.00    +0.000 C 
ATOM     25  C   UNL     1      45.096   4.237   8.111  0.00  0.00    +0.000 C 
ENDBRANCH  18  20
ENDBRANCH   2  14
TORSDOF 4
ENDMDL
MODEL 2
REMARK VINA RESULT:    -6.386      1.852      9.389
REMARK INTER + INTRA:          -8.325
REMARK INTER:                  -7.886
REMARK INTRA:                  -0.439
REMARK UNBOUND:                -0.447
REMARK  Name = 
REMARK  4 active torsions:
REMARK  status: ('A' for Active; 'I' for Inactive)
REMARK    1  A    between atoms: C_2  and  C_4
REMARK    2  A    between atoms: C_8  and  C_9
REMARK    3  A    between atoms: C_10  and  C_11
REMARK    4  A    between atoms: C_15  and  N_16
REMARK                            x       y       z     vdW  Elec       q    Type
REMARK                         _______ _______ _______ _____ _____    ______ ____
ROOT
ATOM      1  C   UNL     1      46.027   4.466  14.020  0.00  0.00    +0.000 C 
ATOM      2  C   UNL     1      46.744   4.265  14.961  0.00  0.00    +0.000 C 
ENDROOT
BRANCH   1   7
ATOM      3  C   UNL     1      44.643   4.713  10.603  0.00  0.00    +0.000 A 
ATOM      4  C   UNL     1      43.376   5.209  10.912  0.00  0.00    +0.000 A 
ATOM      5  C   UNL     1      43.072   5.426  12.243  0.00  0.00    +0.000 A 
ATOM      6  N   UNL     1      43.934   5.187  13.254  0.00  0.00    +0.000 NA
ATOM      7  C   UNL     1      45.159   4.728  12.918  0.00  0.00    +0.000 A 
ATOM      8  C   UNL     1      45.567   4.484  11.620  0.00  0.00    +0.000 A 
BRANCH   3  10
ATOM      9  N   UNL     1      44.256   3.465   8.553  0.00  0.00    +0.000 N 
ATOM     10  C   UNL     1      44.969   4.447   9.184  0.00  0.00    +0.000 C 
ATOM     11  O   UNL     1      45.809   5.107   8.586  0.00  0.00    +0.000 OA
ATOM     12  H   UNL     1      44.407   3.374   7.557  0.00  0.00    +0.000 HD
ATOM     13  H   UNL     1      43.398   3.089   8.929  0.00  0.00    +0.000 HD
ENDBRANCH   3  10
ENDBRANCH   1   7
BRANCH   2  14
ATOM     14  C   UNL     1      47.599   4.034  16.082  0.00  0.00    +0.000 A 
ATOM     15  C   UNL     1      48.330   2.855  16.172  0.00  0.00    +0.000 A 
ATOM     16  C   UNL     1      49.164   2.649  17.267  0.00  0.00    +0.000 A 
ATOM     17  C   UNL     1      49.266   3.627  18.263  0.00  0.00    +0.000 A 
ATOM     18  C   UNL     1      48.537   4.824  18.202  0.00  0.00    +0.000 A 
ATOM     19  C   UNL     1      47.702   5.003  17.088  0.00  0.00    +0.000 A 
BRANCH  18  20
ATOM     20  N   UNL     1      48.632   5.792  19.179  0.00  0.00    +0.000 N 
ATOM     21  C   UNL     1      48.471   5.515  20.612  0.00  0.00    +0.000 C 
ATOM     22  C   UNL     1      47.313   6.345  21.185  0.00  0.00    +0.000 C 
ATOM     23  O   UNL     1      47.481   7.747  20.909  0.00  0.00    +0.000 OA
ATOM     24  C   UNL     1      47.538   7.971  19.489  0.00  0.00    +0.000 C 
ATOM     25  C   UNL     1      48.713   7.222  18.839  0.00  0.00    +0.000 C 
ENDBRANCH  18  20
ENDBRANCH   2  14
TORSDOF 4
ENDMDL
MODEL 3
REMARK VINA RESULT:    -6.249      1.963      9.438
REMARK INTER + INTRA:          -8.157
REMARK INTER:                  -7.708
REMARK INTRA:                  -0.449
REMARK UNBOUND:                -0.447
REMARK  Name = 
REMARK  4 active torsions:
REMARK  status: ('A' for Active; 'I' for Inactive)
REMARK    1  A    between atoms: C_2  and  C_4
REMARK    2  A    between atoms: C_8  and  C_9
REMARK    3  A    between atoms: C_10  and  C_11
REMARK    4  A    between atoms: C_15  and  N_16
REMARK                            x       y       z     vdW  Elec       q    Type
REMARK                         _______ _______ _______ _____ _____    ______ ____
ROOT
ATOM      1  C   UNL     1      46.054   4.460  14.064  0.00  0.00    +0.000 C 
ATOM      2  C   UNL     1      46.823   4.324  14.976  0.00  0.00    +0.000 C 
ENDROOT
BRANCH   1   7
ATOM      3  C   UNL     1      44.297   4.112  10.833  0.00  0.00    +0.000 A 
ATOM      4  C   UNL     1      43.213   4.957  11.078  0.00  0.00    +0.000 A 
ATOM      5  C   UNL     1      43.146   5.584  12.308  0.00  0.00    +0.000 A 
ATOM      6  N   UNL     1      44.070   5.425  13.279  0.00  0.00    +0.000 NA
ATOM      7  C   UNL     1      45.117   4.618  13.000  0.00  0.00    +0.000 A 
ATOM      8  C   UNL     1      45.284   3.949  11.803  0.00  0.00    +0.000 A 
BRANCH   3  10
ATOM      9  N   UNL     1      44.343   4.185   8.404  0.00  0.00    +0.000 N 
ATOM     10  C   UNL     1      44.364   3.411   9.532  0.00  0.00    +0.000 C 
ATOM     11  O   UNL     1      44.477   2.194   9.465  0.00  0.00    +0.000 OA
ATOM     12  H   UNL     1      44.506   3.703   7.529  0.00  0.00    +0.000 HD
ATOM     13  H   UNL     1      44.511   5.180   8.423  0.00  0.00    +0.000 HD
ENDBRANCH   3  10
ENDBRANCH   1   7
BRANCH   2  14
ATOM     14  C   UNL     1      47.733   4.166  16.066  0.00  0.00    +0.000 A 
ATOM     15  C   UNL     1      48.262   2.914  16.360  0.00  0.00    +0.000 A 
ATOM     16  C   UNL     1      49.153   2.781  17.419  0.00  0.00    +0.000 A 
ATOM     17  C   UNL     1      49.514   3.900  18.177  0.00  0.00    +0.000 A 
ATOM     18  C   UNL     1      48.993   5.175  17.908  0.00  0.00    +0.000 A 
ATOM     19  C   UNL     1      48.095   5.280  16.835  0.00  0.00    +0.000 A 
BRANCH  18  20
ATOM     20  N   UNL     1      49.344   6.282  18.650  0.00  0.00    +0.000 N 
ATOM     21  C   UNL     1      50.076   6.209  19.920  0.00  0.00    +0.000 C 
ATOM     22  C   UNL     1      49.251   6.848  21.046  0.00  0.00    +0.000 C 
ATOM     23  O   UNL     1      48.855   8.190  20.715  0.00  0.00    +0.000 OA
ATOM     24  C   UNL     1      48.060   8.192  19.516  0.00  0.00    +0.000 C 
ATOM     25  C   UNL     1      48.836   7.623  18.315  0.00  0.00    +0.000 C 
ENDBRANCH  18  20
ENDBRANCH   2  14
TORSDOF 4
ENDMDL
MODEL 4
REMARK VINA RESULT:    -6.101      2.467      3.252
REMARK INTER + INTRA:          -7.975
REMARK INTER:                  -7.530
REMARK INTRA:                  -0.445
REMARK UNBOUND:                -0.447
REMARK  Name = 
REMARK  4 active torsions:
REMARK  status: ('A' for Active; 'I' for Inactive)
REMARK    1  A    between atoms: C_2  and  C_4
REMARK    2  A    between atoms: C_8  and  C_9
REMARK    3  A    between atoms: C_10  and  C_11
REMARK    4  A    between atoms: C_15  and  N_16
REMARK                            x       y       z     vdW  Elec       q    Type
REMARK                         _______ _______ _______ _____ _____    ______ ____
ROOT
ATOM      1  C   UNL     1      48.517   5.642  16.091  0.00  0.00    +0.000 C 
ATOM      2  C   UNL     1      48.071   5.843  14.995  0.00  0.00    +0.000 C 
ENDROOT
BRANCH   1   7
ATOM      3  C   UNL     1      48.914   5.293  19.747  0.00  0.00    +0.000 A 
ATOM      4  C   UNL     1      50.205   4.766  19.781  0.00  0.00    +0.000 A 
ATOM      5  C   UNL     1      50.854   4.564  18.577  0.00  0.00    +0.000 A 
ATOM      6  N   UNL     1      50.307   4.851  17.377  0.00  0.00    +0.000 NA
ATOM      7  C   UNL     1      49.064   5.379  17.382  0.00  0.00    +0.000 A 
ATOM      8  C   UNL     1      48.331   5.627  18.527  0.00  0.00    +0.000 A 
BRANCH   3  10
ATOM      9  N   UNL     1      47.507   6.655  21.189  0.00  0.00    +0.000 N 
ATOM     10  C   UNL     1      48.197   5.485  21.029  0.00  0.00    +0.000 C 
ATOM     11  O   UNL     1      48.185   4.617  21.891  0.00  0.00    +0.000 OA
ATOM     12  H   UNL     1      46.929   6.722  22.016  0.00  0.00    +0.000 HD
ATOM     13  H   UNL     1      47.283   7.265  20.416  0.00  0.00    +0.000 HD
ENDBRANCH   3  10
ENDBRANCH   1   7
BRANCH   2  14
ATOM     14  C   UNL     1      47.547   6.082  13.687  0.00  0.00    +0.000 A 
ATOM     15  C   UNL     1      48.203   6.947  12.819  0.00  0.00    +0.000 A 
ATOM     16  C   UNL     1      47.684   7.161  11.546  0.00  0.00    +0.000 A 
ATOM     17  C   UNL     1      46.514   6.505  11.147  0.00  0.00    +0.000 A 
ATOM     18  C   UNL     1      45.828   5.631  12.002  0.00  0.00    +0.000 A 
ATOM     19  C   UNL     1      46.373   5.435  13.281  0.00  0.00    +0.000 A 
BRANCH  18  20
ATOM     20  N   UNL     1      44.675   4.981  11.617  0.00  0.00    +0.000 N 
ATOM     21  C   UNL     1      43.679   4.466  12.564  0.00  0.00    +0.000 C 
ATOM     22  C   UNL     1      43.507   2.951  12.380  0.00  0.00    +0.000 C 
ATOM     23  O   UNL     1      43.195   2.617  11.017  0.00  0.00    +0.000 OA
ATOM     24  C   UNL     1      44.248   3.061  10.143  0.00  0.00    +0.000 C 
ATOM     25  C   UNL     1      44.448   4.584  10.218  0.00  0.00    +0.000 C 
ENDBRANCH  18  20
ENDBRANCH   2  14
TORSDOF 4
ENDMDL
MODEL 5
REMARK VINA RESULT:    -5.973      2.581      9.219
REMARK INTER + INTRA:          -7.816
REMARK INTER:                  -7.387
REMARK INTRA:                  -0.430
REMARK UNBOUND:                -0.447
REMARK  Name = 
REMARK  4 active torsions:
REMARK  status: ('A' for Active; 'I' for Inactive)
REMARK    1  A    between atoms: C_2  and  C_4
REMARK    2  A    between atoms: C_8  and  C_9
REMARK    3  A    between atoms: C_10  and  C_11
REMARK    4  A    between atoms: C_15  and  N_16
REMARK                            x       y       z     vdW  Elec       q    Type
REMARK                         _______ _______ _______ _____ _____    ______ ____
ROOT
ATOM      1  C   UNL     1      46.385   5.665  13.462  0.00  0.00    +0.000 C 
ATOM      2  C   UNL     1      47.354   6.018  14.077  0.00  0.00    +0.000 C 
ENDROOT
BRANCH   1   7
ATOM      3  C   UNL     1      44.211   4.192  10.863  0.00  0.00    +0.000 A 
ATOM      4  C   UNL     1      42.967   4.508  11.410  0.00  0.00    +0.000 A 
ATOM      5  C   UNL     1      42.941   5.191  12.611  0.00  0.00    +0.000 A 
ATOM      6  N   UNL     1      44.052   5.570  13.278  0.00  0.00    +0.000 NA
ATOM      7  C   UNL     1      45.240   5.268  12.710  0.00  0.00    +0.000 A 
ATOM      8  C   UNL     1      45.377   4.594  11.511  0.00  0.00    +0.000 A 
BRANCH   3  10
ATOM      9  N   UNL     1      44.135   4.150   8.434  0.00  0.00    +0.000 N 
ATOM     10  C   UNL     1      44.251   3.433   9.593  0.00  0.00    +0.000 C 
ATOM     11  O   UNL     1      44.425   2.222   9.577  0.00  0.00    +0.000 OA
ATOM     12  H   UNL     1      44.280   3.635   7.575  0.00  0.00    +0.000 HD
ATOM     13  H   UNL     1      44.251   5.152   8.399  0.00  0.00    +0.000 HD
ENDBRANCH   3  10
ENDBRANCH   1   7
BRANCH   2  14
ATOM     14  C   UNL     1      48.512   6.437  14.801  0.00  0.00    +0.000 A 
ATOM     15  C   UNL     1      49.483   7.213  14.178  0.00  0.00    +0.000 A 
ATOM     16  C   UNL     1      50.600   7.619  14.900  0.00  0.00    +0.000 A 
ATOM     17  C   UNL     1      50.738   7.253  16.243  0.00  0.00    +0.000 A 
ATOM     18  C   UNL     1      49.777   6.467  16.898  0.00  0.00    +0.000 A 
ATOM     19  C   UNL     1      48.662   6.069  16.144  0.00  0.00    +0.000 A 
BRANCH  18  20
ATOM     20  N   UNL     1      49.906   6.101  18.221  0.00  0.00    +0.000 N 
ATOM     21  C   UNL     1      49.951   4.706  18.675  0.00  0.00    +0.000 C 
ATOM     22  C   UNL     1      48.804   4.431  19.658  0.00  0.00    +0.000 C 
ATOM     23  O   UNL     1      48.808   5.367  20.750  0.00  0.00    +0.000 OA
ATOM     24  C   UNL     1      48.666   6.710  20.254  0.00  0.00    +0.000 C 
ATOM     25  C   UNL     1      49.814   7.093  19.305  0.00  0.00    +0.000 C 
ENDBRANCH  18  20
ENDBRANCH   2  14
TORSDOF 4
ENDMDL
MODEL 6
REMARK VINA RESULT:    -5.943      2.692      3.630
REMARK INTER + INTRA:          -7.779
REMARK INTER:                  -7.334
REMARK INTRA:                  -0.445
REMARK UNBOUND:                -0.447
REMARK  Name = 
REMARK  4 active torsions:
REMARK  status: ('A' for Active; 'I' for Inactive)
REMARK    1  A    between atoms: C_2  and  C_4
REMARK    2  A    between atoms: C_8  and  C_9
REMARK    3  A    between atoms: C_10  and  C_11
REMARK    4  A    between atoms: C_15  and  N_16
REMARK                            x       y       z     vdW  Elec       q    Type
REMARK                         _______ _______ _______ _____ _____    ______ ____
ROOT
ATOM      1  C   UNL     1      48.567   5.638  16.186  0.00  0.00    +0.000 C 
ATOM      2  C   UNL     1      48.106   5.839  15.096  0.00  0.00    +0.000 C 
ENDROOT
BRANCH   1   7
ATOM      3  C   UNL     1      50.893   4.625  18.871  0.00  0.00    +0.000 A 
ATOM      4  C   UNL     1      50.151   5.043  19.976  0.00  0.00    +0.000 A 
ATOM      5  C   UNL     1      48.924   5.635  19.747  0.00  0.00    +0.000 A 
ATOM      6  N   UNL     1      48.407   5.827  18.515  0.00  0.00    +0.000 NA
ATOM      7  C   UNL     1      49.141   5.392  17.468  0.00  0.00    +0.000 A 
ATOM      8  C   UNL     1      50.375   4.782  17.587  0.00  0.00    +0.000 A 
BRANCH   3  10
ATOM      9  N   UNL     1      52.437   2.768  18.589  0.00  0.00    +0.000 N 
ATOM     10  C   UNL     1      52.223   4.018  19.103  0.00  0.00    +0.000 C 
ATOM     11  O   UNL     1      53.109   4.623  19.690  0.00  0.00    +0.000 OA
ATOM     12  H   UNL     1      53.382   2.415  18.653  0.00  0.00    +0.000 HD
ATOM     13  H   UNL     1      51.834   2.356  17.891  0.00  0.00    +0.000 HD
ENDBRANCH   3  10
ENDBRANCH   1   7
BRANCH   2  14
ATOM     14  C   UNL     1      47.565   6.082  13.796  0.00  0.00    +0.000 A 
ATOM     15  C   UNL     1      48.209   6.951  12.922  0.00  0.00    +0.000 A 
ATOM     16  C   UNL     1      47.672   7.170  11.657  0.00  0.00    +0.000 A 
ATOM     17  C   UNL     1      46.498   6.515  11.271  0.00  0.00    +0.000 A 
ATOM     18  C   UNL     1      45.823   5.637  12.133  0.00  0.00    +0.000 A 
ATOM     19  C   UNL     1      46.385   5.437  13.403  0.00  0.00    +0.000 A 
BRANCH  18  20
ATOM     20  N   UNL     1      44.665   4.988  11.760  0.00  0.00    +0.000 N 
ATOM     21  C   UNL     1      43.724   4.396  12.718  0.00  0.00    +0.000 C 
ATOM     22  C   UNL     1      43.570   2.892  12.450  0.00  0.00    +0.000 C 
ATOM     23  O   UNL     1      43.201   2.635  11.083  0.00  0.00    +0.000 OA
ATOM     24  C   UNL     1      44.204   3.153  10.192  0.00  0.00    +0.000 C 
ATOM     25  C   UNL     1      44.380   4.672  10.351  0.00  0.00    +0.000 C 
ENDBRANCH  18  20
ENDBRANCH   2  14
TORSDOF 4
ENDMDL
MODEL 7
REMARK VINA RESULT:    -5.817      2.703      9.313
REMARK INTER + INTRA:          -7.624
REMARK INTER:                  -7.176
REMARK INTRA:                  -0.447
REMARK UNBOUND:                -0.447
REMARK  Name = 
REMARK  4 active torsions:
REMARK  status: ('A' for Active; 'I' for Inactive)
REMARK    1  A    between atoms: C_2  and  C_4
REMARK    2  A    between atoms: C_8  and  C_9
REMARK    3  A    between atoms: C_10  and  C_11
REMARK    4  A    between atoms: C_15  and  N_16
REMARK                            x       y       z     vdW  Elec       q    Type
REMARK                         _______ _______ _______ _____ _____    ______ ____
ROOT
ATOM      1  C   UNL     1      46.289   4.572  14.316  0.00  0.00    +0.000 C 
ATOM      2  C   UNL     1      46.980   4.300  15.259  0.00  0.00    +0.000 C 
ENDROOT
BRANCH   1   7
ATOM      3  C   UNL     1      44.411   6.419  11.726  0.00  0.00    +0.000 A 
ATOM      4  C   UNL     1      44.012   5.344  10.931  0.00  0.00    +0.000 A 
ATOM      5  C   UNL     1      44.401   4.074  11.318  0.00  0.00    +0.000 A 
ATOM      6  N   UNL     1      45.139   3.822  12.419  0.00  0.00    +0.000 NA
ATOM      7  C   UNL     1      45.489   4.884  13.177  0.00  0.00    +0.000 A 
ATOM      8  C   UNL     1      45.148   6.191  12.886  0.00  0.00    +0.000 A 
BRANCH   3  10
ATOM      9  N   UNL     1      42.721   7.988  10.957  0.00  0.00    +0.000 N 
ATOM     10  C   UNL     1      44.028   7.786  11.306  0.00  0.00    +0.000 C 
ATOM     11  O   UNL     1      44.834   8.707  11.311  0.00  0.00    +0.000 OA
ATOM     12  H   UNL     1      42.449   8.947  10.785  0.00  0.00    +0.000 HD
ATOM     13  H   UNL     1      41.988   7.332  11.185  0.00  0.00    +0.000 HD
ENDBRANCH   3  10
ENDBRANCH   1   7
BRANCH   2  14
ATOM     14  C   UNL     1      47.805   3.969  16.377  0.00  0.00    +0.000 A 
ATOM     15  C   UNL     1      48.521   2.777  16.390  0.00  0.00    +0.000 A 
ATOM     16  C   UNL     1      49.325   2.474  17.483  0.00  0.00    +0.000 A 
ATOM     17  C   UNL     1      49.414   3.367  18.557  0.00  0.00    +0.000 A 
ATOM     18  C   UNL     1      48.700   4.574  18.576  0.00  0.00    +0.000 A 
ATOM     19  C   UNL     1      47.894   4.853  17.460  0.00  0.00    +0.000 A 
BRANCH  18  20
ATOM     20  N   UNL     1      48.782   5.459  19.630  0.00  0.00    +0.000 N 
ATOM     21  C   UNL     1      48.620   5.064  21.034  0.00  0.00    +0.000 C 
ATOM     22  C   UNL     1      47.452   5.832  21.669  0.00  0.00    +0.000 C 
ATOM     23  O   UNL     1      47.606   7.253  21.510  0.00  0.00    +0.000 OA
ATOM     24  C   UNL     1      47.664   7.594  20.114  0.00  0.00    +0.000 C 
ATOM     25  C   UNL     1      48.849   6.913  19.409  0.00  0.00    +0.000 C 
ENDBRANCH  18  20
ENDBRANCH   2  14
TORSDOF 4
ENDMDL
MODEL 8
REMARK VINA RESULT:    -5.814      5.675      7.919
REMARK INTER + INTRA:          -7.620
REMARK INTER:                  -7.173
REMARK INTRA:                  -0.447
REMARK UNBOUND:                -0.447
REMARK  Name = 
REMARK  4 active torsions:
REMARK  status: ('A' for Active; 'I' for Inactive)
REMARK    1  A    between atoms: C_2  and  C_4
REMARK    2  A    between atoms: C_8  and  C_9
REMARK    3  A    between atoms: C_10  and  C_11
REMARK    4  A    between atoms: C_15  and  N_16
REMARK                            x       y       z     vdW  Elec       q    Type
REMARK                         _______ _______ _______ _____ _____    ______ ____
ROOT
ATOM      1  C   UNL     1      44.426   7.464  11.446  0.00  0.00    +0.000 C 
ATOM      2  C   UNL     1      44.050   8.565  11.150  0.00  0.00    +0.000 C 
ENDROOT
BRANCH   1   7
ATOM      3  C   UNL     1      46.050   4.606  13.131  0.00  0.00    +0.000 A 
ATOM      4  C   UNL     1      45.513   3.566  12.371  0.00  0.00    +0.000 A 
ATOM      5  C   UNL     1      44.644   3.894  11.347  0.00  0.00    +0.000 A 
ATOM      6  N   UNL     1      44.292   5.161  11.044  0.00  0.00    +0.000 NA
ATOM      7  C   UNL     1      44.847   6.144  11.786  0.00  0.00    +0.000 A 
ATOM      8  C   UNL     1      45.730   5.927  12.826  0.00  0.00    +0.000 A 
BRANCH   3  10
ATOM      9  N   UNL     1      47.229   5.253  15.156  0.00  0.00    +0.000 N 
ATOM     10  C   UNL     1      46.957   4.265  14.250  0.00  0.00    +0.000 C 
ATOM     11  O   UNL     1      47.410   3.136  14.386  0.00  0.00    +0.000 OA
ATOM     12  H   UNL     1      47.754   4.975  15.975  0.00  0.00    +0.000 HD
ATOM     13  H   UNL     1      46.680   6.098  15.222  0.00  0.00    +0.000 HD
ENDBRANCH   3  10
ENDBRANCH   1   7
BRANCH   2  14
ATOM     14  C   UNL     1      43.600   9.872  10.790  0.00  0.00    +0.000 A 
ATOM     15  C   UNL     1      44.493  10.799  10.265  0.00  0.00    +0.000 A 
ATOM     16  C   UNL     1      44.036  12.065   9.912  0.00  0.00    +0.000 A 
ATOM     17  C   UNL     1      42.687  12.395  10.082  0.00  0.00    +0.000 A 
ATOM     18  C   UNL     1      41.763  11.484  10.615  0.00  0.00    +0.000 A 
ATOM     19  C   UNL     1      42.253  10.215  10.964  0.00  0.00    +0.000 A 
BRANCH  18  20
ATOM     20  N   UNL     1      40.433  11.802  10.787  0.00  0.00    +0.000 N 
ATOM     21  C   UNL     1      39.889  12.369  12.026  0.00  0.00    +0.000 C 
ATOM     22  C   UNL     1      38.800  11.449  12.597  0.00  0.00    +0.000 C 
ATOM     23  O   UNL     1      37.779  11.171  11.623  0.00  0.00    +0.000 OA
ATOM     24  C   UNL     1      38.353  10.530  10.470  0.00  0.00    +0.000 C 
ATOM     25  C   UNL     1      39.416  11.414   9.795  0.00  0.00    +0.000 C 
ENDBRANCH  18  20
ENDBRANCH   2  14
TORSDOF 4
ENDMDL
MODEL 9
REMARK VINA RESULT:    -5.808      6.256      7.778
REMARK INTER + INTRA:          -7.613
REMARK INTER:                  -7.186
REMARK INTRA:                  -0.427
REMARK UNBOUND:                -0.447
REMARK  Name = 
REMARK  4 active torsions:
REMARK  status: ('A' for Active; 'I' for Inactive)
REMARK    1  A    between atoms: C_2  and  C_4
REMARK    2  A    between atoms: C_8  and  C_9
REMARK    3  A    between atoms: C_10  and  C_11
REMARK    4  A    between atoms: C_15  and  N_16
REMARK                            x       y       z     vdW  Elec       q    Type
REMARK                         _______ _______ _______ _____ _____    ______ ____
ROOT
ATOM      1  C   UNL     1      50.708   7.774  11.119  0.00  0.00    +0.000 C 
ATOM      2  C   UNL     1      49.555   7.820  11.451  0.00  0.00    +0.000 C 
ENDROOT
BRANCH   1   7
ATOM      3  C   UNL     1      53.796   6.888   9.295  0.00  0.00    +0.000 A 
ATOM      4  C   UNL     1      54.688   7.749   9.936  0.00  0.00    +0.000 A 
ATOM      5  C   UNL     1      54.193   8.567  10.935  0.00  0.00    +0.000 A 
ATOM      6  N   UNL     1      52.900   8.575  11.321  0.00  0.00    +0.000 NA
ATOM      7  C   UNL     1      52.069   7.713  10.695  0.00  0.00    +0.000 A 
ATOM      8  C   UNL     1      52.461   6.849   9.690  0.00  0.00    +0.000 A 
BRANCH   3  10
ATOM      9  N   UNL     1      54.007   4.696   8.264  0.00  0.00    +0.000 N 
ATOM     10  C   UNL     1      54.308   6.030   8.203  0.00  0.00    +0.000 C 
ATOM     11  O   UNL     1      54.936   6.497   7.263  0.00  0.00    +0.000 OA
ATOM     12  H   UNL     1      54.262   4.145   7.455  0.00  0.00    +0.000 HD
ATOM     13  H   UNL     1      53.288   4.328   8.869  0.00  0.00    +0.000 HD
ENDBRANCH   3  10
ENDBRANCH   1   7
BRANCH   2  14
ATOM     14  C   UNL     1      48.182   7.880  11.839  0.00  0.00    +0.000 A 
ATOM     15  C   UNL     1      47.627   9.081  12.265  0.00  0.00    +0.000 A 
ATOM     16  C   UNL     1      46.286   9.123  12.632  0.00  0.00    +0.000 A 
ATOM     17  C   UNL     1      45.505   7.964  12.566  0.00  0.00    +0.000 A 
ATOM     18  C   UNL     1      46.038   6.736  12.146  0.00  0.00    +0.000 A 
ATOM     19  C   UNL     1      47.394   6.723  11.785  0.00  0.00    +0.000 A 
BRANCH  18  20
ATOM     20  N   UNL     1      45.276   5.589  12.080  0.00  0.00    +0.000 N 
ATOM     21  C   UNL     1      45.058   4.831  10.842  0.00  0.00    +0.000 C 
ATOM     22  C   UNL     1      43.558   4.754  10.524  0.00  0.00    +0.000 C 
ATOM     23  O   UNL     1      42.810   4.224  11.633  0.00  0.00    +0.000 OA
ATOM     24  C   UNL     1      42.984   5.058  12.793  0.00  0.00    +0.000 C 
ATOM     25  C   UNL     1      44.459   5.142  13.220  0.00  0.00    +0.000 C 
ENDBRANCH  18  20
ENDBRANCH   2  14
TORSDOF 4
ENDMDL
