MODEL 1
REMARK VINA RESULT:    -8.081      0.000      0.000
REMARK INTER + INTRA:         -11.733
REMARK INTER:                 -10.915
REMARK INTRA:                  -0.817
REMARK UNBOUND:                -0.817
REMARK  Name = 
REMARK  6 active torsions:
REMARK  status: ('A' for Active; 'I' for Inactive)
REMARK    1  A    between atoms: C_2  and  C_4
REMARK    2  A    between atoms: C_7  and  N_8
REMARK    3  A    between atoms: N_8  and  C_9
REMARK    4  A    between atoms: C_9  and  C_10
REMARK    5  A    between atoms: C_10  and  C_11
REMARK    6  A    between atoms: C_15  and  C_16
REMARK                            x       y       z     vdW  Elec       q    Type
REMARK                         _______ _______ _______ _____ _____    ______ ____
ROOT
ATOM      1  C   UNL     1      45.580   6.822  12.540  0.00  0.00    +0.000 C 
ENDROOT
BRANCH   1   2
ATOM      2  N   UNL     1      47.003   6.476  12.671  0.00  0.00    +0.000 N 
ATOM      3  H   UNL     1      47.607   7.293  12.668  0.00  0.00    +0.000 HD
BRANCH   2   7
ATOM      4  C   UNL     1      47.716   4.047  15.930  0.00  0.00    +0.000 A 
ATOM      5  C   UNL     1      48.289   5.308  15.841  0.00  0.00    +0.000 A 
ATOM      6  N   UNL     1      48.094   6.133  14.776  0.00  0.00    +0.000 NA
ATOM      7  C   UNL     1      47.306   5.669  13.782  0.00  0.00    +0.000 A 
ATOM      8  C   UNL     1      46.744   4.387  13.888  0.00  0.00    +0.000 A 
ATOM      9  N   UNL     1      46.931   3.542  14.941  0.00  0.00    +0.000 NA
BRANCH   4  11
ATOM     10  N   UNL     1      46.850   2.687  17.761  0.00  0.00    +0.000 N 
ATOM     11  C   UNL     1      47.950   3.204  17.132  0.00  0.00    +0.000 C 
ATOM     12  O   UNL     1      49.085   2.959  17.540  0.00  0.00    +0.000 OA
ATOM     13  H   UNL     1      47.001   2.048  18.531  0.00  0.00    +0.000 HD
ATOM     14  H   UNL     1      45.937   2.735  17.321  0.00  0.00    +0.000 HD
ENDBRANCH   4  11
ENDBRANCH   2   7
ENDBRANCH   1   2
BRANCH   1  15
ATOM     15  C   UNL     1      45.154   6.717  11.068  0.00  0.00    +0.000 C 
BRANCH  15  16
ATOM     16  C   UNL     1      44.857   5.301  10.633  0.00  0.00    +0.000 A 
ATOM     17  C   UNL     1      43.921   4.509  11.296  0.00  0.00    +0.000 A 
ATOM     18  C   UNL     1      43.700   3.217  10.839  0.00  0.00    +0.000 A 
ATOM     19  N   UNL     1      44.343   2.671   9.788  0.00  0.00    +0.000 NA
ATOM     20  C   UNL     1      45.255   3.437   9.140  0.00  0.00    +0.000 A 
ATOM     21  C   UNL     1      45.527   4.749   9.538  0.00  0.00    +0.000 A 
BRANCH  20  22
ATOM     22  C   UNL     1      45.960   2.796   8.015  0.00  0.00    +0.000 A 
ATOM     23  C   UNL     1      46.254   3.498   6.833  0.00  0.00    +0.000 A 
ATOM     24  C   UNL     1      46.957   2.894   5.786  0.00  0.00    +0.000 A 
ATOM     25  C   UNL     1      47.372   1.572   5.902  0.00  0.00    +0.000 A 
ATOM     26  C   UNL     1      47.084   0.851   7.057  0.00  0.00    +0.000 A 
ATOM     27  C   UNL     1      46.381   1.457   8.101  0.00  0.00    +0.000 A 
ENDBRANCH  20  22
ENDBRANCH  15  16
ENDBRANCH   1  15
TORSDOF 6
ENDMDL
MODEL 2
REMARK VINA RESULT:    -7.699      2.917      8.143
REMARK INTER + INTRA:         -11.216
REMARK INTER:                 -10.529
REMARK INTRA:                  -0.687
REMARK UNBOUND:                -0.817
REMARK  Name = 
REMARK  6 active torsions:
REMARK  status: ('A' for Active; 'I' for Inactive)
REMARK    1  A    between atoms: C_2  and  C_4
REMARK    2  A    between atoms: C_7  and  N_8
REMARK    3  A    between atoms: N_8  and  C_9
REMARK    4  A    between atoms: C_9  and  C_10
REMARK    5  A    between atoms: C_10  and  C_11
REMARK    6  A    between atoms: C_15  and  C_16
REMARK                            x       y       z     vdW  Elec       q    Type
REMARK                         _______ _______ _______ _____ _____    ______ ____
ROOT
ATOM      1  C   UNL     1      44.597   5.685  10.710  0.00  0.00    +0.000 C 
ENDROOT
BRANCH   1   2
ATOM      2  N   UNL     1      43.956   4.664   9.870  0.00  0.00    +0.000 N 
ATOM      3  H   UNL     1      43.186   5.035   9.320  0.00  0.00    +0.000 HD
BRANCH   2   7
ATOM      4  C   UNL     1      46.585   2.485   7.552  0.00  0.00    +0.000 A 
ATOM      5  C   UNL     1      46.514   3.867   7.443  0.00  0.00    +0.000 A 
ATOM      6  N   UNL     1      45.649   4.621   8.175  0.00  0.00    +0.000 NA
ATOM      7  C   UNL     1      44.839   3.961   9.031  0.00  0.00    +0.000 A 
ATOM      8  C   UNL     1      44.921   2.562   9.119  0.00  0.00    +0.000 A 
ATOM      9  N   UNL     1      45.774   1.787   8.391  0.00  0.00    +0.000 NA
BRANCH   4  11
ATOM     10  N   UNL     1      48.698   2.382   6.336  0.00  0.00    +0.000 N 
ATOM     11  C   UNL     1      47.568   1.722   6.739  0.00  0.00    +0.000 C 
ATOM     12  O   UNL     1      47.392   0.539   6.452  0.00  0.00    +0.000 OA
ATOM     13  H   UNL     1      49.409   1.852   5.852  0.00  0.00    +0.000 HD
ATOM     14  H   UNL     1      48.928   3.291   6.725  0.00  0.00    +0.000 HD
ENDBRANCH   4  11
ENDBRANCH   2   7
ENDBRANCH   1   2
BRANCH   1  15
ATOM     15  C   UNL     1      44.658   5.197  12.165  0.00  0.00    +0.000 C 
BRANCH  15  16
ATOM     16  C   UNL     1      45.977   5.492  12.838  0.00  0.00    +0.000 A 
ATOM     17  C   UNL     1      46.951   6.285  12.232  0.00  0.00    +0.000 A 
ATOM     18  C   UNL     1      48.139   6.515  12.911  0.00  0.00    +0.000 A 
ATOM     19  N   UNL     1      48.418   6.011  14.130  0.00  0.00    +0.000 NA
ATOM     20  C   UNL     1      47.474   5.240  14.724  0.00  0.00    +0.000 A 
ATOM     21  C   UNL     1      46.251   4.969  14.105  0.00  0.00    +0.000 A 
BRANCH  20  22
ATOM     22  C   UNL     1      47.827   4.682  16.042  0.00  0.00    +0.000 A 
ATOM     23  C   UNL     1      47.249   3.493  16.519  0.00  0.00    +0.000 A 
ATOM     24  C   UNL     1      47.618   2.950  17.753  0.00  0.00    +0.000 A 
ATOM     25  C   UNL     1      48.569   3.593  18.537  0.00  0.00    +0.000 A 
ATOM     26  C   UNL     1      49.149   4.778  18.094  0.00  0.00    +0.000 A 
ATOM     27  C   UNL     1      48.778   5.318  16.860  0.00  0.00    +0.000 A 
ENDBRANCH  20  22
ENDBRANCH  15  16
ENDBRANCH   1  15
TORSDOF 6
ENDMDL
MODEL 3
REMARK VINA RESULT:    -7.610      3.531      7.454
REMARK INTER + INTRA:         -11.097
REMARK INTER:                 -10.345
REMARK INTRA:                  -0.752
REMARK UNBOUND:                -0.817
REMARK  Name = 
REMARK  6 active torsions:
REMARK  status: ('A' for Active; 'I' for Inactive)
REMARK    1  A    between atoms: C_2  and  C_4
REMARK    2  A    between atoms: C_7  and  N_8
REMARK    3  A    between atoms: N_8  and  C_9
REMARK    4  A    between atoms: C_9  and  C_10
REMARK    5  A    between atoms: C_10  and  C_11
REMARK    6  A    between atoms: C_15  and  C_16
REMARK                            x       y       z     vdW  Elec       q    Type
REMARK                         _______ _______ _______ _____ _____    ______ ____
ROOT
ATOM      1  C   UNL     1      43.956   4.668  11.129  0.00  0.00    +0.000 C 
ENDROOT
BRANCH   1   2
ATOM      2  N   UNL     1      43.732   4.709   9.676  0.00  0.00    +0.000 N 
ATOM      3  H   UNL     1      43.659   5.657   9.318  0.00  0.00    +0.000 HD
BRANCH   2   7
ATOM      4  C   UNL     1      46.536   2.495   7.611  0.00  0.00    +0.000 A 
ATOM      5  C   UNL     1      46.428   3.864   7.420  0.00  0.00    +0.000 A 
ATOM      6  N   UNL     1      45.506   4.629   8.067  0.00  0.00    +0.000 NA
ATOM      7  C   UNL     1      44.676   3.991   8.921  0.00  0.00    +0.000 A 
ATOM      8  C   UNL     1      44.798   2.603   9.093  0.00  0.00    +0.000 A 
ATOM      9  N   UNL     1      45.708   1.817   8.451  0.00  0.00    +0.000 NA
BRANCH   4  11
ATOM     10  N   UNL     1      48.704   2.396   6.496  0.00  0.00    +0.000 N 
ATOM     11  C   UNL     1      47.580   1.721   6.890  0.00  0.00    +0.000 C 
ATOM     12  O   UNL     1      47.458   0.517   6.669  0.00  0.00    +0.000 OA
ATOM     13  H   UNL     1      49.454   1.864   6.076  0.00  0.00    +0.000 HD
ATOM     14  H   UNL     1      48.885   3.335   6.838  0.00  0.00    +0.000 HD
ENDBRANCH   4  11
ENDBRANCH   2   7
ENDBRANCH   1   2
BRANCH   1  15
ATOM     15  C   UNL     1      44.550   6.004  11.600  0.00  0.00    +0.000 C 
BRANCH  15  16
ATOM     16  C   UNL     1      45.783   5.838  12.457  0.00  0.00    +0.000 A 
ATOM     17  C   UNL     1      45.828   4.929  13.514  0.00  0.00    +0.000 A 
ATOM     18  C   UNL     1      46.995   4.831  14.257  0.00  0.00    +0.000 A 
ATOM     19  N   UNL     1      48.100   5.567  14.024  0.00  0.00    +0.000 NA
ATOM     20  C   UNL     1      48.062   6.452  12.996  0.00  0.00    +0.000 A 
ATOM     21  C   UNL     1      46.924   6.603  12.200  0.00  0.00    +0.000 A 
BRANCH  20  22
ATOM     22  C   UNL     1      49.277   7.260  12.791  0.00  0.00    +0.000 A 
ATOM     23  C   UNL     1      49.693   7.655  11.507  0.00  0.00    +0.000 A 
ATOM     24  C   UNL     1      50.824   8.454  11.324  0.00  0.00    +0.000 A 
ATOM     25  C   UNL     1      51.566   8.868  12.424  0.00  0.00    +0.000 A 
ATOM     26  C   UNL     1      51.184   8.483  13.705  0.00  0.00    +0.000 A 
ATOM     27  C   UNL     1      50.053   7.683  13.885  0.00  0.00    +0.000 A 
ENDBRANCH  20  22
ENDBRANCH  15  16
ENDBRANCH   1  15
TORSDOF 6
ENDMDL
MODEL 4
REMARK VINA RESULT:    -7.118      1.558      2.047
REMARK INTER + INTRA:         -10.432
REMARK INTER:                  -9.771
REMARK INTRA:                  -0.661
REMARK UNBOUND:                -0.817
REMARK  Name = 
REMARK  6 active torsions:
REMARK  status: ('A' for Active; 'I' for Inactive)
REMARK    1  A    between atoms: C_2  and  C_4
REMARK    2  A    between atoms: C_7  and  N_8
REMARK    3  A    between atoms: N_8  and  C_9
REMARK    4  A    between atoms: C_9  and  C_10
REMARK    5  A    between atoms: C_10  and  C_11
REMARK    6  A    between atoms: C_15  and  C_16
REMARK                            x       y       z     vdW  Elec       q    Type
REMARK                         _______ _______ _______ _____ _____    ______ ____
ROOT
ATOM      1  C   UNL     1      46.889   6.129  13.464  0.00  0.00    +0.000 C 
ENDROOT
BRANCH   1   2
ATOM      2  N   UNL     1      46.306   5.181  14.424  0.00  0.00    +0.000 N 
ATOM      3  H   UNL     1      45.670   4.520  13.987  0.00  0.00    +0.000 HD
BRANCH   2   7
ATOM      4  C   UNL     1      49.187   3.286  16.692  0.00  0.00    +0.000 A 
ATOM      5  C   UNL     1      48.457   2.590  15.740  0.00  0.00    +0.000 A 
ATOM      6  N   UNL     1      47.486   3.172  14.983  0.00  0.00    +0.000 NA
ATOM      7  C   UNL     1      47.250   4.484  15.200  0.00  0.00    +0.000 A 
ATOM      8  C   UNL     1      47.994   5.167  16.175  0.00  0.00    +0.000 A 
ATOM      9  N   UNL     1      48.964   4.603  16.948  0.00  0.00    +0.000 NA
BRANCH   4  11
ATOM     10  N   UNL     1      50.927   3.335  18.402  0.00  0.00    +0.000 N 
ATOM     11  C   UNL     1      50.250   2.596  17.469  0.00  0.00    +0.000 C 
ATOM     12  O   UNL     1      50.504   1.404  17.302  0.00  0.00    +0.000 OA
ATOM     13  H   UNL     1      51.596   2.857  18.990  0.00  0.00    +0.000 HD
ATOM     14  H   UNL     1      50.595   4.257  18.666  0.00  0.00    +0.000 HD
ENDBRANCH   4  11
ENDBRANCH   2   7
ENDBRANCH   1   2
BRANCH   1  15
ATOM     15  C   UNL     1      45.768   6.814  12.667  0.00  0.00    +0.000 C 
BRANCH  15  16
ATOM     16  C   UNL     1      44.979   5.857  11.806  0.00  0.00    +0.000 A 
ATOM     17  C   UNL     1      43.616   5.639  12.007  0.00  0.00    +0.000 A 
ATOM     18  C   UNL     1      42.956   4.746  11.176  0.00  0.00    +0.000 A 
ATOM     19  N   UNL     1      43.553   4.063  10.179  0.00  0.00    +0.000 NA
ATOM     20  C   UNL     1      44.878   4.272   9.978  0.00  0.00    +0.000 A 
ATOM     21  C   UNL     1      45.609   5.161  10.771  0.00  0.00    +0.000 A 
BRANCH  20  22
ATOM     22  C   UNL     1      45.503   3.486   8.899  0.00  0.00    +0.000 A 
ATOM     23  C   UNL     1      46.031   4.101   7.750  0.00  0.00    +0.000 A 
ATOM     24  C   UNL     1      46.657   3.352   6.749  0.00  0.00    +0.000 A 
ATOM     25  C   UNL     1      46.759   1.972   6.877  0.00  0.00    +0.000 A 
ATOM     26  C   UNL     1      46.234   1.337   7.999  0.00  0.00    +0.000 A 
ATOM     27  C   UNL     1      45.609   2.087   8.997  0.00  0.00    +0.000 A 
ENDBRANCH  20  22
ENDBRANCH  15  16
ENDBRANCH   1  15
TORSDOF 6
ENDMDL
MODEL 5
REMARK VINA RESULT:    -6.606      2.348      3.851
REMARK INTER + INTRA:          -9.740
REMARK INTER:                  -8.863
REMARK INTRA:                  -0.877
REMARK UNBOUND:                -0.817
REMARK  Name = 
REMARK  6 active torsions:
REMARK  status: ('A' for Active; 'I' for Inactive)
REMARK    1  A    between atoms: C_2  and  C_4
REMARK    2  A    between atoms: C_7  and  N_8
REMARK    3  A    between atoms: N_8  and  C_9
REMARK    4  A    between atoms: C_9  and  C_10
REMARK    5  A    between atoms: C_10  and  C_11
REMARK    6  A    between atoms: C_15  and  C_16
REMARK                            x       y       z     vdW  Elec       q    Type
REMARK                         _______ _______ _______ _____ _____    ______ ____
ROOT
ATOM      1  C   UNL     1      49.470   7.370  13.146  0.00  0.00    +0.000 C 
ENDROOT
BRANCH   1   2
ATOM      2  N   UNL     1      49.771   7.486  14.580  0.00  0.00    +0.000 N 
ATOM      3  H   UNL     1      49.556   8.407  14.953  0.00  0.00    +0.000 HD
BRANCH   2   7
ATOM      4  C   UNL     1      48.185   4.540  16.995  0.00  0.00    +0.000 A 
ATOM      5  C   UNL     1      47.645   4.804  15.745  0.00  0.00    +0.000 A 
ATOM      6  N   UNL     1      48.126   5.778  14.924  0.00  0.00    +0.000 NA
ATOM      7  C   UNL     1      49.172   6.499  15.383  0.00  0.00    +0.000 A 
ATOM      8  C   UNL     1      49.697   6.221  16.655  0.00  0.00    +0.000 A 
ATOM      9  N   UNL     1      49.227   5.256  17.495  0.00  0.00    +0.000 NA
BRANCH   4  11
ATOM     10  N   UNL     1      48.266   3.166  19.010  0.00  0.00    +0.000 N 
ATOM     11  C   UNL     1      47.626   3.446  17.833  0.00  0.00    +0.000 C 
ATOM     12  O   UNL     1      46.619   2.824  17.499  0.00  0.00    +0.000 OA
ATOM     13  H   UNL     1      47.849   2.480  19.624  0.00  0.00    +0.000 HD
ATOM     14  H   UNL     1      48.977   3.795  19.370  0.00  0.00    +0.000 HD
ENDBRANCH   4  11
ENDBRANCH   2   7
ENDBRANCH   1   2
BRANCH   1  15
ATOM     15  C   UNL     1      48.683   8.605  12.680  0.00  0.00    +0.000 C 
BRANCH  15  16
ATOM     16  C   UNL     1      47.274   8.284  12.245  0.00  0.00    +0.000 A 
ATOM     17  C   UNL     1      46.245   9.222  12.331  0.00  0.00    +0.000 A 
ATOM     18  C   UNL     1      44.974   8.856  11.911  0.00  0.00    +0.000 A 
ATOM     19  N   UNL     1      44.664   7.637  11.425  0.00  0.00    +0.000 NA
ATOM     20  C   UNL     1      45.661   6.722  11.339  0.00  0.00    +0.000 A 
ATOM     21  C   UNL     1      46.967   7.019  11.737  0.00  0.00    +0.000 A 
BRANCH  20  22
ATOM     22  C   UNL     1      45.278   5.392  10.832  0.00  0.00    +0.000 A 
ATOM     23  C   UNL     1      45.453   5.038   9.482  0.00  0.00    +0.000 A 
ATOM     24  C   UNL     1      45.123   3.762   9.017  0.00  0.00    +0.000 A 
ATOM     25  C   UNL     1      44.605   2.817   9.895  0.00  0.00    +0.000 A 
ATOM     26  C   UNL     1      44.411   3.144  11.234  0.00  0.00    +0.000 A 
ATOM     27  C   UNL     1      44.741   4.420  11.695  0.00  0.00    +0.000 A 
ENDBRANCH  20  22
ENDBRANCH  15  16
ENDBRANCH   1  15
TORSDOF 6
ENDMDL
MODEL 6
REMARK VINA RESULT:    -6.451      2.736      3.665
REMARK INTER + INTRA:          -9.531
REMARK INTER:                  -8.898
REMARK INTRA:                  -0.633
REMARK UNBOUND:                -0.817
REMARK  Name = 
REMARK  6 active torsions:
REMARK  status: ('A' for Active; 'I' for Inactive)
REMARK    1  A    between atoms: C_2  and  C_4
REMARK    2  A    between atoms: C_7  and  N_8
REMARK    3  A    between atoms: N_8  and  C_9
REMARK    4  A    between atoms: C_9  and  C_10
REMARK    5  A    between atoms: C_10  and  C_11
REMARK    6  A    between atoms: C_15  and  C_16
REMARK                            x       y       z     vdW  Elec       q    Type
REMARK                         _______ _______ _______ _____ _____    ______ ____
ROOT
ATOM      1  C   UNL     1      46.203   6.863  11.753  0.00  0.00    +0.000 C 
ENDROOT
BRANCH   1   2
ATOM      2  N   UNL     1      46.773   6.601  13.082  0.00  0.00    +0.000 N 
ATOM      3  H   UNL     1      46.697   5.625  13.356  0.00  0.00    +0.000 HD
BRANCH   2   7
ATOM      4  C   UNL     1      50.623   7.943  13.717  0.00  0.00    +0.000 A 
ATOM      5  C   UNL     1      50.050   7.993  12.455  0.00  0.00    +0.000 A 
ATOM      6  N   UNL     1      48.790   7.545  12.199  0.00  0.00    +0.000 NA
ATOM      7  C   UNL     1      48.101   7.033  13.242  0.00  0.00    +0.000 A 
ATOM      8  C   UNL     1      48.704   6.984  14.509  0.00  0.00    +0.000 A 
ATOM      9  N   UNL     1      49.965   7.420  14.787  0.00  0.00    +0.000 NA
BRANCH   4  11
ATOM     10  N   UNL     1      52.957   7.580  14.329  0.00  0.00    +0.000 N 
ATOM     11  C   UNL     1      51.996   8.471  13.935  0.00  0.00    +0.000 C 
ATOM     12  O   UNL     1      52.271   9.656  13.751  0.00  0.00    +0.000 OA
ATOM     13  H   UNL     1      53.909   7.911  14.403  0.00  0.00    +0.000 HD
ATOM     14  H   UNL     1      52.775   6.582  14.301  0.00  0.00    +0.000 HD
ENDBRANCH   4  11
ENDBRANCH   2   7
ENDBRANCH   1   2
BRANCH   1  15
ATOM     15  C   UNL     1      44.720   6.461  11.736  0.00  0.00    +0.000 C 
BRANCH  15  16
ATOM     16  C   UNL     1      44.484   5.078  11.179  0.00  0.00    +0.000 A 
ATOM     17  C   UNL     1      43.555   4.205  11.745  0.00  0.00    +0.000 A 
ATOM     18  C   UNL     1      43.392   2.949  11.178  0.00  0.00    +0.000 A 
ATOM     19  N   UNL     1      44.083   2.511  10.107  0.00  0.00    +0.000 NA
ATOM     20  C   UNL     1      44.987   3.356   9.553  0.00  0.00    +0.000 A 
ATOM     21  C   UNL     1      45.203   4.638  10.064  0.00  0.00    +0.000 A 
BRANCH  20  22
ATOM     22  C   UNL     1      45.745   2.832   8.402  0.00  0.00    +0.000 A 
ATOM     23  C   UNL     1      46.145   1.486   8.334  0.00  0.00    +0.000 A 
ATOM     24  C   UNL     1      46.830   0.987   7.222  0.00  0.00    +0.000 A 
ATOM     25  C   UNL     1      47.132   1.830   6.159  0.00  0.00    +0.000 A 
ATOM     26  C   UNL     1      46.758   3.170   6.206  0.00  0.00    +0.000 A 
ATOM     27  C   UNL     1      46.075   3.665   7.319  0.00  0.00    +0.000 A 
ENDBRANCH  20  22
ENDBRANCH  15  16
ENDBRANCH   1  15
TORSDOF 6
ENDMDL
MODEL 7
REMARK VINA RESULT:    -6.204      3.346      8.443
REMARK INTER + INTRA:          -9.198
REMARK INTER:                  -8.496
REMARK INTRA:                  -0.702
REMARK UNBOUND:                -0.817
REMARK  Name = 
REMARK  6 active torsions:
REMARK  status: ('A' for Active; 'I' for Inactive)
REMARK    1  A    between atoms: C_2  and  C_4
REMARK    2  A    between atoms: C_7  and  N_8
REMARK    3  A    between atoms: N_8  and  C_9
REMARK    4  A    between atoms: C_9  and  C_10
REMARK    5  A    between atoms: C_10  and  C_11
REMARK    6  A    between atoms: C_15  and  C_16
REMARK                            x       y       z     vdW  Elec       q    Type
REMARK                         _______ _______ _______ _____ _____    ______ ____
ROOT
ATOM      1  C   UNL     1      48.263   6.566  14.317  0.00  0.00    +0.000 C 
ENDROOT
BRANCH   1   2
ATOM      2  N   UNL     1      46.998   7.218  13.949  0.00  0.00    +0.000 N 
ATOM      3  H   UNL     1      47.134   8.149  13.565  0.00  0.00    +0.000 HD
BRANCH   2   7
ATOM      4  C   UNL     1      44.725   4.860  11.439  0.00  0.00    +0.000 A 
ATOM      5  C   UNL     1      44.966   6.193  11.140  0.00  0.00    +0.000 A 
ATOM      6  N   UNL     1      45.695   7.010  11.949  0.00  0.00    +0.000 NA
ATOM      7  C   UNL     1      46.185   6.465  13.083  0.00  0.00    +0.000 A 
ATOM      8  C   UNL     1      45.922   5.116  13.370  0.00  0.00    +0.000 A 
ATOM      9  N   UNL     1      45.190   4.282  12.579  0.00  0.00    +0.000 NA
BRANCH   4  11
ATOM     10  N   UNL     1      43.970   4.352   9.174  0.00  0.00    +0.000 N 
ATOM     11  C   UNL     1      43.940   4.015  10.501  0.00  0.00    +0.000 C 
ATOM     12  O   UNL     1      43.300   3.038  10.889  0.00  0.00    +0.000 OA
ATOM     13  H   UNL     1      43.506   3.739   8.519  0.00  0.00    +0.000 HD
ATOM     14  H   UNL     1      44.638   5.037   8.834  0.00  0.00    +0.000 HD
ENDBRANCH   4  11
ENDBRANCH   2   7
ENDBRANCH   1   2
BRANCH   1  15
ATOM     15  C   UNL     1      48.481   6.677  15.834  0.00  0.00    +0.000 C 
BRANCH  15  16
ATOM     16  C   UNL     1      48.539   5.337  16.527  0.00  0.00    +0.000 A 
ATOM     17  C   UNL     1      47.384   4.666  16.928  0.00  0.00    +0.000 A 
ATOM     18  C   UNL     1      47.514   3.437  17.559  0.00  0.00    +0.000 A 
ATOM     19  N   UNL     1      48.697   2.845  17.816  0.00  0.00    +0.000 NA
ATOM     20  C   UNL     1      49.823   3.492  17.427  0.00  0.00    +0.000 A 
ATOM     21  C   UNL     1      49.772   4.730  16.781  0.00  0.00    +0.000 A 
BRANCH  20  22
ATOM     22  C   UNL     1      51.099   2.828  17.751  0.00  0.00    +0.000 A 
ATOM     23  C   UNL     1      51.346   1.490  17.397  0.00  0.00    +0.000 A 
ATOM     24  C   UNL     1      52.572   0.880  17.673  0.00  0.00    +0.000 A 
ATOM     25  C   UNL     1      53.573   1.598  18.317  0.00  0.00    +0.000 A 
ATOM     26  C   UNL     1      53.352   2.920  18.690  0.00  0.00    +0.000 A 
ATOM     27  C   UNL     1      52.125   3.527  18.412  0.00  0.00    +0.000 A 
ENDBRANCH  20  22
ENDBRANCH  15  16
ENDBRANCH   1  15
TORSDOF 6
ENDMDL
MODEL 8
REMARK VINA RESULT:    -6.196      3.006      4.880
REMARK INTER + INTRA:          -9.187
REMARK INTER:                  -8.436
REMARK INTRA:                  -0.752
REMARK UNBOUND:                -0.817
REMARK  Name = 
REMARK  6 active torsions:
REMARK  status: ('A' for Active; 'I' for Inactive)
REMARK    1  A    between atoms: C_2  and  C_4
REMARK    2  A    between atoms: C_7  and  N_8
REMARK    3  A    between atoms: N_8  and  C_9
REMARK    4  A    between atoms: C_9  and  C_10
REMARK    5  A    between atoms: C_10  and  C_11
REMARK    6  A    between atoms: C_15  and  C_16
REMARK                            x       y       z     vdW  Elec       q    Type
REMARK                         _______ _______ _______ _____ _____    ______ ____
ROOT
ATOM      1  C   UNL     1      49.047   7.438  15.947  0.00  0.00    +0.000 C 
ENDROOT
BRANCH   1   2
ATOM      2  N   UNL     1      48.276   6.342  16.552  0.00  0.00    +0.000 N 
ATOM      3  H   UNL     1      47.484   6.058  15.982  0.00  0.00    +0.000 HD
BRANCH   2   7
ATOM      4  C   UNL     1      50.670   3.114  17.488  0.00  0.00    +0.000 A 
ATOM      5  C   UNL     1      49.376   2.931  17.022  0.00  0.00    +0.000 A 
ATOM      6  N   UNL     1      48.548   3.968  16.719  0.00  0.00    +0.000 NA
ATOM      7  C   UNL     1      49.040   5.213  16.895  0.00  0.00    +0.000 A 
ATOM      8  C   UNL     1      50.349   5.375  17.376  0.00  0.00    +0.000 A 
ATOM      9  N   UNL     1      51.193   4.353  17.693  0.00  0.00    +0.000 NA
BRANCH   4  11
ATOM     10  N   UNL     1      52.642   2.148  18.552  0.00  0.00    +0.000 N 
ATOM     11  C   UNL     1      51.532   1.938  17.779  0.00  0.00    +0.000 C 
ATOM     12  O   UNL     1      51.256   0.814  17.364  0.00  0.00    +0.000 OA
ATOM     13  H   UNL     1      53.191   1.343  18.822  0.00  0.00    +0.000 HD
ATOM     14  H   UNL     1      52.768   3.028  19.043  0.00  0.00    +0.000 HD
ENDBRANCH   4  11
ENDBRANCH   2   7
ENDBRANCH   1   2
BRANCH   1  15
ATOM     15  C   UNL     1      49.114   7.245  14.424  0.00  0.00    +0.000 C 
BRANCH  15  16
ATOM     16  C   UNL     1      47.778   7.414  13.743  0.00  0.00    +0.000 A 
ATOM     17  C   UNL     1      47.148   8.655  13.653  0.00  0.00    +0.000 A 
ATOM     18  C   UNL     1      45.920   8.733  13.011  0.00  0.00    +0.000 A 
ATOM     19  N   UNL     1      45.287   7.675  12.467  0.00  0.00    +0.000 NA
ATOM     20  C   UNL     1      45.895   6.466  12.551  0.00  0.00    +0.000 A 
ATOM     21  C   UNL     1      47.134   6.310  13.176  0.00  0.00    +0.000 A 
BRANCH  20  22
ATOM     22  C   UNL     1      45.159   5.328  11.971  0.00  0.00    +0.000 A 
ATOM     23  C   UNL     1      44.792   5.301  10.614  0.00  0.00    +0.000 A 
ATOM     24  C   UNL     1      44.129   4.201  10.063  0.00  0.00    +0.000 A 
ATOM     25  C   UNL     1      43.814   3.109  10.864  0.00  0.00    +0.000 A 
ATOM     26  C   UNL     1      44.155   3.115  12.213  0.00  0.00    +0.000 A 
ATOM     27  C   UNL     1      44.818   4.216  12.760  0.00  0.00    +0.000 A 
ENDBRANCH  20  22
ENDBRANCH  15  16
ENDBRANCH   1  15
TORSDOF 6
ENDMDL
MODEL 9
REMARK VINA RESULT:    -6.068      3.839      7.851
REMARK INTER + INTRA:          -9.014
REMARK INTER:                  -8.148
REMARK INTRA:                  -0.866
REMARK UNBOUND:                -0.817
REMARK  Name = 
REMARK  6 active torsions:
REMARK  status: ('A' for Active; 'I' for Inactive)
REMARK    1  A    between atoms: C_2  and  C_4
REMARK    2  A    between atoms: C_7  and  N_8
REMARK    3  A    between atoms: N_8  and  C_9
REMARK    4  A    between atoms: C_9  and  C_10
REMARK    5  A    between atoms: C_10  and  C_11
REMARK    6  A    between atoms: C_15  and  C_16
REMARK                            x       y       z     vdW  Elec       q    Type
REMARK                         _______ _______ _______ _____ _____    ______ ____
ROOT
ATOM      1  C   UNL     1      47.927   8.234  13.133  0.00  0.00    +0.000 C 
ENDROOT
BRANCH   1   2
ATOM      2  N   UNL     1      46.464   8.170  13.261  0.00  0.00    +0.000 N 
ATOM      3  H   UNL     1      45.996   8.951  12.807  0.00  0.00    +0.000 HD
BRANCH   2   7
ATOM      4  C   UNL     1      44.620   4.699  12.004  0.00  0.00    +0.000 A 
ATOM      5  C   UNL     1      45.746   4.656  12.814  0.00  0.00    +0.000 A 
ATOM      6  N   UNL     1      46.394   5.775  13.236  0.00  0.00    +0.000 NA
ATOM      7  C   UNL     1      45.893   6.961  12.826  0.00  0.00    +0.000 A 
ATOM      8  C   UNL     1      44.758   6.982  11.999  0.00  0.00    +0.000 A 
ATOM      9  N   UNL     1      44.098   5.873  11.559  0.00  0.00    +0.000 NA
BRANCH   4  11
ATOM     10  N   UNL     1      43.787   2.472  12.553  0.00  0.00    +0.000 N 
ATOM     11  C   UNL     1      43.945   3.439  11.597  0.00  0.00    +0.000 C 
ATOM     12  O   UNL     1      43.524   3.269  10.453  0.00  0.00    +0.000 OA
ATOM     13  H   UNL     1      43.259   1.646  12.309  0.00  0.00    +0.000 HD
ATOM     14  H   UNL     1      43.965   2.683  13.530  0.00  0.00    +0.000 HD
ENDBRANCH   4  11
ENDBRANCH   2   7
ENDBRANCH   1   2
BRANCH   1  15
ATOM     15  C   UNL     1      48.507   9.117  14.249  0.00  0.00    +0.000 C 
BRANCH  15  16
ATOM     16  C   UNL     1      48.511   8.444  15.600  0.00  0.00    +0.000 A 
ATOM     17  C   UNL     1      48.179   9.132  16.767  0.00  0.00    +0.000 A 
ATOM     18  C   UNL     1      48.204   8.447  17.973  0.00  0.00    +0.000 A 
ATOM     19  N   UNL     1      48.537   7.146  18.093  0.00  0.00    +0.000 NA
ATOM     20  C   UNL     1      48.860   6.472  16.962  0.00  0.00    +0.000 A 
ATOM     21  C   UNL     1      48.852   7.093  15.710  0.00  0.00    +0.000 A 
BRANCH  20  22
ATOM     22  C   UNL     1      49.247   5.061  17.136  0.00  0.00    +0.000 A 
ATOM     23  C   UNL     1      48.328   4.014  16.944  0.00  0.00    +0.000 A 
ATOM     24  C   UNL     1      48.714   2.677  17.073  0.00  0.00    +0.000 A 
ATOM     25  C   UNL     1      50.027   2.363  17.404  0.00  0.00    +0.000 A 
ATOM     26  C   UNL     1      50.954   3.379  17.610  0.00  0.00    +0.000 A 
ATOM     27  C   UNL     1      50.566   4.715  17.481  0.00  0.00    +0.000 A 
ENDBRANCH  20  22
ENDBRANCH  15  16
ENDBRANCH   1  15
TORSDOF 6
ENDMDL
