MODEL 1
REMARK VINA RESULT:    -8.055      0.000      0.000
REMARK INTER + INTRA:         -11.196
REMARK INTER:                 -10.409
REMARK INTRA:                  -0.787
REMARK UNBOUND:                -0.787
REMARK  Name = 
REMARK  5 active torsions:
REMARK  status: ('A' for Active; 'I' for Inactive)
REMARK    1  A    between atoms: C_2  and  C_4
REMARK    2  A    between atoms: C_7  and  C_8
REMARK    3  A    between atoms: C_8  and  O_9
REMARK    4  A    between atoms: O_9  and  C_10
REMARK    5  A    between atoms: C_15  and  C_16
REMARK                            x       y       z     vdW  Elec       q    Type
REMARK                         _______ _______ _______ _____ _____    ______ ____
ROOT
ATOM      1  C   UNL     1      45.475   5.551  11.762  0.00  0.00    +0.000 A 
ATOM      2  C   UNL     1      45.525   4.645  12.816  0.00  0.00    +0.000 A 
ATOM      3  C   UNL     1      46.546   4.746  13.748  0.00  0.00    +0.000 A 
ATOM      4  F   UNL     1      46.585   3.884  14.773  0.00  0.00    +0.000 F 
ATOM      5  C   UNL     1      47.539   5.712  13.637  0.00  0.00    +0.000 A 
ATOM      6  C   UNL     1      47.554   6.598  12.552  0.00  0.00    +0.000 A 
ATOM      7  C   UNL     1      46.477   6.525  11.645  0.00  0.00    +0.000 A 
ENDROOT
BRANCH   6   8
ATOM      8  C   UNL     1      48.670   7.614  12.314  0.00  0.00    +0.000 C 
ATOM      9  C   UNL     1      49.397   7.994  13.623  0.00  0.00    +0.000 C 
ATOM     10  C   UNL     1      48.557   8.936  14.484  0.00  0.00    +0.000 C 
ATOM     11  N   UNL     1      48.218  10.168  13.770  0.00  0.00    +0.000 NA
ATOM     12  C   UNL     1      47.501   9.887  12.527  0.00  0.00    +0.000 C 
ATOM     13  C   UNL     1      48.265   8.925  11.609  0.00  0.00    +0.000 C 
ATOM     14  H   UNL     1      49.074  10.678  13.556  0.00  0.00    +0.000 HD
ENDBRANCH   6   8
BRANCH   1  15
ATOM     15  O   UNL     1      44.517   5.586  10.785  0.00  0.00    +0.000 OA
BRANCH  15  16
ATOM     16  C   UNL     1      43.996   4.321  10.371  0.00  0.00    +0.000 C 
BRANCH  16  20
ATOM     17  C   UNL     1      46.611   2.429   7.498  0.00  0.00    +0.000 A 
ATOM     18  C   UNL     1      46.484   3.822   7.504  0.00  0.00    +0.000 A 
ATOM     19  C   UNL     1      45.633   4.441   8.426  0.00  0.00    +0.000 A 
ATOM     20  C   UNL     1      44.891   3.678   9.336  0.00  0.00    +0.000 A 
ATOM     21  C   UNL     1      45.032   2.283   9.327  0.00  0.00    +0.000 A 
ATOM     22  C   UNL     1      45.878   1.661   8.407  0.00  0.00    +0.000 A 
BRANCH  17  24
ATOM     23  N   UNL     1      48.569   2.416   6.049  0.00  0.00    +0.000 N 
ATOM     24  C   UNL     1      47.495   1.725   6.534  0.00  0.00    +0.000 C 
ATOM     25  O   UNL     1      47.299   0.559   6.214  0.00  0.00    +0.000 OA
ATOM     26  H   UNL     1      49.220   1.887   5.484  0.00  0.00    +0.000 HD
ATOM     27  H   UNL     1      48.905   3.263   6.484  0.00  0.00    +0.000 HD
ENDBRANCH  17  24
ENDBRANCH  16  20
ENDBRANCH  15  16
ENDBRANCH   1  15
TORSDOF 5
ENDMDL
MODEL 2
REMARK VINA RESULT:    -7.586      1.894      2.529
REMARK INTER + INTRA:         -10.590
REMARK INTER:                  -9.872
REMARK INTRA:                  -0.718
REMARK UNBOUND:                -0.787
REMARK  Name = 
REMARK  5 active torsions:
REMARK  status: ('A' for Active; 'I' for Inactive)
REMARK    1  A    between atoms: C_2  and  C_4
REMARK    2  A    between atoms: C_7  and  C_8
REMARK    3  A    between atoms: C_8  and  O_9
REMARK    4  A    between atoms: O_9  and  C_10
REMARK    5  A    between atoms: C_15  and  C_16
REMARK                            x       y       z     vdW  Elec       q    Type
REMARK                         _______ _______ _______ _____ _____    ______ ____
ROOT
ATOM      1  C   UNL     1      44.976   6.074  11.554  0.00  0.00    +0.000 A 
ATOM      2  C   UNL     1      44.108   7.145  11.376  0.00  0.00    +0.000 A 
ATOM      3  C   UNL     1      44.593   8.438  11.490  0.00  0.00    +0.000 A 
ATOM      4  F   UNL     1      43.759   9.469  11.302  0.00  0.00    +0.000 F 
ATOM      5  C   UNL     1      45.922   8.689  11.809  0.00  0.00    +0.000 A 
ATOM      6  C   UNL     1      46.808   7.634  12.058  0.00  0.00    +0.000 A 
ATOM      7  C   UNL     1      46.318   6.324  11.879  0.00  0.00    +0.000 A 
ENDROOT
BRANCH   6   8
ATOM      8  C   UNL     1      48.252   7.840  12.513  0.00  0.00    +0.000 C 
ATOM      9  C   UNL     1      48.804   6.612  13.269  0.00  0.00    +0.000 C 
ATOM     10  C   UNL     1      48.242   6.522  14.688  0.00  0.00    +0.000 C 
ATOM     11  N   UNL     1      48.548   7.721  15.470  0.00  0.00    +0.000 NA
ATOM     12  C   UNL     1      48.032   8.927  14.826  0.00  0.00    +0.000 C 
ATOM     13  C   UNL     1      48.527   9.085  13.382  0.00  0.00    +0.000 C 
ATOM     14  H   UNL     1      49.558   7.803  15.577  0.00  0.00    +0.000 HD
ENDBRANCH   6   8
BRANCH   1  15
ATOM     15  O   UNL     1      44.643   4.750  11.449  0.00  0.00    +0.000 OA
BRANCH  15  16
ATOM     16  C   UNL     1      43.976   4.364  10.246  0.00  0.00    +0.000 C 
BRANCH  16  20
ATOM     17  C   UNL     1      46.634   2.422   7.446  0.00  0.00    +0.000 A 
ATOM     18  C   UNL     1      45.923   1.652   8.372  0.00  0.00    +0.000 A 
ATOM     19  C   UNL     1      45.066   2.274   9.287  0.00  0.00    +0.000 A 
ATOM     20  C   UNL     1      44.925   3.667   9.297  0.00  0.00    +0.000 A 
ATOM     21  C   UNL     1      45.635   4.429   8.359  0.00  0.00    +0.000 A 
ATOM     22  C   UNL     1      46.493   3.812   7.446  0.00  0.00    +0.000 A 
BRANCH  17  24
ATOM     23  N   UNL     1      48.728   2.468   6.203  0.00  0.00    +0.000 N 
ATOM     24  C   UNL     1      47.560   1.808   6.461  0.00  0.00    +0.000 C 
ATOM     25  O   UNL     1      47.312   0.733   5.928  0.00  0.00    +0.000 OA
ATOM     26  H   UNL     1      49.394   1.981   5.618  0.00  0.00    +0.000 HD
ATOM     27  H   UNL     1      49.078   3.198   6.807  0.00  0.00    +0.000 HD
ENDBRANCH  17  24
ENDBRANCH  16  20
ENDBRANCH  15  16
ENDBRANCH   1  15
TORSDOF 5
ENDMDL
MODEL 3
REMARK VINA RESULT:    -7.385      4.892      7.906
REMARK INTER + INTRA:         -10.330
REMARK INTER:                 -10.052
REMARK INTRA:                  -0.278
REMARK UNBOUND:                -0.787
REMARK  Name = 
REMARK  5 active torsions:
REMARK  status: ('A' for Active; 'I' for Inactive)
REMARK    1  A    between atoms: C_2  and  C_4
REMARK    2  A    between atoms: C_7  and  C_8
REMARK    3  A    between atoms: C_8  and  O_9
REMARK    4  A    between atoms: O_9  and  C_10
REMARK    5  A    between atoms: C_15  and  C_16
REMARK                            x       y       z     vdW  Elec       q    Type
REMARK                         _______ _______ _______ _____ _____    ______ ____
ROOT
ATOM      1  C   UNL     1      46.617   4.804  14.166  0.00  0.00    +0.000 A 
ATOM      2  C   UNL     1      47.658   5.653  13.807  0.00  0.00    +0.000 A 
ATOM      3  C   UNL     1      47.560   6.388  12.636  0.00  0.00    +0.000 A 
ATOM      4  F   UNL     1      48.556   7.218  12.299  0.00  0.00    +0.000 F 
ATOM      5  C   UNL     1      46.457   6.274  11.797  0.00  0.00    +0.000 A 
ATOM      6  C   UNL     1      45.422   5.381  12.097  0.00  0.00    +0.000 A 
ATOM      7  C   UNL     1      45.505   4.684  13.321  0.00  0.00    +0.000 A 
ENDROOT
BRANCH   6   8
ATOM      8  C   UNL     1      44.234   5.131  11.170  0.00  0.00    +0.000 C 
ATOM      9  C   UNL     1      43.108   4.338  11.868  0.00  0.00    +0.000 C 
ATOM     10  C   UNL     1      43.463   2.858  12.011  0.00  0.00    +0.000 C 
ATOM     11  N   UNL     1      43.728   2.236  10.713  0.00  0.00    +0.000 NA
ATOM     12  C   UNL     1      44.805   2.920  10.001  0.00  0.00    +0.000 C 
ATOM     13  C   UNL     1      44.543   4.422   9.834  0.00  0.00    +0.000 C 
ATOM     14  H   UNL     1      42.880   2.264  10.148  0.00  0.00    +0.000 HD
ENDBRANCH   6   8
BRANCH   1  15
ATOM     15  O   UNL     1      46.567   4.038  15.300  0.00  0.00    +0.000 OA
BRANCH  15  16
ATOM     16  C   UNL     1      47.204   4.585  16.456  0.00  0.00    +0.000 C 
BRANCH  16  20
ATOM     17  C   UNL     1      50.805   2.395  17.413  0.00  0.00    +0.000 A 
ATOM     18  C   UNL     1      50.713   3.751  17.743  0.00  0.00    +0.000 A 
ATOM     19  C   UNL     1      49.553   4.469  17.429  0.00  0.00    +0.000 A 
ATOM     20  C   UNL     1      48.486   3.846  16.771  0.00  0.00    +0.000 A 
ATOM     21  C   UNL     1      48.585   2.484  16.452  0.00  0.00    +0.000 A 
ATOM     22  C   UNL     1      49.742   1.765  16.761  0.00  0.00    +0.000 A 
BRANCH  17  24
ATOM     23  N   UNL     1      51.833   0.293  18.091  0.00  0.00    +0.000 N 
ATOM     24  C   UNL     1      52.018   1.594  17.718  0.00  0.00    +0.000 C 
ATOM     25  O   UNL     1      53.144   2.062  17.603  0.00  0.00    +0.000 OA
ATOM     26  H   UNL     1      52.669  -0.266  18.185  0.00  0.00    +0.000 HD
ATOM     27  H   UNL     1      50.959  -0.191  17.941  0.00  0.00    +0.000 HD
ENDBRANCH  17  24
ENDBRANCH  16  20
ENDBRANCH  15  16
ENDBRANCH   1  15
TORSDOF 5
ENDMDL
MODEL 4
REMARK VINA RESULT:    -6.787      5.152      8.162
REMARK INTER + INTRA:          -9.557
REMARK INTER:                  -9.065
REMARK INTRA:                  -0.492
REMARK UNBOUND:                -0.787
REMARK  Name = 
REMARK  5 active torsions:
REMARK  status: ('A' for Active; 'I' for Inactive)
REMARK    1  A    between atoms: C_2  and  C_4
REMARK    2  A    between atoms: C_7  and  C_8
REMARK    3  A    between atoms: C_8  and  O_9
REMARK    4  A    between atoms: O_9  and  C_10
REMARK    5  A    between atoms: C_15  and  C_16
REMARK                            x       y       z     vdW  Elec       q    Type
REMARK                         _______ _______ _______ _____ _____    ______ ____
ROOT
ATOM      1  C   UNL     1      47.090   4.604  14.309  0.00  0.00    +0.000 A 
ATOM      2  C   UNL     1      47.619   5.884  14.433  0.00  0.00    +0.000 A 
ATOM      3  C   UNL     1      47.317   6.838  13.474  0.00  0.00    +0.000 A 
ATOM      4  F   UNL     1      47.813   8.075  13.602  0.00  0.00    +0.000 F 
ATOM      5  C   UNL     1      46.522   6.535  12.374  0.00  0.00    +0.000 A 
ATOM      6  C   UNL     1      46.028   5.239  12.186  0.00  0.00    +0.000 A 
ATOM      7  C   UNL     1      46.290   4.295  13.199  0.00  0.00    +0.000 A 
ENDROOT
BRANCH   6   8
ATOM      8  C   UNL     1      45.236   4.815  10.950  0.00  0.00    +0.000 C 
ATOM      9  C   UNL     1      43.957   5.660  10.762  0.00  0.00    +0.000 C 
ATOM     10  C   UNL     1      42.862   5.259  11.750  0.00  0.00    +0.000 C 
ATOM     11  N   UNL     1      42.505   3.846  11.620  0.00  0.00    +0.000 NA
ATOM     12  C   UNL     1      43.666   2.979  11.813  0.00  0.00    +0.000 C 
ATOM     13  C   UNL     1      44.827   3.328  10.874  0.00  0.00    +0.000 C 
ATOM     14  H   UNL     1      42.113   3.682  10.694  0.00  0.00    +0.000 HD
ENDBRANCH   6   8
BRANCH   1  15
ATOM     15  O   UNL     1      47.284   3.572  15.188  0.00  0.00    +0.000 OA
BRANCH  15  16
ATOM     16  C   UNL     1      47.539   3.942  16.545  0.00  0.00    +0.000 C 
BRANCH  16  20
ATOM     17  C   UNL     1      51.555   2.826  17.685  0.00  0.00    +0.000 A 
ATOM     18  C   UNL     1      50.674   1.848  17.213  0.00  0.00    +0.000 A 
ATOM     19  C   UNL     1      49.369   2.200  16.849  0.00  0.00    +0.000 A 
ATOM     20  C   UNL     1      48.929   3.524  16.969  0.00  0.00    +0.000 A 
ATOM     21  C   UNL     1      49.823   4.498  17.435  0.00  0.00    +0.000 A 
ATOM     22  C   UNL     1      51.124   4.150  17.802  0.00  0.00    +0.000 A 
BRANCH  17  24
ATOM     23  N   UNL     1      53.217   2.460  19.429  0.00  0.00    +0.000 N 
ATOM     24  C   UNL     1      52.946   2.500  18.090  0.00  0.00    +0.000 C 
ATOM     25  O   UNL     1      53.812   2.236  17.264  0.00  0.00    +0.000 OA
ATOM     26  H   UNL     1      54.135   2.127  19.687  0.00  0.00    +0.000 HD
ATOM     27  H   UNL     1      52.485   2.409  20.124  0.00  0.00    +0.000 HD
ENDBRANCH  17  24
ENDBRANCH  16  20
ENDBRANCH  15  16
ENDBRANCH   1  15
TORSDOF 5
ENDMDL
MODEL 5
REMARK VINA RESULT:    -6.689      4.600      8.651
REMARK INTER + INTRA:          -9.430
REMARK INTER:                  -9.153
REMARK INTRA:                  -0.278
REMARK UNBOUND:                -0.787
REMARK  Name = 
REMARK  5 active torsions:
REMARK  status: ('A' for Active; 'I' for Inactive)
REMARK    1  A    between atoms: C_2  and  C_4
REMARK    2  A    between atoms: C_7  and  C_8
REMARK    3  A    between atoms: C_8  and  O_9
REMARK    4  A    between atoms: O_9  and  C_10
REMARK    5  A    between atoms: C_15  and  C_16
REMARK                            x       y       z     vdW  Elec       q    Type
REMARK                         _______ _______ _______ _____ _____    ______ ____
ROOT
ATOM      1  C   UNL     1      46.393   5.351  13.595  0.00  0.00    +0.000 A 
ATOM      2  C   UNL     1      47.412   6.149  13.087  0.00  0.00    +0.000 A 
ATOM      3  C   UNL     1      47.307   6.641  11.795  0.00  0.00    +0.000 A 
ATOM      4  F   UNL     1      48.281   7.423  11.311  0.00  0.00    +0.000 F 
ATOM      5  C   UNL     1      46.220   6.331  10.985  0.00  0.00    +0.000 A 
ATOM      6  C   UNL     1      45.209   5.478  11.444  0.00  0.00    +0.000 A 
ATOM      7  C   UNL     1      45.296   5.034  12.780  0.00  0.00    +0.000 A 
ENDROOT
BRANCH   6   8
ATOM      8  C   UNL     1      44.043   5.015  10.573  0.00  0.00    +0.000 C 
ATOM      9  C   UNL     1      43.032   4.156  11.364  0.00  0.00    +0.000 C 
ATOM     10  C   UNL     1      43.563   2.745  11.615  0.00  0.00    +0.000 C 
ATOM     11  N   UNL     1      43.877   2.053  10.364  0.00  0.00    +0.000 NA
ATOM     12  C   UNL     1      44.852   2.797   9.570  0.00  0.00    +0.000 C 
ATOM     13  C   UNL     1      44.409   4.239   9.290  0.00  0.00    +0.000 C 
ATOM     14  H   UNL     1      43.022   1.934   9.822  0.00  0.00    +0.000 HD
ENDBRANCH   6   8
BRANCH   1  15
ATOM     15  O   UNL     1      46.351   4.816  14.855  0.00  0.00    +0.000 OA
BRANCH  15  16
ATOM     16  C   UNL     1      47.395   3.897  15.182  0.00  0.00    +0.000 C 
BRANCH  16  20
ATOM     17  C   UNL     1      48.638   4.397  19.290  0.00  0.00    +0.000 A 
ATOM     18  C   UNL     1      48.511   5.519  18.465  0.00  0.00    +0.000 A 
ATOM     19  C   UNL     1      48.116   5.365  17.132  0.00  0.00    +0.000 A 
ATOM     20  C   UNL     1      47.863   4.092  16.607  0.00  0.00    +0.000 A 
ATOM     21  C   UNL     1      47.985   2.974  17.444  0.00  0.00    +0.000 A 
ATOM     22  C   UNL     1      48.381   3.124  18.775  0.00  0.00    +0.000 A 
BRANCH  17  24
ATOM     23  N   UNL     1      50.399   4.637  20.957  0.00  0.00    +0.000 N 
ATOM     24  C   UNL     1      49.061   4.510  20.709  0.00  0.00    +0.000 C 
ATOM     25  O   UNL     1      48.246   4.530  21.624  0.00  0.00    +0.000 OA
ATOM     26  H   UNL     1      50.657   4.825  21.916  0.00  0.00    +0.000 HD
ATOM     27  H   UNL     1      51.058   4.887  20.234  0.00  0.00    +0.000 HD
ENDBRANCH  17  24
ENDBRANCH  16  20
ENDBRANCH  15  16
ENDBRANCH   1  15
TORSDOF 5
ENDMDL
MODEL 6
REMARK VINA RESULT:    -6.406      4.465      6.142
REMARK INTER + INTRA:          -9.065
REMARK INTER:                  -8.128
REMARK INTRA:                  -0.938
REMARK UNBOUND:                -0.787
REMARK  Name = 
REMARK  5 active torsions:
REMARK  status: ('A' for Active; 'I' for Inactive)
REMARK    1  A    between atoms: C_2  and  C_4
REMARK    2  A    between atoms: C_7  and  C_8
REMARK    3  A    between atoms: C_8  and  O_9
REMARK    4  A    between atoms: O_9  and  C_10
REMARK    5  A    between atoms: C_15  and  C_16
REMARK                            x       y       z     vdW  Elec       q    Type
REMARK                         _______ _______ _______ _____ _____    ______ ____
ROOT
ATOM      1  C   UNL     1      48.598   8.182  14.688  0.00  0.00    +0.000 A 
ATOM      2  C   UNL     1      48.182   9.366  15.287  0.00  0.00    +0.000 A 
ATOM      3  C   UNL     1      48.163   9.456  16.670  0.00  0.00    +0.000 A 
ATOM      4  F   UNL     1      47.778  10.602  17.247  0.00  0.00    +0.000 F 
ATOM      5  C   UNL     1      48.520   8.379  17.473  0.00  0.00    +0.000 A 
ATOM      6  C   UNL     1      48.882   7.152  16.902  0.00  0.00    +0.000 A 
ATOM      7  C   UNL     1      48.957   7.092  15.496  0.00  0.00    +0.000 A 
ENDROOT
BRANCH   6   8
ATOM      8  C   UNL     1      49.186   5.901  17.725  0.00  0.00    +0.000 C 
ATOM      9  C   UNL     1      48.863   4.605  16.951  0.00  0.00    +0.000 C 
ATOM     10  C   UNL     1      47.358   4.344  16.887  0.00  0.00    +0.000 C 
ATOM     11  N   UNL     1      46.767   4.244  18.222  0.00  0.00    +0.000 NA
ATOM     12  C   UNL     1      47.011   5.451  19.008  0.00  0.00    +0.000 C 
ATOM     13  C   UNL     1      48.501   5.804  19.105  0.00  0.00    +0.000 C 
ATOM     14  H   UNL     1      47.167   3.441  18.707  0.00  0.00    +0.000 HD
ENDBRANCH   6   8
BRANCH   1  15
ATOM     15  O   UNL     1      48.690   7.958  13.341  0.00  0.00    +0.000 OA
BRANCH  15  16
ATOM     16  C   UNL     1      48.546   6.601  12.918  0.00  0.00    +0.000 C 
BRANCH  16  20
ATOM     17  C   UNL     1      44.451   5.575  11.994  0.00  0.00    +0.000 A 
ATOM     18  C   UNL     1      45.024   6.717  11.423  0.00  0.00    +0.000 A 
ATOM     19  C   UNL     1      46.347   7.060  11.723  0.00  0.00    +0.000 A 
ATOM     20  C   UNL     1      47.102   6.279  12.607  0.00  0.00    +0.000 A 
ATOM     21  C   UNL     1      46.522   5.132  13.167  0.00  0.00    +0.000 A 
ATOM     22  C   UNL     1      45.201   4.788  12.872  0.00  0.00    +0.000 A 
BRANCH  17  24
ATOM     23  N   UNL     1      42.096   6.153  11.758  0.00  0.00    +0.000 N 
ATOM     24  C   UNL     1      43.049   5.175  11.711  0.00  0.00    +0.000 C 
ATOM     25  O   UNL     1      42.757   4.025  11.408  0.00  0.00    +0.000 OA
ATOM     26  H   UNL     1      41.170   5.886  11.454  0.00  0.00    +0.000 HD
ATOM     27  H   UNL     1      42.332   7.135  11.740  0.00  0.00    +0.000 HD
ENDBRANCH  17  24
ENDBRANCH  16  20
ENDBRANCH  15  16
ENDBRANCH   1  15
TORSDOF 5
ENDMDL
MODEL 7
REMARK VINA RESULT:    -6.259      3.891      5.886
REMARK INTER + INTRA:          -8.875
REMARK INTER:                  -8.467
REMARK INTRA:                  -0.408
REMARK UNBOUND:                -0.787
REMARK  Name = 
REMARK  5 active torsions:
REMARK  status: ('A' for Active; 'I' for Inactive)
REMARK    1  A    between atoms: C_2  and  C_4
REMARK    2  A    between atoms: C_7  and  C_8
REMARK    3  A    between atoms: C_8  and  O_9
REMARK    4  A    between atoms: O_9  and  C_10
REMARK    5  A    between atoms: C_15  and  C_16
REMARK                            x       y       z     vdW  Elec       q    Type
REMARK                         _______ _______ _______ _____ _____    ______ ____
ROOT
ATOM      1  C   UNL     1      48.592   6.903  15.266  0.00  0.00    +0.000 A 
ATOM      2  C   UNL     1      48.819   8.068  15.989  0.00  0.00    +0.000 A 
ATOM      3  C   UNL     1      48.945   7.997  17.367  0.00  0.00    +0.000 A 
ATOM      4  F   UNL     1      49.180   9.118  18.062  0.00  0.00    +0.000 F 
ATOM      5  C   UNL     1      48.818   6.791  18.047  0.00  0.00    +0.000 A 
ATOM      6  C   UNL     1      48.525   5.610  17.356  0.00  0.00    +0.000 A 
ATOM      7  C   UNL     1      48.461   5.684  15.949  0.00  0.00    +0.000 A 
ENDROOT
BRANCH   6   8
ATOM      8  C   UNL     1      48.273   4.272  18.049  0.00  0.00    +0.000 C 
ATOM      9  C   UNL     1      49.587   3.586  18.484  0.00  0.00    +0.000 C 
ATOM     10  C   UNL     1      50.323   2.969  17.295  0.00  0.00    +0.000 C 
ATOM     11  N   UNL     1      49.497   1.983  16.597  0.00  0.00    +0.000 NA
ATOM     12  C   UNL     1      48.241   2.568  16.132  0.00  0.00    +0.000 C 
ATOM     13  C   UNL     1      47.445   3.235  17.261  0.00  0.00    +0.000 C 
ATOM     14  H   UNL     1      49.293   1.209  17.228  0.00  0.00    +0.000 HD
ENDBRANCH   6   8
BRANCH   1  15
ATOM     15  O   UNL     1      48.470   6.819  13.905  0.00  0.00    +0.000 OA
BRANCH  15  16
ATOM     16  C   UNL     1      47.274   7.365  13.346  0.00  0.00    +0.000 C 
BRANCH  16  20
ATOM     17  C   UNL     1      44.972   4.208  11.499  0.00  0.00    +0.000 A 
ATOM     18  C   UNL     1      45.341   5.327  10.744  0.00  0.00    +0.000 A 
ATOM     19  C   UNL     1      46.080   6.357  11.337  0.00  0.00    +0.000 A 
ATOM     20  C   UNL     1      46.440   6.288  12.689  0.00  0.00    +0.000 A 
ATOM     21  C   UNL     1      46.073   5.158  13.434  0.00  0.00    +0.000 A 
ATOM     22  C   UNL     1      45.334   4.130  12.846  0.00  0.00    +0.000 A 
BRANCH  17  24
ATOM     23  N   UNL     1      44.784   2.335   9.952  0.00  0.00    +0.000 N 
ATOM     24  C   UNL     1      44.182   3.094  10.915  0.00  0.00    +0.000 C 
ATOM     25  O   UNL     1      43.050   2.835  11.306  0.00  0.00    +0.000 OA
ATOM     26  H   UNL     1      44.275   1.516   9.649  0.00  0.00    +0.000 HD
ATOM     27  H   UNL     1      45.782   2.351   9.800  0.00  0.00    +0.000 HD
ENDBRANCH  17  24
ENDBRANCH  16  20
ENDBRANCH  15  16
ENDBRANCH   1  15
TORSDOF 5
ENDMDL
MODEL 8
REMARK VINA RESULT:    -6.224      4.490      6.489
REMARK INTER + INTRA:          -8.830
REMARK INTER:                  -8.614
REMARK INTRA:                  -0.216
REMARK UNBOUND:                -0.787
REMARK  Name = 
REMARK  5 active torsions:
REMARK  status: ('A' for Active; 'I' for Inactive)
REMARK    1  A    between atoms: C_2  and  C_4
REMARK    2  A    between atoms: C_7  and  C_8
REMARK    3  A    between atoms: C_8  and  O_9
REMARK    4  A    between atoms: O_9  and  C_10
REMARK    5  A    between atoms: C_15  and  C_16
REMARK                            x       y       z     vdW  Elec       q    Type
REMARK                         _______ _______ _______ _____ _____    ______ ____
ROOT
ATOM      1  C   UNL     1      49.460   6.981  15.236  0.00  0.00    +0.000 A 
ATOM      2  C   UNL     1      50.774   7.434  15.213  0.00  0.00    +0.000 A 
ATOM      3  C   UNL     1      51.696   6.886  16.090  0.00  0.00    +0.000 A 
ATOM      4  F   UNL     1      52.966   7.310  16.056  0.00  0.00    +0.000 F 
ATOM      5  C   UNL     1      51.330   5.914  17.015  0.00  0.00    +0.000 A 
ATOM      6  C   UNL     1      50.001   5.483  17.109  0.00  0.00    +0.000 A 
ATOM      7  C   UNL     1      49.087   6.003  16.170  0.00  0.00    +0.000 A 
ENDROOT
BRANCH   6   8
ATOM      8  C   UNL     1      49.512   4.497  18.168  0.00  0.00    +0.000 C 
ATOM      9  C   UNL     1      49.372   3.065  17.607  0.00  0.00    +0.000 C 
ATOM     10  C   UNL     1      48.132   2.921  16.725  0.00  0.00    +0.000 C 
ATOM     11  N   UNL     1      46.907   3.253  17.454  0.00  0.00    +0.000 NA
ATOM     12  C   UNL     1      46.955   4.610  17.994  0.00  0.00    +0.000 C 
ATOM     13  C   UNL     1      48.187   4.851  18.876  0.00  0.00    +0.000 C 
ATOM     14  H   UNL     1      46.781   2.590  18.218  0.00  0.00    +0.000 HD
ENDBRANCH   6   8
BRANCH   1  15
ATOM     15  O   UNL     1      48.452   7.413  14.416  0.00  0.00    +0.000 OA
BRANCH  15  16
ATOM     16  C   UNL     1      48.436   6.862  13.098  0.00  0.00    +0.000 C 
BRANCH  16  20
ATOM     17  C   UNL     1      44.461   5.484  12.109  0.00  0.00    +0.000 A 
ATOM     18  C   UNL     1      45.214   4.795  13.067  0.00  0.00    +0.000 A 
ATOM     19  C   UNL     1      46.504   5.231  13.387  0.00  0.00    +0.000 A 
ATOM     20  C   UNL     1      47.060   6.344  12.744  0.00  0.00    +0.000 A 
ATOM     21  C   UNL     1      46.295   7.031  11.792  0.00  0.00    +0.000 A 
ATOM     22  C   UNL     1      45.008   6.598  11.468  0.00  0.00    +0.000 A 
BRANCH  17  24
ATOM     23  N   UNL     1      42.112   6.008  11.731  0.00  0.00    +0.000 N 
ATOM     24  C   UNL     1      43.091   5.055  11.731  0.00  0.00    +0.000 C 
ATOM     25  O   UNL     1      42.848   3.903  11.392  0.00  0.00    +0.000 OA
ATOM     26  H   UNL     1      41.215   5.724  11.364  0.00  0.00    +0.000 HD
ATOM     27  H   UNL     1      42.324   6.996  11.744  0.00  0.00    +0.000 HD
ENDBRANCH  17  24
ENDBRANCH  16  20
ENDBRANCH  15  16
ENDBRANCH   1  15
TORSDOF 5
ENDMDL
MODEL 9
REMARK VINA RESULT:    -6.212      4.143      8.564
REMARK INTER + INTRA:          -8.814
REMARK INTER:                  -7.984
REMARK INTRA:                  -0.830
REMARK UNBOUND:                -0.787
REMARK  Name = 
REMARK  5 active torsions:
REMARK  status: ('A' for Active; 'I' for Inactive)
REMARK    1  A    between atoms: C_2  and  C_4
REMARK    2  A    between atoms: C_7  and  C_8
REMARK    3  A    between atoms: C_8  and  O_9
REMARK    4  A    between atoms: O_9  and  C_10
REMARK    5  A    between atoms: C_15  and  C_16
REMARK                            x       y       z     vdW  Elec       q    Type
REMARK                         _______ _______ _______ _____ _____    ______ ____
ROOT
ATOM      1  C   UNL     1      47.841   6.772  13.115  0.00  0.00    +0.000 A 
ATOM      2  C   UNL     1      47.378   7.949  12.538  0.00  0.00    +0.000 A 
ATOM      3  C   UNL     1      46.026   8.083  12.261  0.00  0.00    +0.000 A 
ATOM      4  F   UNL     1      45.578   9.224  11.720  0.00  0.00    +0.000 F 
ATOM      5  C   UNL     1      45.127   7.055  12.520  0.00  0.00    +0.000 A 
ATOM      6  C   UNL     1      45.570   5.833  13.040  0.00  0.00    +0.000 A 
ATOM      7  C   UNL     1      46.936   5.732  13.374  0.00  0.00    +0.000 A 
ENDROOT
BRANCH   6   8
ATOM      8  C   UNL     1      44.653   4.630  13.252  0.00  0.00    +0.000 C 
ATOM      9  C   UNL     1      45.106   3.403  12.430  0.00  0.00    +0.000 C 
ATOM     10  C   UNL     1      44.764   3.557  10.948  0.00  0.00    +0.000 C 
ATOM     11  N   UNL     1      43.328   3.747  10.739  0.00  0.00    +0.000 NA
ATOM     12  C   UNL     1      42.830   4.911  11.469  0.00  0.00    +0.000 C 
ATOM     13  C   UNL     1      43.152   4.852  12.968  0.00  0.00    +0.000 C 
ATOM     14  H   UNL     1      42.830   2.915  11.053  0.00  0.00    +0.000 HD
ENDBRANCH   6   8
BRANCH   1  15
ATOM     15  O   UNL     1      49.139   6.510  13.462  0.00  0.00    +0.000 OA
BRANCH  15  16
ATOM     16  C   UNL     1      49.766   7.468  14.317  0.00  0.00    +0.000 C 
BRANCH  16  20
ATOM     17  C   UNL     1      48.198   7.072  18.324  0.00  0.00    +0.000 A 
ATOM     18  C   UNL     1      48.210   8.327  17.708  0.00  0.00    +0.000 A 
ATOM     19  C   UNL     1      48.723   8.465  16.414  0.00  0.00    +0.000 A 
ATOM     20  C   UNL     1      49.243   7.358  15.732  0.00  0.00    +0.000 A 
ATOM     21  C   UNL     1      49.218   6.102  16.355  0.00  0.00    +0.000 A 
ATOM     22  C   UNL     1      48.709   5.961  17.648  0.00  0.00    +0.000 A 
BRANCH  17  24
ATOM     23  N   UNL     1      47.142   5.654  20.001  0.00  0.00    +0.000 N 
ATOM     24  C   UNL     1      47.671   6.877  19.699  0.00  0.00    +0.000 C 
ATOM     25  O   UNL     1      47.741   7.759  20.546  0.00  0.00    +0.000 OA
ATOM     26  H   UNL     1      46.892   5.504  20.969  0.00  0.00    +0.000 HD
ATOM     27  H   UNL     1      47.307   4.840  19.427  0.00  0.00    +0.000 HD
ENDBRANCH  17  24
ENDBRANCH  16  20
ENDBRANCH  15  16
ENDBRANCH   1  15
TORSDOF 5
ENDMDL
