MODEL 1
REMARK VINA RESULT:    -8.399      0.000      0.000
REMARK INTER + INTRA:         -12.479
REMARK INTER:                 -11.590
REMARK INTRA:                  -0.889
REMARK UNBOUND:                -0.889
REMARK  Name = 
REMARK  7 active torsions:
REMARK  status: ('A' for Active; 'I' for Inactive)
REMARK    1  A    between atoms: N_1  and  C_2
REMARK    2  A    between atoms: C_2  and  N_3
REMARK    3  A    between atoms: C_2  and  C_16
REMARK    4  A    between atoms: C_4  and  C_6
REMARK    5  A    between atoms: C_19  and  O_20
REMARK    6  A    between atoms: O_20  and  C_21
REMARK    7  A    between atoms: C_21  and  C_22
REMARK                            x       y       z     vdW  Elec       q    Type
REMARK                         _______ _______ _______ _____ _____    ______ ____
ROOT
ATOM      1  C   UNL     1      46.419   7.605  12.797  0.00  0.00    +0.000 C 
ENDROOT
BRANCH   1   2
ATOM      2  C   UNL     1      45.923   6.478  11.910  0.00  0.00    +0.000 A 
ATOM      3  C   UNL     1      45.003   5.522  12.375  0.00  0.00    +0.000 A 
ATOM      4  C   UNL     1      44.480   4.549  11.519  0.00  0.00    +0.000 A 
ATOM      5  C   UNL     1      44.848   4.528  10.174  0.00  0.00    +0.000 A 
ATOM      6  C   UNL     1      45.795   5.437   9.709  0.00  0.00    +0.000 A 
ATOM      7  C   UNL     1      46.302   6.418  10.560  0.00  0.00    +0.000 A 
BRANCH   5   8
ATOM      8  O   UNL     1      44.215   3.598   9.394  0.00  0.00    +0.000 OA
BRANCH   8   9
ATOM      9  C   UNL     1      44.818   2.298   9.421  0.00  0.00    +0.000 C 
BRANCH   9  10
ATOM     10  C   UNL     1      45.705   2.101   8.219  0.00  0.00    +0.000 A 
ATOM     11  C   UNL     1      45.845   3.125   7.282  0.00  0.00    +0.000 A 
ATOM     12  C   UNL     1      46.728   2.947   6.223  0.00  0.00    +0.000 A 
ATOM     13  C   UNL     1      47.445   1.762   6.130  0.00  0.00    +0.000 A 
ATOM     14  C   UNL     1      47.252   0.799   7.101  0.00  0.00    +0.000 A 
ATOM     15  N   UNL     1      46.408   0.943   8.145  0.00  0.00    +0.000 NA
ENDBRANCH   9  10
ENDBRANCH   8   9
ENDBRANCH   5   8
ENDBRANCH   1   2
BRANCH   1  16
ATOM     16  N   UNL     1      46.980   7.130  14.023  0.00  0.00    +0.000 N 
ATOM     17  C   UNL     1      48.267   6.660  14.106  0.00  0.00    +0.000 C 
ATOM     18  O   UNL     1      49.035   6.675  13.149  0.00  0.00    +0.000 OA
ATOM     19  H   UNL     1      46.321   6.894  14.755  0.00  0.00    +0.000 HD
BRANCH  17  20
ATOM     20  C   UNL     1      48.712   6.200  15.425  0.00  0.00    +0.000 A 
ATOM     21  C   UNL     1      49.736   6.882  16.071  0.00  0.00    +0.000 A 
ATOM     22  S   UNL     1      50.100   6.265  17.618  0.00  0.00    +0.000 S 
ATOM     23  C   UNL     1      48.944   5.027  17.456  0.00  0.00    +0.000 A 
ATOM     24  N   UNL     1      48.760   4.111  18.444  0.00  0.00    +0.000 NA
ATOM     25  C   UNL     1      47.884   3.201  18.171  0.00  0.00    +0.000 A 
ATOM     26  N   UNL     1      47.171   3.131  17.001  0.00  0.00    +0.000 N 
ATOM     27  C   UNL     1      47.285   4.066  16.000  0.00  0.00    +0.000 A 
ATOM     28  O   UNL     1      46.578   4.026  15.000  0.00  0.00    +0.000 OA
ATOM     29  C   UNL     1      48.276   5.095  16.246  0.00  0.00    +0.000 A 
ATOM     30  H   UNL     1      46.490   2.398  16.857  0.00  0.00    +0.000 HD
ENDBRANCH  17  20
ENDBRANCH   1  16
BRANCH   1  31
ATOM     31  N   UNL     1      45.352   8.465  13.263  0.00  0.00    +0.000 NA
ATOM     32  H   UNL     1      45.364   9.291  12.668  0.00  0.00    +0.000 HD
ATOM     33  H   UNL     1      45.601   8.787  14.194  0.00  0.00    +0.000 HD
ENDBRANCH   1  31
TORSDOF 7
ENDMDL
MODEL 2
REMARK VINA RESULT:    -8.172      0.974      1.476
REMARK INTER + INTRA:         -12.166
REMARK INTER:                 -11.234
REMARK INTRA:                  -0.932
REMARK UNBOUND:                -0.889
REMARK  Name = 
REMARK  7 active torsions:
REMARK  status: ('A' for Active; 'I' for Inactive)
REMARK    1  A    between atoms: N_1  and  C_2
REMARK    2  A    between atoms: C_2  and  N_3
REMARK    3  A    between atoms: C_2  and  C_16
REMARK    4  A    between atoms: C_4  and  C_6
REMARK    5  A    between atoms: C_19  and  O_20
REMARK    6  A    between atoms: O_20  and  C_21
REMARK    7  A    between atoms: C_21  and  C_22
REMARK                            x       y       z     vdW  Elec       q    Type
REMARK                         _______ _______ _______ _____ _____    ______ ____
ROOT
ATOM      1  C   UNL     1      47.015   7.622  13.248  0.00  0.00    +0.000 C 
ENDROOT
BRANCH   1   2
ATOM      2  C   UNL     1      46.221   6.592  12.466  0.00  0.00    +0.000 A 
ATOM      3  C   UNL     1      46.160   6.618  11.062  0.00  0.00    +0.000 A 
ATOM      4  C   UNL     1      45.506   5.607  10.351  0.00  0.00    +0.000 A 
ATOM      5  C   UNL     1      44.922   4.538  11.029  0.00  0.00    +0.000 A 
ATOM      6  C   UNL     1      44.932   4.524  12.422  0.00  0.00    +0.000 A 
ATOM      7  C   UNL     1      45.599   5.523  13.129  0.00  0.00    +0.000 A 
BRANCH   5   8
ATOM      8  O   UNL     1      44.386   3.552  10.246  0.00  0.00    +0.000 OA
BRANCH   8   9
ATOM      9  C   UNL     1      44.446   3.820   8.839  0.00  0.00    +0.000 C 
BRANCH   9  10
ATOM     10  C   UNL     1      45.585   3.063   8.204  0.00  0.00    +0.000 A 
ATOM     11  C   UNL     1      45.735   1.697   8.446  0.00  0.00    +0.000 A 
ATOM     12  C   UNL     1      46.747   1.007   7.789  0.00  0.00    +0.000 A 
ATOM     13  C   UNL     1      47.575   1.694   6.912  0.00  0.00    +0.000 A 
ATOM     14  C   UNL     1      47.359   3.045   6.723  0.00  0.00    +0.000 A 
ATOM     15  N   UNL     1      46.381   3.742   7.340  0.00  0.00    +0.000 NA
ENDBRANCH   9  10
ENDBRANCH   8   9
ENDBRANCH   5   8
ENDBRANCH   1   2
BRANCH   1  16
ATOM     16  N   UNL     1      47.449   7.131  14.519  0.00  0.00    +0.000 N 
ATOM     17  C   UNL     1      48.752   6.773  14.759  0.00  0.00    +0.000 C 
ATOM     18  O   UNL     1      49.637   6.912  13.921  0.00  0.00    +0.000 OA
ATOM     19  H   UNL     1      46.722   6.796  15.140  0.00  0.00    +0.000 HD
BRANCH  17  20
ATOM     20  C   UNL     1      49.057   6.281  16.107  0.00  0.00    +0.000 A 
ATOM     21  C   UNL     1      49.865   7.044  16.940  0.00  0.00    +0.000 A 
ATOM     22  S   UNL     1      50.080   6.369  18.491  0.00  0.00    +0.000 S 
ATOM     23  C   UNL     1      49.150   5.004  18.085  0.00  0.00    +0.000 A 
ATOM     24  N   UNL     1      48.954   4.001  18.982  0.00  0.00    +0.000 NA
ATOM     25  C   UNL     1      48.268   3.006  18.528  0.00  0.00    +0.000 A 
ATOM     26  N   UNL     1      47.754   2.927  17.259  0.00  0.00    +0.000 N 
ATOM     27  C   UNL     1      47.881   3.940  16.338  0.00  0.00    +0.000 A 
ATOM     28  O   UNL     1      47.343   3.880  15.239  0.00  0.00    +0.000 OA
ATOM     29  C   UNL     1      48.666   5.071  16.790  0.00  0.00    +0.000 A 
ATOM     30  H   UNL     1      47.214   2.122  16.972  0.00  0.00    +0.000 HD
ENDBRANCH  17  20
ENDBRANCH   1  16
BRANCH   1  31
ATOM     31  N   UNL     1      46.226   8.777  13.621  0.00  0.00    +0.000 NA
ATOM     32  H   UNL     1      46.774   9.295  14.303  0.00  0.00    +0.000 HD
ATOM     33  H   UNL     1      45.405   8.442  14.116  0.00  0.00    +0.000 HD
ENDBRANCH   1  31
TORSDOF 7
ENDMDL
MODEL 3
REMARK VINA RESULT:    -7.798      1.864      2.373
REMARK INTER + INTRA:         -11.650
REMARK INTER:                 -10.674
REMARK INTRA:                  -0.976
REMARK UNBOUND:                -0.889
REMARK  Name = 
REMARK  7 active torsions:
REMARK  status: ('A' for Active; 'I' for Inactive)
REMARK    1  A    between atoms: N_1  and  C_2
REMARK    2  A    between atoms: C_2  and  N_3
REMARK    3  A    between atoms: C_2  and  C_16
REMARK    4  A    between atoms: C_4  and  C_6
REMARK    5  A    between atoms: C_19  and  O_20
REMARK    6  A    between atoms: O_20  and  C_21
REMARK    7  A    between atoms: C_21  and  C_22
REMARK                            x       y       z     vdW  Elec       q    Type
REMARK                         _______ _______ _______ _____ _____    ______ ____
ROOT
ATOM      1  C   UNL     1      48.322   6.637  13.647  0.00  0.00    +0.000 C 
ENDROOT
BRANCH   1   2
ATOM      2  C   UNL     1      47.137   6.060  12.894  0.00  0.00    +0.000 A 
ATOM      3  C   UNL     1      46.571   6.723  11.791  0.00  0.00    +0.000 A 
ATOM      4  C   UNL     1      45.544   6.133  11.047  0.00  0.00    +0.000 A 
ATOM      5  C   UNL     1      45.080   4.861  11.377  0.00  0.00    +0.000 A 
ATOM      6  C   UNL     1      45.597   4.213  12.496  0.00  0.00    +0.000 A 
ATOM      7  C   UNL     1      46.633   4.794  13.227  0.00  0.00    +0.000 A 
BRANCH   5   8
ATOM      8  O   UNL     1      44.139   4.329  10.537  0.00  0.00    +0.000 OA
BRANCH   8   9
ATOM      9  C   UNL     1      44.318   2.934  10.261  0.00  0.00    +0.000 C 
BRANCH   9  10
ATOM     10  C   UNL     1      45.172   2.742   9.034  0.00  0.00    +0.000 A 
ATOM     11  C   UNL     1      45.428   3.821   8.188  0.00  0.00    +0.000 A 
ATOM     12  C   UNL     1      46.280   3.637   7.106  0.00  0.00    +0.000 A 
ATOM     13  C   UNL     1      46.853   2.389   6.900  0.00  0.00    +0.000 A 
ATOM     14  C   UNL     1      46.553   1.373   7.786  0.00  0.00    +0.000 A 
ATOM     15  N   UNL     1      45.735   1.522   8.850  0.00  0.00    +0.000 NA
ENDBRANCH   9  10
ENDBRANCH   8   9
ENDBRANCH   5   8
ENDBRANCH   1   2
BRANCH   1  16
ATOM     16  N   UNL     1      48.082   6.737  15.053  0.00  0.00    +0.000 N 
ATOM     17  C   UNL     1      49.087   6.607  15.978  0.00  0.00    +0.000 C 
ATOM     18  O   UNL     1      50.262   6.461  15.655  0.00  0.00    +0.000 OA
ATOM     19  H   UNL     1      47.120   6.629  15.352  0.00  0.00    +0.000 HD
BRANCH  17  20
ATOM     20  C   UNL     1      48.700   6.728  17.387  0.00  0.00    +0.000 A 
ATOM     21  C   UNL     1      48.219   7.944  17.857  0.00  0.00    +0.000 A 
ATOM     22  S   UNL     1      47.756   7.910  19.497  0.00  0.00    +0.000 S 
ATOM     23  C   UNL     1      48.238   6.286  19.655  0.00  0.00    +0.000 A 
ATOM     24  N   UNL     1      48.129   5.638  20.846  0.00  0.00    +0.000 NA
ATOM     25  C   UNL     1      48.573   4.426  20.836  0.00  0.00    +0.000 A 
ATOM     26  N   UNL     1      49.110   3.800  19.741  0.00  0.00    +0.000 N 
ATOM     27  C   UNL     1      49.190   4.398  18.505  0.00  0.00    +0.000 A 
ATOM     28  O   UNL     1      49.599   3.790  17.523  0.00  0.00    +0.000 OA
ATOM     29  C   UNL     1      48.727   5.771  18.468  0.00  0.00    +0.000 A 
ATOM     30  H   UNL     1      49.428   2.843  19.799  0.00  0.00    +0.000 HD
ENDBRANCH  17  20
ENDBRANCH   1  16
BRANCH   1  31
ATOM     31  N   UNL     1      48.602   8.011  13.287  0.00  0.00    +0.000 NA
ATOM     32  H   UNL     1      47.793   8.347  12.770  0.00  0.00    +0.000 HD
ATOM     33  H   UNL     1      49.375   8.005  12.628  0.00  0.00    +0.000 HD
ENDBRANCH   1  31
TORSDOF 7
ENDMDL
MODEL 4
REMARK VINA RESULT:    -7.786      2.136      2.559
REMARK INTER + INTRA:         -11.634
REMARK INTER:                 -10.529
REMARK INTRA:                  -1.105
REMARK UNBOUND:                -0.889
REMARK  Name = 
REMARK  7 active torsions:
REMARK  status: ('A' for Active; 'I' for Inactive)
REMARK    1  A    between atoms: N_1  and  C_2
REMARK    2  A    between atoms: C_2  and  N_3
REMARK    3  A    between atoms: C_2  and  C_16
REMARK    4  A    between atoms: C_4  and  C_6
REMARK    5  A    between atoms: C_19  and  O_20
REMARK    6  A    between atoms: O_20  and  C_21
REMARK    7  A    between atoms: C_21  and  C_22
REMARK                            x       y       z     vdW  Elec       q    Type
REMARK                         _______ _______ _______ _____ _____    ______ ____
ROOT
ATOM      1  C   UNL     1      47.708   6.784  13.728  0.00  0.00    +0.000 C 
ENDROOT
BRANCH   1   2
ATOM      2  C   UNL     1      46.869   5.993  12.742  0.00  0.00    +0.000 A 
ATOM      3  C   UNL     1      46.267   4.774  13.098  0.00  0.00    +0.000 A 
ATOM      4  C   UNL     1      45.416   4.106  12.212  0.00  0.00    +0.000 A 
ATOM      5  C   UNL     1      45.134   4.655  10.962  0.00  0.00    +0.000 A 
ATOM      6  C   UNL     1      45.761   5.838  10.577  0.00  0.00    +0.000 A 
ATOM      7  C   UNL     1      46.594   6.512  11.468  0.00  0.00    +0.000 A 
BRANCH   5   8
ATOM      8  O   UNL     1      44.220   3.977  10.202  0.00  0.00    +0.000 OA
BRANCH   8   9
ATOM      9  C   UNL     1      44.353   4.192   8.790  0.00  0.00    +0.000 C 
BRANCH   9  10
ATOM     10  C   UNL     1      45.354   3.231   8.201  0.00  0.00    +0.000 A 
ATOM     11  C   UNL     1      46.344   3.699   7.338  0.00  0.00    +0.000 A 
ATOM     12  C   UNL     1      47.301   2.807   6.869  0.00  0.00    +0.000 A 
ATOM     13  C   UNL     1      47.246   1.480   7.273  0.00  0.00    +0.000 A 
ATOM     14  C   UNL     1      46.236   1.096   8.134  0.00  0.00    +0.000 A 
ATOM     15  N   UNL     1      45.296   1.939   8.612  0.00  0.00    +0.000 NA
ENDBRANCH   9  10
ENDBRANCH   8   9
ENDBRANCH   5   8
ENDBRANCH   1   2
BRANCH   1  16
ATOM     16  N   UNL     1      47.713   6.203  15.035  0.00  0.00    +0.000 N 
ATOM     17  C   UNL     1      48.735   6.414  15.926  0.00  0.00    +0.000 C 
ATOM     18  O   UNL     1      49.675   7.164  15.682  0.00  0.00    +0.000 OA
ATOM     19  H   UNL     1      47.087   5.419  15.177  0.00  0.00    +0.000 HD
BRANCH  17  20
ATOM     20  C   UNL     1      48.613   5.753  17.230  0.00  0.00    +0.000 A 
ATOM     21  C   UNL     1      48.876   4.393  17.328  0.00  0.00    +0.000 A 
ATOM     22  S   UNL     1      48.749   3.784  18.915  0.00  0.00    +0.000 S 
ATOM     23  C   UNL     1      48.278   5.303  19.518  0.00  0.00    +0.000 A 
ATOM     24  N   UNL     1      47.987   5.471  20.836  0.00  0.00    +0.000 NA
ATOM     25  C   UNL     1      47.600   6.663  21.149  0.00  0.00    +0.000 A 
ATOM     26  N   UNL     1      47.485   7.703  20.264  0.00  0.00    +0.000 N 
ATOM     27  C   UNL     1      47.822   7.593  18.935  0.00  0.00    +0.000 A 
ATOM     28  O   UNL     1      47.788   8.559  18.182  0.00  0.00    +0.000 OA
ATOM     29  C   UNL     1      48.238   6.267  18.526  0.00  0.00    +0.000 A 
ATOM     30  H   UNL     1      47.188   8.617  20.579  0.00  0.00    +0.000 HD
ENDBRANCH  17  20
ENDBRANCH   1  16
BRANCH   1  31
ATOM     31  N   UNL     1      47.178   8.107  13.985  0.00  0.00    +0.000 NA
ATOM     32  H   UNL     1      46.340   8.199  13.416  0.00  0.00    +0.000 HD
ATOM     33  H   UNL     1      47.842   8.781  13.618  0.00  0.00    +0.000 HD
ENDBRANCH   1  31
TORSDOF 7
ENDMDL
MODEL 5
REMARK VINA RESULT:    -7.574      2.194      3.869
REMARK INTER + INTRA:         -11.341
REMARK INTER:                 -10.020
REMARK INTRA:                  -1.321
REMARK UNBOUND:                -0.889
REMARK  Name = 
REMARK  7 active torsions:
REMARK  status: ('A' for Active; 'I' for Inactive)
REMARK    1  A    between atoms: N_1  and  C_2
REMARK    2  A    between atoms: C_2  and  N_3
REMARK    3  A    between atoms: C_2  and  C_16
REMARK    4  A    between atoms: C_4  and  C_6
REMARK    5  A    between atoms: C_19  and  O_20
REMARK    6  A    between atoms: O_20  and  C_21
REMARK    7  A    between atoms: C_21  and  C_22
REMARK                            x       y       z     vdW  Elec       q    Type
REMARK                         _______ _______ _______ _____ _____    ______ ____
ROOT
ATOM      1  C   UNL     1      46.674   4.742  14.416  0.00  0.00    +0.000 C 
ENDROOT
BRANCH   1   2
ATOM      2  C   UNL     1      45.964   4.627  13.080  0.00  0.00    +0.000 A 
ATOM      3  C   UNL     1      46.009   5.660  12.128  0.00  0.00    +0.000 A 
ATOM      4  C   UNL     1      45.433   5.502  10.864  0.00  0.00    +0.000 A 
ATOM      5  C   UNL     1      44.821   4.297  10.519  0.00  0.00    +0.000 A 
ATOM      6  C   UNL     1      44.726   3.282  11.467  0.00  0.00    +0.000 A 
ATOM      7  C   UNL     1      45.316   3.435  12.721  0.00  0.00    +0.000 A 
BRANCH   5   8
ATOM      8  O   UNL     1      44.368   4.203   9.231  0.00  0.00    +0.000 OA
BRANCH   8   9
ATOM      9  C   UNL     1      44.436   2.882   8.679  0.00  0.00    +0.000 C 
BRANCH   9  10
ATOM     10  C   UNL     1      45.711   2.700   7.896  0.00  0.00    +0.000 A 
ATOM     11  C   UNL     1      46.406   1.493   7.967  0.00  0.00    +0.000 A 
ATOM     12  C   UNL     1      47.537   1.323   7.177  0.00  0.00    +0.000 A 
ATOM     13  C   UNL     1      47.939   2.355   6.341  0.00  0.00    +0.000 A 
ATOM     14  C   UNL     1      47.194   3.518   6.324  0.00  0.00    +0.000 A 
ATOM     15  N   UNL     1      46.088   3.711   7.074  0.00  0.00    +0.000 NA
ENDBRANCH   9  10
ENDBRANCH   8   9
ENDBRANCH   5   8
ENDBRANCH   1   2
BRANCH   1  16
ATOM     16  N   UNL     1      47.660   5.777  14.425  0.00  0.00    +0.000 N 
ATOM     17  C   UNL     1      48.356   6.115  15.558  0.00  0.00    +0.000 C 
ATOM     18  O   UNL     1      48.221   5.510  16.617  0.00  0.00    +0.000 OA
ATOM     19  H   UNL     1      47.630   6.431  13.651  0.00  0.00    +0.000 HD
BRANCH  17  20
ATOM     20  C   UNL     1      49.335   7.199  15.426  0.00  0.00    +0.000 A 
ATOM     21  C   UNL     1      50.609   7.030  15.952  0.00  0.00    +0.000 A 
ATOM     22  S   UNL     1      51.649   8.351  15.668  0.00  0.00    +0.000 S 
ATOM     23  C   UNL     1      50.415   9.222  14.885  0.00  0.00    +0.000 A 
ATOM     24  N   UNL     1      50.642  10.475  14.406  0.00  0.00    +0.000 NA
ATOM     25  C   UNL     1      49.607  11.038  13.876  0.00  0.00    +0.000 A 
ATOM     26  N   UNL     1      48.369  10.458  13.776  0.00  0.00    +0.000 N 
ATOM     27  C   UNL     1      48.109   9.176  14.197  0.00  0.00    +0.000 A 
ATOM     28  O   UNL     1      47.016   8.651  14.022  0.00  0.00    +0.000 OA
ATOM     29  C   UNL     1      49.232   8.507  14.824  0.00  0.00    +0.000 A 
ATOM     30  H   UNL     1      47.604  10.952  13.337  0.00  0.00    +0.000 HD
ENDBRANCH  17  20
ENDBRANCH   1  16
BRANCH   1  31
ATOM     31  N   UNL     1      47.460   3.570  14.738  0.00  0.00    +0.000 NA
ATOM     32  H   UNL     1      46.804   2.853  15.037  0.00  0.00    +0.000 HD
ATOM     33  H   UNL     1      48.024   3.792  15.553  0.00  0.00    +0.000 HD
ENDBRANCH   1  31
TORSDOF 7
ENDMDL
MODEL 6
REMARK VINA RESULT:    -7.455      2.502      3.535
REMARK INTER + INTRA:         -11.177
REMARK INTER:                 -10.166
REMARK INTRA:                  -1.011
REMARK UNBOUND:                -0.889
REMARK  Name = 
REMARK  7 active torsions:
REMARK  status: ('A' for Active; 'I' for Inactive)
REMARK    1  A    between atoms: N_1  and  C_2
REMARK    2  A    between atoms: C_2  and  N_3
REMARK    3  A    between atoms: C_2  and  C_16
REMARK    4  A    between atoms: C_4  and  C_6
REMARK    5  A    between atoms: C_19  and  O_20
REMARK    6  A    between atoms: O_20  and  C_21
REMARK    7  A    between atoms: C_21  and  C_22
REMARK                            x       y       z     vdW  Elec       q    Type
REMARK                         _______ _______ _______ _____ _____    ______ ____
ROOT
ATOM      1  C   UNL     1      46.874   4.302  15.018  0.00  0.00    +0.000 C 
ENDROOT
BRANCH   1   2
ATOM      2  C   UNL     1      46.271   4.597  13.657  0.00  0.00    +0.000 A 
ATOM      3  C   UNL     1      46.621   5.747  12.929  0.00  0.00    +0.000 A 
ATOM      4  C   UNL     1      46.134   5.957  11.635  0.00  0.00    +0.000 A 
ATOM      5  C   UNL     1      45.305   5.009  11.037  0.00  0.00    +0.000 A 
ATOM      6  C   UNL     1      44.910   3.888  11.763  0.00  0.00    +0.000 A 
ATOM      7  C   UNL     1      45.412   3.672  13.046  0.00  0.00    +0.000 A 
BRANCH   5   8
ATOM      8  O   UNL     1      44.953   5.256   9.737  0.00  0.00    +0.000 OA
BRANCH   8   9
ATOM      9  C   UNL     1      44.373   4.133   9.060  0.00  0.00    +0.000 C 
BRANCH   9  10
ATOM     10  C   UNL     1      45.432   3.355   8.323  0.00  0.00    +0.000 A 
ATOM     11  C   UNL     1      45.630   2.004   8.609  0.00  0.00    +0.000 A 
ATOM     12  C   UNL     1      46.560   1.290   7.863  0.00  0.00    +0.000 A 
ATOM     13  C   UNL     1      47.261   1.939   6.855  0.00  0.00    +0.000 A 
ATOM     14  C   UNL     1      47.005   3.278   6.632  0.00  0.00    +0.000 A 
ATOM     15  N   UNL     1      46.104   3.997   7.334  0.00  0.00    +0.000 NA
ENDBRANCH   9  10
ENDBRANCH   8   9
ENDBRANCH   5   8
ENDBRANCH   1   2
BRANCH   1  16
ATOM     16  N   UNL     1      47.752   5.339  15.465  0.00  0.00    +0.000 N 
ATOM     17  C   UNL     1      48.334   5.318  16.708  0.00  0.00    +0.000 C 
ATOM     18  O   UNL     1      48.189   4.381  17.487  0.00  0.00    +0.000 OA
ATOM     19  H   UNL     1      47.709   6.212  14.954  0.00  0.00    +0.000 HD
BRANCH  17  20
ATOM     20  C   UNL     1      49.209   6.448  17.039  0.00  0.00    +0.000 A 
ATOM     21  C   UNL     1      50.302   6.720  16.226  0.00  0.00    +0.000 A 
ATOM     22  S   UNL     1      51.187   8.096  16.705  0.00  0.00    +0.000 S 
ATOM     23  C   UNL     1      50.177   8.342  18.052  0.00  0.00    +0.000 A 
ATOM     24  N   UNL     1      50.404   9.368  18.916  0.00  0.00    +0.000 NA
ATOM     25  C   UNL     1      49.590   9.411  19.918  0.00  0.00    +0.000 A 
ATOM     26  N   UNL     1      48.565   8.525  20.129  0.00  0.00    +0.000 N 
ATOM     27  C   UNL     1      48.266   7.508  19.254  0.00  0.00    +0.000 A 
ATOM     28  O   UNL     1      47.295   6.780  19.423  0.00  0.00    +0.000 OA
ATOM     29  C   UNL     1      49.167   7.399  18.124  0.00  0.00    +0.000 A 
ATOM     30  H   UNL     1      47.956   8.624  20.929  0.00  0.00    +0.000 HD
ENDBRANCH  17  20
ENDBRANCH   1  16
BRANCH   1  31
ATOM     31  N   UNL     1      47.747   3.147  15.008  0.00  0.00    +0.000 NA
ATOM     32  H   UNL     1      48.183   3.120  14.089  0.00  0.00    +0.000 HD
ATOM     33  H   UNL     1      47.163   2.319  15.067  0.00  0.00    +0.000 HD
ENDBRANCH   1  31
TORSDOF 7
ENDMDL
MODEL 7
REMARK VINA RESULT:    -7.060      4.089      6.155
REMARK INTER + INTRA:         -10.632
REMARK INTER:                  -9.686
REMARK INTRA:                  -0.946
REMARK UNBOUND:                -0.889
REMARK  Name = 
REMARK  7 active torsions:
REMARK  status: ('A' for Active; 'I' for Inactive)
REMARK    1  A    between atoms: N_1  and  C_2
REMARK    2  A    between atoms: C_2  and  N_3
REMARK    3  A    between atoms: C_2  and  C_16
REMARK    4  A    between atoms: C_4  and  C_6
REMARK    5  A    between atoms: C_19  and  O_20
REMARK    6  A    between atoms: O_20  and  C_21
REMARK    7  A    between atoms: C_21  and  C_22
REMARK                            x       y       z     vdW  Elec       q    Type
REMARK                         _______ _______ _______ _____ _____    ______ ____
ROOT
ATOM      1  C   UNL     1      46.479   4.287  14.555  0.00  0.00    +0.000 C 
ENDROOT
BRANCH   1   2
ATOM      2  C   UNL     1      46.003   5.451  13.706  0.00  0.00    +0.000 A 
ATOM      3  C   UNL     1      46.854   6.520  13.375  0.00  0.00    +0.000 A 
ATOM      4  C   UNL     1      46.433   7.535  12.511  0.00  0.00    +0.000 A 
ATOM      5  C   UNL     1      45.161   7.489  11.943  0.00  0.00    +0.000 A 
ATOM      6  C   UNL     1      44.289   6.463  12.299  0.00  0.00    +0.000 A 
ATOM      7  C   UNL     1      44.717   5.441  13.146  0.00  0.00    +0.000 A 
BRANCH   5   8
ATOM      8  O   UNL     1      44.872   8.476  11.040  0.00  0.00    +0.000 OA
BRANCH   8   9
ATOM      9  C   UNL     1      44.884   9.800  11.590  0.00  0.00    +0.000 C 
BRANCH   9  10
ATOM     10  C   UNL     1      43.600  10.519  11.267  0.00  0.00    +0.000 A 
ATOM     11  C   UNL     1      42.563   9.840  10.628  0.00  0.00    +0.000 A 
ATOM     12  C   UNL     1      41.361  10.503  10.409  0.00  0.00    +0.000 A 
ATOM     13  C   UNL     1      41.227  11.818  10.835  0.00  0.00    +0.000 A 
ATOM     14  C   UNL     1      42.300  12.419  11.464  0.00  0.00    +0.000 A 
ATOM     15  N   UNL     1      43.477  11.800  11.697  0.00  0.00    +0.000 NA
ENDBRANCH   9  10
ENDBRANCH   8   9
ENDBRANCH   5   8
ENDBRANCH   1   2
BRANCH   1  16
ATOM     16  N   UNL     1      47.350   4.699  15.612  0.00  0.00    +0.000 N 
ATOM     17  C   UNL     1      47.312   4.125  16.858  0.00  0.00    +0.000 C 
ATOM     18  O   UNL     1      46.574   3.182  17.124  0.00  0.00    +0.000 OA
ATOM     19  H   UNL     1      47.795   5.602  15.498  0.00  0.00    +0.000 HD
BRANCH  17  20
ATOM     20  C   UNL     1      48.259   4.648  17.848  0.00  0.00    +0.000 A 
ATOM     21  C   UNL     1      47.884   5.722  18.645  0.00  0.00    +0.000 A 
ATOM     22  S   UNL     1      49.067   6.176  19.785  0.00  0.00    +0.000 S 
ATOM     23  C   UNL     1      50.147   4.992  19.214  0.00  0.00    +0.000 A 
ATOM     24  N   UNL     1      51.386   4.858  19.759  0.00  0.00    +0.000 NA
ATOM     25  C   UNL     1      52.119   3.952  19.202  0.00  0.00    +0.000 A 
ATOM     26  N   UNL     1      51.721   3.164  18.153  0.00  0.00    +0.000 N 
ATOM     27  C   UNL     1      50.460   3.228  17.608  0.00  0.00    +0.000 A 
ATOM     28  O   UNL     1      50.102   2.456  16.725  0.00  0.00    +0.000 OA
ATOM     29  C   UNL     1      49.605   4.248  18.181  0.00  0.00    +0.000 A 
ATOM     30  H   UNL     1      52.341   2.463  17.771  0.00  0.00    +0.000 HD
ENDBRANCH  17  20
ENDBRANCH   1  16
BRANCH   1  31
ATOM     31  N   UNL     1      47.310   3.357  13.821  0.00  0.00    +0.000 NA
ATOM     32  H   UNL     1      48.206   3.818  13.678  0.00  0.00    +0.000 HD
ATOM     33  H   UNL     1      46.903   3.243  12.897  0.00  0.00    +0.000 HD
ENDBRANCH   1  31
TORSDOF 7
ENDMDL
MODEL 8
REMARK VINA RESULT:    -6.970      2.418      3.828
REMARK INTER + INTRA:         -10.509
REMARK INTER:                  -9.235
REMARK INTRA:                  -1.273
REMARK UNBOUND:                -0.889
REMARK  Name = 
REMARK  7 active torsions:
REMARK  status: ('A' for Active; 'I' for Inactive)
REMARK    1  A    between atoms: N_1  and  C_2
REMARK    2  A    between atoms: C_2  and  N_3
REMARK    3  A    between atoms: C_2  and  C_16
REMARK    4  A    between atoms: C_4  and  C_6
REMARK    5  A    between atoms: C_19  and  O_20
REMARK    6  A    between atoms: O_20  and  C_21
REMARK    7  A    between atoms: C_21  and  C_22
REMARK                            x       y       z     vdW  Elec       q    Type
REMARK                         _______ _______ _______ _____ _____    ______ ____
ROOT
ATOM      1  C   UNL     1      47.034   4.215  15.660  0.00  0.00    +0.000 C 
ENDROOT
BRANCH   1   2
ATOM      2  C   UNL     1      46.546   4.680  14.301  0.00  0.00    +0.000 A 
ATOM      3  C   UNL     1      47.258   5.629  13.546  0.00  0.00    +0.000 A 
ATOM      4  C   UNL     1      46.850   5.976  12.255  0.00  0.00    +0.000 A 
ATOM      5  C   UNL     1      45.735   5.363  11.684  0.00  0.00    +0.000 A 
ATOM      6  C   UNL     1      44.992   4.457  12.437  0.00  0.00    +0.000 A 
ATOM      7  C   UNL     1      45.410   4.099  13.717  0.00  0.00    +0.000 A 
BRANCH   5   8
ATOM      8  O   UNL     1      45.467   5.698  10.384  0.00  0.00    +0.000 OA
BRANCH   8   9
ATOM      9  C   UNL     1      44.548   4.816   9.726  0.00  0.00    +0.000 C 
BRANCH   9  10
ATOM     10  C   UNL     1      45.290   3.826   8.866  0.00  0.00    +0.000 A 
ATOM     11  C   UNL     1      46.141   4.280   7.858  0.00  0.00    +0.000 A 
ATOM     12  C   UNL     1      46.872   3.349   7.128  0.00  0.00    +0.000 A 
ATOM     13  C   UNL     1      46.736   1.999   7.425  0.00  0.00    +0.000 A 
ATOM     14  C   UNL     1      45.876   1.631   8.441  0.00  0.00    +0.000 A 
ATOM     15  N   UNL     1      45.158   2.511   9.172  0.00  0.00    +0.000 NA
ENDBRANCH   9  10
ENDBRANCH   8   9
ENDBRANCH   5   8
ENDBRANCH   1   2
BRANCH   1  16
ATOM     16  N   UNL     1      47.629   5.270  16.420  0.00  0.00    +0.000 N 
ATOM     17  C   UNL     1      47.966   5.118  17.742  0.00  0.00    +0.000 C 
ATOM     18  O   UNL     1      47.838   4.052  18.335  0.00  0.00    +0.000 OA
ATOM     19  H   UNL     1      47.537   6.203  16.038  0.00  0.00    +0.000 HD
BRANCH  17  20
ATOM     20  C   UNL     1      48.565   6.284  18.401  0.00  0.00    +0.000 A 
ATOM     21  C   UNL     1      48.024   6.739  19.597  0.00  0.00    +0.000 A 
ATOM     22  S   UNL     1      48.863   8.062  20.269  0.00  0.00    +0.000 S 
ATOM     23  C   UNL     1      49.944   8.112  18.956  0.00  0.00    +0.000 A 
ATOM     24  N   UNL     1      50.926   9.051  18.896  0.00  0.00    +0.000 NA
ATOM     25  C   UNL     1      51.645   9.003  17.825  0.00  0.00    +0.000 A 
ATOM     26  N   UNL     1      51.475   8.095  16.811  0.00  0.00    +0.000 N 
ATOM     27  C   UNL     1      50.533   7.095  16.856  0.00  0.00    +0.000 A 
ATOM     28  O   UNL     1      50.455   6.247  15.975  0.00  0.00    +0.000 OA
ATOM     29  C   UNL     1      49.680   7.121  18.027  0.00  0.00    +0.000 A 
ATOM     30  H   UNL     1      52.083   8.105  16.004  0.00  0.00    +0.000 HD
ENDBRANCH  17  20
ENDBRANCH   1  16
BRANCH   1  31
ATOM     31  N   UNL     1      48.116   3.256  15.571  0.00  0.00    +0.000 NA
ATOM     32  H   UNL     1      48.869   3.714  15.064  0.00  0.00    +0.000 HD
ATOM     33  H   UNL     1      47.802   2.493  14.979  0.00  0.00    +0.000 HD
ENDBRANCH   1  31
TORSDOF 7
ENDMDL
MODEL 9
REMARK VINA RESULT:    -6.935      4.118      5.938
REMARK INTER + INTRA:         -10.460
REMARK INTER:                  -9.412
REMARK INTRA:                  -1.047
REMARK UNBOUND:                -0.889
REMARK  Name = 
REMARK  7 active torsions:
REMARK  status: ('A' for Active; 'I' for Inactive)
REMARK    1  A    between atoms: N_1  and  C_2
REMARK    2  A    between atoms: C_2  and  N_3
REMARK    3  A    between atoms: C_2  and  C_16
REMARK    4  A    between atoms: C_4  and  C_6
REMARK    5  A    between atoms: C_19  and  O_20
REMARK    6  A    between atoms: O_20  and  C_21
REMARK    7  A    between atoms: C_21  and  C_22
REMARK                            x       y       z     vdW  Elec       q    Type
REMARK                         _______ _______ _______ _____ _____    ______ ____
ROOT
ATOM      1  C   UNL     1      46.486   4.180  14.659  0.00  0.00    +0.000 C 
ENDROOT
BRANCH   1   2
ATOM      2  C   UNL     1      46.100   5.285  13.693  0.00  0.00    +0.000 A 
ATOM      3  C   UNL     1      44.799   5.387  13.171  0.00  0.00    +0.000 A 
ATOM      4  C   UNL     1      44.431   6.465  12.361  0.00  0.00    +0.000 A 
ATOM      5  C   UNL     1      45.350   7.474  12.075  0.00  0.00    +0.000 A 
ATOM      6  C   UNL     1      46.656   7.362  12.545  0.00  0.00    +0.000 A 
ATOM      7  C   UNL     1      47.017   6.296  13.367  0.00  0.00    +0.000 A 
BRANCH   5   8
ATOM      8  O   UNL     1      44.872   8.533  11.351  0.00  0.00    +0.000 OA
BRANCH   8   9
ATOM      9  C   UNL     1      44.908   9.785  12.047  0.00  0.00    +0.000 C 
BRANCH   9  10
ATOM     10  C   UNL     1      45.738  10.788  11.288  0.00  0.00    +0.000 A 
ATOM     11  C   UNL     1      47.108  10.886  11.533  0.00  0.00    +0.000 A 
ATOM     12  C   UNL     1      47.865  11.764  10.766  0.00  0.00    +0.000 A 
ATOM     13  C   UNL     1      47.239  12.515   9.781  0.00  0.00    +0.000 A 
ATOM     14  C   UNL     1      45.879  12.358   9.598  0.00  0.00    +0.000 A 
ATOM     15  N   UNL     1      45.117  11.508  10.321  0.00  0.00    +0.000 NA
ENDBRANCH   9  10
ENDBRANCH   8   9
ENDBRANCH   5   8
ENDBRANCH   1   2
BRANCH   1  16
ATOM     16  N   UNL     1      47.267   4.660  15.757  0.00  0.00    +0.000 N 
ATOM     17  C   UNL     1      47.215   4.080  17.000  0.00  0.00    +0.000 C 
ATOM     18  O   UNL     1      46.546   3.078  17.230  0.00  0.00    +0.000 OA
ATOM     19  H   UNL     1      47.640   5.597  15.665  0.00  0.00    +0.000 HD
BRANCH  17  20
ATOM     20  C   UNL     1      48.064   4.677  18.036  0.00  0.00    +0.000 A 
ATOM     21  C   UNL     1      47.545   5.678  18.846  0.00  0.00    +0.000 A 
ATOM     22  S   UNL     1      48.632   6.229  20.038  0.00  0.00    +0.000 S 
ATOM     23  C   UNL     1      49.857   5.191  19.476  0.00  0.00    +0.000 A 
ATOM     24  N   UNL     1      51.086   5.181  20.060  0.00  0.00    +0.000 NA
ATOM     25  C   UNL     1      51.933   4.379  19.505  0.00  0.00    +0.000 A 
ATOM     26  N   UNL     1      51.660   3.582  18.423  0.00  0.00    +0.000 N 
ATOM     27  C   UNL     1      50.418   3.520  17.836  0.00  0.00    +0.000 A 
ATOM     28  O   UNL     1      50.178   2.740  16.923  0.00  0.00    +0.000 OA
ATOM     29  C   UNL     1      49.436   4.421  18.406  0.00  0.00    +0.000 A 
ATOM     30  H   UNL     1      52.368   2.968  18.045  0.00  0.00    +0.000 HD
ENDBRANCH  17  20
ENDBRANCH   1  16
BRANCH   1  31
ATOM     31  N   UNL     1      47.368   3.197  14.066  0.00  0.00    +0.000 NA
ATOM     32  H   UNL     1      47.210   2.325  14.567  0.00  0.00    +0.000 HD
ATOM     33  H   UNL     1      48.322   3.472  14.277  0.00  0.00    +0.000 HD
ENDBRANCH   1  31
TORSDOF 7
ENDMDL
