MODEL 1
REMARK VINA RESULT:    -8.305      0.000      0.000
REMARK INTER + INTRA:         -12.449
REMARK INTER:                 -11.219
REMARK INTRA:                  -1.231
REMARK UNBOUND:                -1.231
REMARK  Name = 
REMARK  6 active torsions:
REMARK  status: ('A' for Active; 'I' for Inactive)
REMARK    1  A    between atoms: C_2  and  C_4
REMARK    2  A    between atoms: C_7  and  C_8
REMARK    3  A    between atoms: C_8  and  N_9
REMARK    4  A    between atoms: C_16  and  C_17
REMARK    5  A    between atoms: C_17  and  N_18
REMARK    6  A    between atoms: C_19  and  C_21
REMARK                            x       y       z     vdW  Elec       q    Type
REMARK                         _______ _______ _______ _____ _____    ______ ____
ROOT
ATOM      1  C   UNL     1      43.931   5.040  11.020  0.00  0.00    +0.000 A 
ATOM      2  C   UNL     1      43.844   3.835  10.303  0.00  0.00    +0.000 A 
ATOM      3  C   UNL     1      44.715   3.549   9.263  0.00  0.00    +0.000 A 
ATOM      4  C   UNL     1      45.677   4.482   8.871  0.00  0.00    +0.000 A 
ATOM      5  C   UNL     1      45.757   5.699   9.578  0.00  0.00    +0.000 A 
ATOM      6  C   UNL     1      44.922   5.988  10.681  0.00  0.00    +0.000 A 
ENDROOT
BRANCH   1   8
ATOM      7  N   UNL     1      41.908   6.102  11.844  0.00  0.00    +0.000 N 
ATOM      8  C   UNL     1      42.924   5.196  12.103  0.00  0.00    +0.000 C 
ATOM      9  O   UNL     1      42.991   4.617  13.150  0.00  0.00    +0.000 OA
ATOM     10  H   UNL     1      41.169   6.153  12.537  0.00  0.00    +0.000 HD
ATOM     11  H   UNL     1      41.654   6.320  10.896  0.00  0.00    +0.000 HD
ENDBRANCH   1   8
BRANCH   4  12
ATOM     12  C   UNL     1      46.655   4.171   7.749  0.00  0.00    +0.000 C 
BRANCH  12  13
ATOM     13  N   UNL     1      46.357   2.944   6.975  0.00  0.00    +0.000 NA
ATOM     14  C   UNL     1      46.626   3.142   5.543  0.00  0.00    +0.000 C 
ATOM     15  C   UNL     1      46.680   1.865   4.706  0.00  0.00    +0.000 C 
ATOM     16  C   UNL     1      47.558   0.805   5.350  0.00  0.00    +0.000 C 
ATOM     17  C   UNL     1      47.051   0.510   6.752  0.00  0.00    +0.000 C 
ATOM     18  C   UNL     1      46.987   1.773   7.613  0.00  0.00    +0.000 C 
ENDBRANCH  12  13
ENDBRANCH   4  12
BRANCH   6  19
ATOM     19  C   UNL     1      45.188   7.253  11.459  0.00  0.00    +0.000 C 
BRANCH  19  20
ATOM     20  N   UNL     1      46.040   7.022  12.593  0.00  0.00    +0.000 N 
ATOM     21  C   UNL     1      47.399   7.017  12.594  0.00  0.00    +0.000 C 
ATOM     22  O   UNL     1      48.087   7.302  11.615  0.00  0.00    +0.000 OA
ATOM     23  H   UNL     1      45.579   7.069  13.492  0.00  0.00    +0.000 HD
BRANCH  21  24
ATOM     24  C   UNL     1      47.978   6.735  13.914  0.00  0.00    +0.000 A 
ATOM     25  C   UNL     1      48.863   7.626  14.499  0.00  0.00    +0.000 A 
ATOM     26  S   UNL     1      49.397   7.131  16.043  0.00  0.00    +0.000 S 
ATOM     27  C   UNL     1      48.471   5.704  15.975  0.00  0.00    +0.000 A 
ATOM     28  N   UNL     1      48.493   4.809  17.000  0.00  0.00    +0.000 NA
ATOM     29  C   UNL     1      47.732   3.782  16.828  0.00  0.00    +0.000 A 
ATOM     30  N   UNL     1      46.943   3.568  15.729  0.00  0.00    +0.000 N 
ATOM     31  C   UNL     1      46.910   4.424  14.651  0.00  0.00    +0.000 A 
ATOM     32  O   UNL     1      46.224   4.162  13.671  0.00  0.00    +0.000 OA
ATOM     33  C   UNL     1      47.745   5.609  14.801  0.00  0.00    +0.000 A 
ATOM     34  H   UNL     1      46.370   2.742  15.649  0.00  0.00    +0.000 HD
ENDBRANCH  21  24
ENDBRANCH  19  20
ENDBRANCH   6  19
TORSDOF 6
ENDMDL
MODEL 2
REMARK VINA RESULT:    -8.101      4.120      9.857
REMARK INTER + INTRA:         -12.174
REMARK INTER:                 -11.268
REMARK INTRA:                  -0.906
REMARK UNBOUND:                -1.231
REMARK  Name = 
REMARK  6 active torsions:
REMARK  status: ('A' for Active; 'I' for Inactive)
REMARK    1  A    between atoms: C_2  and  C_4
REMARK    2  A    between atoms: C_7  and  C_8
REMARK    3  A    between atoms: C_8  and  N_9
REMARK    4  A    between atoms: C_16  and  C_17
REMARK    5  A    between atoms: C_17  and  N_18
REMARK    6  A    between atoms: C_19  and  C_21
REMARK                            x       y       z     vdW  Elec       q    Type
REMARK                         _______ _______ _______ _____ _____    ______ ____
ROOT
ATOM      1  C   UNL     1      49.814   3.422  17.391  0.00  0.00    +0.000 A 
ATOM      2  C   UNL     1      50.918   4.008  18.032  0.00  0.00    +0.000 A 
ATOM      3  C   UNL     1      50.849   5.286  18.565  0.00  0.00    +0.000 A 
ATOM      4  C   UNL     1      49.684   6.044  18.432  0.00  0.00    +0.000 A 
ATOM      5  C   UNL     1      48.580   5.465  17.775  0.00  0.00    +0.000 A 
ATOM      6  C   UNL     1      48.604   4.142  17.279  0.00  0.00    +0.000 A 
ENDROOT
BRANCH   1   8
ATOM      7  N   UNL     1      50.876   1.252  17.650  0.00  0.00    +0.000 N 
ATOM      8  C   UNL     1      50.050   2.048  16.873  0.00  0.00    +0.000 C 
ATOM      9  O   UNL     1      49.597   1.651  15.836  0.00  0.00    +0.000 OA
ATOM     10  H   UNL     1      50.974   0.288  17.354  0.00  0.00    +0.000 HD
ATOM     11  H   UNL     1      50.974   1.434  18.635  0.00  0.00    +0.000 HD
ENDBRANCH   1   8
BRANCH   4  12
ATOM     12  C   UNL     1      49.587   7.437  19.033  0.00  0.00    +0.000 C 
BRANCH  12  13
ATOM     13  N   UNL     1      48.285   7.766  19.657  0.00  0.00    +0.000 NA
ATOM     14  C   UNL     1      48.313   7.516  21.106  0.00  0.00    +0.000 C 
ATOM     15  C   UNL     1      47.159   8.130  21.897  0.00  0.00    +0.000 C 
ATOM     16  C   UNL     1      46.938   9.589  21.534  0.00  0.00    +0.000 C 
ATOM     17  C   UNL     1      46.692   9.708  20.040  0.00  0.00    +0.000 C 
ATOM     18  C   UNL     1      47.835   9.102  19.223  0.00  0.00    +0.000 C 
ENDBRANCH  12  13
ENDBRANCH   4  12
BRANCH   6  19
ATOM     19  C   UNL     1      47.322   3.568  16.726  0.00  0.00    +0.000 C 
BRANCH  19  20
ATOM     20  N   UNL     1      46.762   4.395  15.692  0.00  0.00    +0.000 N 
ATOM     21  C   UNL     1      46.787   4.146  14.356  0.00  0.00    +0.000 C 
ATOM     22  O   UNL     1      47.231   3.111  13.859  0.00  0.00    +0.000 OA
ATOM     23  H   UNL     1      46.126   5.112  16.015  0.00  0.00    +0.000 HD
BRANCH  21  24
ATOM     24  C   UNL     1      46.138   5.193  13.558  0.00  0.00    +0.000 A 
ATOM     25  C   UNL     1      46.739   6.433  13.402  0.00  0.00    +0.000 A 
ATOM     26  S   UNL     1      45.843   7.498  12.415  0.00  0.00    +0.000 S 
ATOM     27  C   UNL     1      44.617   6.341  12.170  0.00  0.00    +0.000 A 
ATOM     28  N   UNL     1      43.524   6.632  11.414  0.00  0.00    +0.000 NA
ATOM     29  C   UNL     1      42.683   5.661  11.295  0.00  0.00    +0.000 A 
ATOM     30  N   UNL     1      42.835   4.421  11.858  0.00  0.00    +0.000 N 
ATOM     31  C   UNL     1      43.903   4.087  12.660  0.00  0.00    +0.000 A 
ATOM     32  O   UNL     1      43.967   2.980  13.179  0.00  0.00    +0.000 OA
ATOM     33  C   UNL     1      44.892   5.147  12.815  0.00  0.00    +0.000 A 
ATOM     34  H   UNL     1      42.140   3.702  11.732  0.00  0.00    +0.000 HD
ENDBRANCH  21  24
ENDBRANCH  19  20
ENDBRANCH   6  19
TORSDOF 6
ENDMDL
MODEL 3
REMARK VINA RESULT:    -7.733      4.137      9.007
REMARK INTER + INTRA:         -11.675
REMARK INTER:                 -10.776
REMARK INTRA:                  -0.899
REMARK UNBOUND:                -1.231
REMARK  Name = 
REMARK  6 active torsions:
REMARK  status: ('A' for Active; 'I' for Inactive)
REMARK    1  A    between atoms: C_2  and  C_4
REMARK    2  A    between atoms: C_7  and  C_8
REMARK    3  A    between atoms: C_8  and  N_9
REMARK    4  A    between atoms: C_16  and  C_17
REMARK    5  A    between atoms: C_17  and  N_18
REMARK    6  A    between atoms: C_19  and  C_21
REMARK                            x       y       z     vdW  Elec       q    Type
REMARK                         _______ _______ _______ _____ _____    ______ ____
ROOT
ATOM      1  C   UNL     1      49.833   3.372  17.508  0.00  0.00    +0.000 A 
ATOM      2  C   UNL     1      50.917   3.911  18.221  0.00  0.00    +0.000 A 
ATOM      3  C   UNL     1      50.835   5.156  18.826  0.00  0.00    +0.000 A 
ATOM      4  C   UNL     1      49.680   5.929  18.697  0.00  0.00    +0.000 A 
ATOM      5  C   UNL     1      48.597   5.398  17.968  0.00  0.00    +0.000 A 
ATOM      6  C   UNL     1      48.632   4.107  17.396  0.00  0.00    +0.000 A 
ENDROOT
BRANCH   1   8
ATOM      7  N   UNL     1      50.941   1.213  17.634  0.00  0.00    +0.000 N 
ATOM      8  C   UNL     1      50.080   2.029  16.917  0.00  0.00    +0.000 C 
ATOM      9  O   UNL     1      49.608   1.674  15.875  0.00  0.00    +0.000 OA
ATOM     10  H   UNL     1      51.049   0.267  17.288  0.00  0.00    +0.000 HD
ATOM     11  H   UNL     1      51.061   1.349  18.623  0.00  0.00    +0.000 HD
ENDBRANCH   1   8
BRANCH   4  12
ATOM     12  C   UNL     1      49.569   7.285  19.377  0.00  0.00    +0.000 C 
BRANCH  12  13
ATOM     13  N   UNL     1      49.523   8.448  18.461  0.00  0.00    +0.000 NA
ATOM     14  C   UNL     1      50.518   8.318  17.387  0.00  0.00    +0.000 C 
ATOM     15  C   UNL     1      50.336   9.274  16.209  0.00  0.00    +0.000 C 
ATOM     16  C   UNL     1      48.901   9.289  15.711  0.00  0.00    +0.000 C 
ATOM     17  C   UNL     1      47.971   9.659  16.855  0.00  0.00    +0.000 C 
ATOM     18  C   UNL     1      48.132   8.717  18.049  0.00  0.00    +0.000 C 
ENDBRANCH  12  13
ENDBRANCH   4  12
BRANCH   6  19
ATOM     19  C   UNL     1      47.368   3.576  16.764  0.00  0.00    +0.000 C 
BRANCH  19  20
ATOM     20  N   UNL     1      46.878   4.441  15.726  0.00  0.00    +0.000 N 
ATOM     21  C   UNL     1      46.899   4.192  14.390  0.00  0.00    +0.000 C 
ATOM     22  O   UNL     1      47.273   3.130  13.896  0.00  0.00    +0.000 OA
ATOM     23  H   UNL     1      46.292   5.201  16.044  0.00  0.00    +0.000 HD
BRANCH  21  24
ATOM     24  C   UNL     1      46.334   5.284  13.587  0.00  0.00    +0.000 A 
ATOM     25  C   UNL     1      47.041   6.462  13.405  0.00  0.00    +0.000 A 
ATOM     26  S   UNL     1      46.229   7.591  12.416  0.00  0.00    +0.000 S 
ATOM     27  C   UNL     1      44.900   6.547  12.206  0.00  0.00    +0.000 A 
ATOM     28  N   UNL     1      43.826   6.925  11.462  0.00  0.00    +0.000 NA
ATOM     29  C   UNL     1      42.900   6.033  11.370  0.00  0.00    +0.000 A 
ATOM     30  N   UNL     1      42.949   4.792  11.947  0.00  0.00    +0.000 N 
ATOM     31  C   UNL     1      43.995   4.373  12.738  0.00  0.00    +0.000 A 
ATOM     32  O   UNL     1      43.968   3.271  13.271  0.00  0.00    +0.000 OA
ATOM     33  C   UNL     1      45.077   5.341  12.864  0.00  0.00    +0.000 A 
ATOM     34  H   UNL     1      42.190   4.136  11.842  0.00  0.00    +0.000 HD
ENDBRANCH  21  24
ENDBRANCH  19  20
ENDBRANCH   6  19
TORSDOF 6
ENDMDL
MODEL 4
REMARK VINA RESULT:    -7.626      1.560      2.141
REMARK INTER + INTRA:         -11.531
REMARK INTER:                 -10.962
REMARK INTRA:                  -0.569
REMARK UNBOUND:                -1.231
REMARK  Name = 
REMARK  6 active torsions:
REMARK  status: ('A' for Active; 'I' for Inactive)
REMARK    1  A    between atoms: C_2  and  C_4
REMARK    2  A    between atoms: C_7  and  C_8
REMARK    3  A    between atoms: C_8  and  N_9
REMARK    4  A    between atoms: C_16  and  C_17
REMARK    5  A    between atoms: C_17  and  N_18
REMARK    6  A    between atoms: C_19  and  C_21
REMARK                            x       y       z     vdW  Elec       q    Type
REMARK                         _______ _______ _______ _____ _____    ______ ____
ROOT
ATOM      1  C   UNL     1      44.234   4.709  11.544  0.00  0.00    +0.000 A 
ATOM      2  C   UNL     1      43.904   3.704  10.620  0.00  0.00    +0.000 A 
ATOM      3  C   UNL     1      44.551   3.607   9.398  0.00  0.00    +0.000 A 
ATOM      4  C   UNL     1      45.520   4.544   9.035  0.00  0.00    +0.000 A 
ATOM      5  C   UNL     1      45.842   5.564   9.953  0.00  0.00    +0.000 A 
ATOM      6  C   UNL     1      45.243   5.647  11.230  0.00  0.00    +0.000 A 
ENDROOT
BRANCH   1   8
ATOM      7  N   UNL     1      42.478   5.660  12.928  0.00  0.00    +0.000 N 
ATOM      8  C   UNL     1      43.448   4.679  12.807  0.00  0.00    +0.000 C 
ATOM      9  O   UNL     1      43.653   3.892  13.688  0.00  0.00    +0.000 OA
ATOM     10  H   UNL     1      41.879   5.597  13.743  0.00  0.00    +0.000 HD
ATOM     11  H   UNL     1      42.079   6.081  12.106  0.00  0.00    +0.000 HD
ENDBRANCH   1   8
BRANCH   4  12
ATOM     12  C   UNL     1      46.255   4.434   7.708  0.00  0.00    +0.000 C 
BRANCH  12  13
ATOM     13  N   UNL     1      46.137   3.124   7.029  0.00  0.00    +0.000 NA
ATOM     14  C   UNL     1      46.616   3.201   5.640  0.00  0.00    +0.000 C 
ATOM     15  C   UNL     1      46.858   1.856   4.957  0.00  0.00    +0.000 C 
ATOM     16  C   UNL     1      47.672   0.917   5.832  0.00  0.00    +0.000 C 
ATOM     17  C   UNL     1      46.966   0.726   7.164  0.00  0.00    +0.000 C 
ATOM     18  C   UNL     1      46.712   2.059   7.871  0.00  0.00    +0.000 C 
ENDBRANCH  12  13
ENDBRANCH   4  12
BRANCH   6  19
ATOM     19  C   UNL     1      45.763   6.687  12.192  0.00  0.00    +0.000 C 
BRANCH  19  20
ATOM     20  N   UNL     1      46.239   6.102  13.416  0.00  0.00    +0.000 N 
ATOM     21  C   UNL     1      47.520   5.746  13.695  0.00  0.00    +0.000 C 
ATOM     22  O   UNL     1      48.472   5.964  12.948  0.00  0.00    +0.000 OA
ATOM     23  H   UNL     1      45.595   6.153  14.193  0.00  0.00    +0.000 HD
BRANCH  21  24
ATOM     24  C   UNL     1      47.681   5.159  15.032  0.00  0.00    +0.000 A 
ATOM     25  C   UNL     1      47.252   3.866  15.289  0.00  0.00    +0.000 A 
ATOM     26  S   UNL     1      47.557   3.359  16.889  0.00  0.00    +0.000 S 
ATOM     27  C   UNL     1      48.264   4.854  17.295  0.00  0.00    +0.000 A 
ATOM     28  N   UNL     1      48.729   5.087  18.553  0.00  0.00    +0.000 NA
ATOM     29  C   UNL     1      49.256   6.253  18.719  0.00  0.00    +0.000 A 
ATOM     30  N   UNL     1      49.368   7.207  17.743  0.00  0.00    +0.000 N 
ATOM     31  C   UNL     1      48.882   7.036  16.466  0.00  0.00    +0.000 A 
ATOM     32  O   UNL     1      48.965   7.939  15.644  0.00  0.00    +0.000 OA
ATOM     33  C   UNL     1      48.288   5.728  16.222  0.00  0.00    +0.000 A 
ATOM     34  H   UNL     1      49.788   8.104  17.935  0.00  0.00    +0.000 HD
ENDBRANCH  21  24
ENDBRANCH  19  20
ENDBRANCH   6  19
TORSDOF 6
ENDMDL
MODEL 5
REMARK VINA RESULT:    -7.624      4.518      9.918
REMARK INTER + INTRA:         -11.528
REMARK INTER:                 -10.310
REMARK INTRA:                  -1.219
REMARK UNBOUND:                -1.231
REMARK  Name = 
REMARK  6 active torsions:
REMARK  status: ('A' for Active; 'I' for Inactive)
REMARK    1  A    between atoms: C_2  and  C_4
REMARK    2  A    between atoms: C_7  and  C_8
REMARK    3  A    between atoms: C_8  and  N_9
REMARK    4  A    between atoms: C_16  and  C_17
REMARK    5  A    between atoms: C_17  and  N_18
REMARK    6  A    between atoms: C_19  and  C_21
REMARK                            x       y       z     vdW  Elec       q    Type
REMARK                         _______ _______ _______ _____ _____    ______ ____
ROOT
ATOM      1  C   UNL     1      50.012   3.354  17.514  0.00  0.00    +0.000 A 
ATOM      2  C   UNL     1      51.122   3.943  18.140  0.00  0.00    +0.000 A 
ATOM      3  C   UNL     1      51.048   5.210  18.700  0.00  0.00    +0.000 A 
ATOM      4  C   UNL     1      49.870   5.954  18.608  0.00  0.00    +0.000 A 
ATOM      5  C   UNL     1      48.759   5.373  17.966  0.00  0.00    +0.000 A 
ATOM      6  C   UNL     1      48.790   4.060  17.444  0.00  0.00    +0.000 A 
ENDROOT
BRANCH   1   8
ATOM      7  N   UNL     1      51.066   1.176  17.733  0.00  0.00    +0.000 N 
ATOM      8  C   UNL     1      50.254   1.994  16.963  0.00  0.00    +0.000 C 
ATOM      9  O   UNL     1      49.819   1.626  15.909  0.00  0.00    +0.000 OA
ATOM     10  H   UNL     1      51.168   0.220  17.412  0.00  0.00    +0.000 HD
ATOM     11  H   UNL     1      51.147   1.332  18.723  0.00  0.00    +0.000 HD
ENDBRANCH   1   8
BRANCH   4  12
ATOM     12  C   UNL     1      49.768   7.334  19.239  0.00  0.00    +0.000 C 
BRANCH  12  13
ATOM     13  N   UNL     1      48.432   7.688  19.770  0.00  0.00    +0.000 NA
ATOM     14  C   UNL     1      48.391   7.559  21.234  0.00  0.00    +0.000 C 
ATOM     15  C   UNL     1      47.189   8.214  21.914  0.00  0.00    +0.000 C 
ATOM     16  C   UNL     1      46.965   9.633  21.420  0.00  0.00    +0.000 C 
ATOM     17  C   UNL     1      46.792   9.623  19.911  0.00  0.00    +0.000 C 
ATOM     18  C   UNL     1      47.983   8.974  19.204  0.00  0.00    +0.000 C 
ENDBRANCH  12  13
ENDBRANCH   4  12
BRANCH   6  19
ATOM     19  C   UNL     1      47.504   3.479  16.908  0.00  0.00    +0.000 C 
BRANCH  19  20
ATOM     20  N   UNL     1      46.947   4.279  15.852  0.00  0.00    +0.000 N 
ATOM     21  C   UNL     1      46.932   3.971  14.528  0.00  0.00    +0.000 C 
ATOM     22  O   UNL     1      47.328   2.902  14.068  0.00  0.00    +0.000 OA
ATOM     23  H   UNL     1      46.344   5.031  16.157  0.00  0.00    +0.000 HD
BRANCH  21  24
ATOM     24  C   UNL     1      46.300   5.006  13.699  0.00  0.00    +0.000 A 
ATOM     25  C   UNL     1      45.033   4.809  13.173  0.00  0.00    +0.000 A 
ATOM     26  S   UNL     1      44.465   6.138  12.267  0.00  0.00    +0.000 S 
ATOM     27  C   UNL     1      45.898   7.017  12.538  0.00  0.00    +0.000 A 
ATOM     28  N   UNL     1      46.066   8.259  12.008  0.00  0.00    +0.000 NA
ATOM     29  C   UNL     1      47.189   8.819  12.307  0.00  0.00    +0.000 A 
ATOM     30  N   UNL     1      48.159   8.257  13.094  0.00  0.00    +0.000 N 
ATOM     31  C   UNL     1      48.054   6.991  13.625  0.00  0.00    +0.000 A 
ATOM     32  O   UNL     1      48.971   6.516  14.282  0.00  0.00    +0.000 OA
ATOM     33  C   UNL     1      46.796   6.319  13.327  0.00  0.00    +0.000 A 
ATOM     34  H   UNL     1      49.020   8.744  13.290  0.00  0.00    +0.000 HD
ENDBRANCH  21  24
ENDBRANCH  19  20
ENDBRANCH   6  19
TORSDOF 6
ENDMDL
MODEL 6
REMARK VINA RESULT:    -7.561      2.655      4.792
REMARK INTER + INTRA:         -11.443
REMARK INTER:                 -10.521
REMARK INTRA:                  -0.922
REMARK UNBOUND:                -1.231
REMARK  Name = 
REMARK  6 active torsions:
REMARK  status: ('A' for Active; 'I' for Inactive)
REMARK    1  A    between atoms: C_2  and  C_4
REMARK    2  A    between atoms: C_7  and  C_8
REMARK    3  A    between atoms: C_8  and  N_9
REMARK    4  A    between atoms: C_16  and  C_17
REMARK    5  A    between atoms: C_17  and  N_18
REMARK    6  A    between atoms: C_19  and  C_21
REMARK                            x       y       z     vdW  Elec       q    Type
REMARK                         _______ _______ _______ _____ _____    ______ ____
ROOT
ATOM      1  C   UNL     1      47.222   6.333  13.306  0.00  0.00    +0.000 A 
ATOM      2  C   UNL     1      46.578   7.210  12.419  0.00  0.00    +0.000 A 
ATOM      3  C   UNL     1      45.452   6.822  11.709  0.00  0.00    +0.000 A 
ATOM      4  C   UNL     1      44.958   5.521  11.825  0.00  0.00    +0.000 A 
ATOM      5  C   UNL     1      45.612   4.632  12.702  0.00  0.00    +0.000 A 
ATOM      6  C   UNL     1      46.722   5.023  13.484  0.00  0.00    +0.000 A 
ENDROOT
BRANCH   1   8
ATOM      7  N   UNL     1      49.580   6.913  13.238  0.00  0.00    +0.000 N 
ATOM      8  C   UNL     1      48.416   6.899  13.989  0.00  0.00    +0.000 C 
ATOM      9  O   UNL     1      48.401   7.285  15.124  0.00  0.00    +0.000 OA
ATOM     10  H   UNL     1      50.377   7.375  13.660  0.00  0.00    +0.000 HD
ATOM     11  H   UNL     1      49.534   6.919  12.233  0.00  0.00    +0.000 HD
ENDBRANCH   1   8
BRANCH   4  12
ATOM     12  C   UNL     1      43.710   5.091  11.071  0.00  0.00    +0.000 C 
BRANCH  12  13
ATOM     13  N   UNL     1      43.952   4.248   9.878  0.00  0.00    +0.000 NA
ATOM     14  C   UNL     1      45.075   4.765   9.082  0.00  0.00    +0.000 C 
ATOM     15  C   UNL     1      45.627   3.804   8.031  0.00  0.00    +0.000 C 
ATOM     16  C   UNL     1      45.874   2.419   8.606  0.00  0.00    +0.000 C 
ATOM     17  C   UNL     1      44.584   1.882   9.204  0.00  0.00    +0.000 C 
ATOM     18  C   UNL     1      44.009   2.825  10.262  0.00  0.00    +0.000 C 
ENDBRANCH  12  13
ENDBRANCH   4  12
BRANCH   6  19
ATOM     19  C   UNL     1      47.256   4.041  14.499  0.00  0.00    +0.000 C 
BRANCH  19  20
ATOM     20  N   UNL     1      47.592   4.679  15.742  0.00  0.00    +0.000 N 
ATOM     21  C   UNL     1      47.237   4.261  16.985  0.00  0.00    +0.000 C 
ATOM     22  O   UNL     1      46.638   3.211  17.212  0.00  0.00    +0.000 OA
ATOM     23  H   UNL     1      48.321   5.377  15.681  0.00  0.00    +0.000 HD
BRANCH  21  24
ATOM     24  C   UNL     1      47.727   5.141  18.055  0.00  0.00    +0.000 A 
ATOM     25  C   UNL     1      46.836   5.788  18.896  0.00  0.00    +0.000 A 
ATOM     26  S   UNL     1      47.602   6.736  20.091  0.00  0.00    +0.000 S 
ATOM     27  C   UNL     1      49.151   6.320  19.516  0.00  0.00    +0.000 A 
ATOM     28  N   UNL     1      50.270   6.823  20.103  0.00  0.00    +0.000 NA
ATOM     29  C   UNL     1      51.377   6.413  19.582  0.00  0.00    +0.000 A 
ATOM     30  N   UNL     1      51.470   5.540  18.530  0.00  0.00    +0.000 N 
ATOM     31  C   UNL     1      50.369   5.031  17.879  0.00  0.00    +0.000 A 
ATOM     32  O   UNL     1      50.507   4.291  16.913  0.00  0.00    +0.000 OA
ATOM     33  C   UNL     1      49.091   5.453  18.439  0.00  0.00    +0.000 A 
ATOM     34  H   UNL     1      52.365   5.258  18.163  0.00  0.00    +0.000 HD
ENDBRANCH  21  24
ENDBRANCH  19  20
ENDBRANCH   6  19
TORSDOF 6
ENDMDL
MODEL 7
REMARK VINA RESULT:    -7.551      3.990      9.692
REMARK INTER + INTRA:         -11.429
REMARK INTER:                 -10.079
REMARK INTRA:                  -1.350
REMARK UNBOUND:                -1.231
REMARK  Name = 
REMARK  6 active torsions:
REMARK  status: ('A' for Active; 'I' for Inactive)
REMARK    1  A    between atoms: C_2  and  C_4
REMARK    2  A    between atoms: C_7  and  C_8
REMARK    3  A    between atoms: C_8  and  N_9
REMARK    4  A    between atoms: C_16  and  C_17
REMARK    5  A    between atoms: C_17  and  N_18
REMARK    6  A    between atoms: C_19  and  C_21
REMARK                            x       y       z     vdW  Elec       q    Type
REMARK                         _______ _______ _______ _____ _____    ______ ____
ROOT
ATOM      1  C   UNL     1      48.159   5.280  17.769  0.00  0.00    +0.000 A 
ATOM      2  C   UNL     1      47.652   5.285  19.078  0.00  0.00    +0.000 A 
ATOM      3  C   UNL     1      47.595   6.450  19.827  0.00  0.00    +0.000 A 
ATOM      4  C   UNL     1      48.091   7.648  19.308  0.00  0.00    +0.000 A 
ATOM      5  C   UNL     1      48.616   7.644  18.000  0.00  0.00    +0.000 A 
ATOM      6  C   UNL     1      48.626   6.484  17.194  0.00  0.00    +0.000 A 
ENDROOT
BRANCH   1   8
ATOM      7  N   UNL     1      46.899   3.438  16.808  0.00  0.00    +0.000 N 
ATOM      8  C   UNL     1      48.153   3.952  17.101  0.00  0.00    +0.000 C 
ATOM      9  O   UNL     1      49.151   3.334  16.860  0.00  0.00    +0.000 OA
ATOM     10  H   UNL     1      46.884   2.576  16.276  0.00  0.00    +0.000 HD
ATOM     11  H   UNL     1      46.115   4.056  16.689  0.00  0.00    +0.000 HD
ENDBRANCH   1   8
BRANCH   4  12
ATOM     12  C   UNL     1      48.012   8.938  20.109  0.00  0.00    +0.000 C 
BRANCH  12  13
ATOM     13  N   UNL     1      47.049   9.940  19.598  0.00  0.00    +0.000 NA
ATOM     14  C   UNL     1      46.084  10.327  20.638  0.00  0.00    +0.000 C 
ATOM     15  C   UNL     1      45.269  11.584  20.338  0.00  0.00    +0.000 C 
ATOM     16  C   UNL     1      46.150  12.729  19.867  0.00  0.00    +0.000 C 
ATOM     17  C   UNL     1      46.938  12.292  18.643  0.00  0.00    +0.000 C 
ATOM     18  C   UNL     1      47.766  11.034  18.917  0.00  0.00    +0.000 C 
ENDBRANCH  12  13
ENDBRANCH   4  12
BRANCH   6  19
ATOM     19  C   UNL     1      49.073   6.621  15.758  0.00  0.00    +0.000 C 
BRANCH  19  20
ATOM     20  N   UNL     1      47.986   6.447  14.835  0.00  0.00    +0.000 N 
ATOM     21  C   UNL     1      48.071   6.446  13.479  0.00  0.00    +0.000 C 
ATOM     22  O   UNL     1      49.131   6.511  12.857  0.00  0.00    +0.000 OA
ATOM     23  H   UNL     1      47.130   6.096  15.243  0.00  0.00    +0.000 HD
BRANCH  21  24
ATOM     24  C   UNL     1      46.774   6.257  12.816  0.00  0.00    +0.000 A 
ATOM     25  C   UNL     1      46.138   7.323  12.199  0.00  0.00    +0.000 A 
ATOM     26  S   UNL     1      44.661   6.892  11.461  0.00  0.00    +0.000 S 
ATOM     27  C   UNL     1      44.818   5.268  11.949  0.00  0.00    +0.000 A 
ATOM     28  N   UNL     1      43.858   4.353  11.645  0.00  0.00    +0.000 NA
ATOM     29  C   UNL     1      44.111   3.157  12.059  0.00  0.00    +0.000 A 
ATOM     30  N   UNL     1      45.239   2.789  12.743  0.00  0.00    +0.000 N 
ATOM     31  C   UNL     1      46.222   3.682  13.106  0.00  0.00    +0.000 A 
ATOM     32  O   UNL     1      47.188   3.309  13.760  0.00  0.00    +0.000 OA
ATOM     33  C   UNL     1      45.990   5.047  12.650  0.00  0.00    +0.000 A 
ATOM     34  H   UNL     1      45.380   1.837  13.044  0.00  0.00    +0.000 HD
ENDBRANCH  21  24
ENDBRANCH  19  20
ENDBRANCH   6  19
TORSDOF 6
ENDMDL
MODEL 8
REMARK VINA RESULT:    -7.441      3.778      5.886
REMARK INTER + INTRA:         -11.282
REMARK INTER:                 -10.099
REMARK INTRA:                  -1.183
REMARK UNBOUND:                -1.231
REMARK  Name = 
REMARK  6 active torsions:
REMARK  status: ('A' for Active; 'I' for Inactive)
REMARK    1  A    between atoms: C_2  and  C_4
REMARK    2  A    between atoms: C_7  and  C_8
REMARK    3  A    between atoms: C_8  and  N_9
REMARK    4  A    between atoms: C_16  and  C_17
REMARK    5  A    between atoms: C_17  and  N_18
REMARK    6  A    between atoms: C_19  and  C_21
REMARK                            x       y       z     vdW  Elec       q    Type
REMARK                         _______ _______ _______ _____ _____    ______ ____
ROOT
ATOM      1  C   UNL     1      45.516   4.646  12.451  0.00  0.00    +0.000 A 
ATOM      2  C   UNL     1      45.299   5.759  11.623  0.00  0.00    +0.000 A 
ATOM      3  C   UNL     1      46.038   6.923  11.768  0.00  0.00    +0.000 A 
ATOM      4  C   UNL     1      46.990   7.032  12.783  0.00  0.00    +0.000 A 
ATOM      5  C   UNL     1      47.200   5.923  13.628  0.00  0.00    +0.000 A 
ATOM      6  C   UNL     1      46.505   4.705  13.460  0.00  0.00    +0.000 A 
ENDROOT
BRANCH   1   8
ATOM      7  N   UNL     1      44.937   2.779  11.009  0.00  0.00    +0.000 N 
ATOM      8  C   UNL     1      44.642   3.477  12.169  0.00  0.00    +0.000 C 
ATOM      9  O   UNL     1      43.715   3.167  12.864  0.00  0.00    +0.000 OA
ATOM     10  H   UNL     1      44.405   1.931  10.852  0.00  0.00    +0.000 HD
ATOM     11  H   UNL     1      45.866   2.807  10.624  0.00  0.00    +0.000 HD
ENDBRANCH   1   8
BRANCH   4  12
ATOM     12  C   UNL     1      47.825   8.294  12.938  0.00  0.00    +0.000 C 
BRANCH  12  13
ATOM     13  N   UNL     1      48.781   8.557  11.838  0.00  0.00    +0.000 NA
ATOM     14  C   UNL     1      49.210   9.963  11.832  0.00  0.00    +0.000 C 
ATOM     15  C   UNL     1      50.434  10.269  10.971  0.00  0.00    +0.000 C 
ATOM     16  C   UNL     1      51.566   9.289  11.230  0.00  0.00    +0.000 C 
ATOM     17  C   UNL     1      51.074   7.871  10.986  0.00  0.00    +0.000 C 
ATOM     18  C   UNL     1      49.848   7.538  11.837  0.00  0.00    +0.000 C 
ENDBRANCH  12  13
ENDBRANCH   4  12
BRANCH   6  19
ATOM     19  C   UNL     1      46.908   3.533  14.321  0.00  0.00    +0.000 C 
BRANCH  19  20
ATOM     20  N   UNL     1      47.741   3.933  15.422  0.00  0.00    +0.000 N 
ATOM     21  C   UNL     1      47.468   3.768  16.743  0.00  0.00    +0.000 C 
ATOM     22  O   UNL     1      46.486   3.163  17.171  0.00  0.00    +0.000 OA
ATOM     23  H   UNL     1      48.692   4.171  15.175  0.00  0.00    +0.000 HD
BRANCH  21  24
ATOM     24  C   UNL     1      48.517   4.298  17.624  0.00  0.00    +0.000 A 
ATOM     25  C   UNL     1      48.285   5.429  18.392  0.00  0.00    +0.000 A 
ATOM     26  S   UNL     1      49.614   5.865  19.369  0.00  0.00    +0.000 S 
ATOM     27  C   UNL     1      50.547   4.562  18.791  0.00  0.00    +0.000 A 
ATOM     28  N   UNL     1      51.822   4.370  19.226  0.00  0.00    +0.000 NA
ATOM     29  C   UNL     1      52.408   3.338  18.722  0.00  0.00    +0.000 A 
ATOM     30  N   UNL     1      51.836   2.472  17.827  0.00  0.00    +0.000 N 
ATOM     31  C   UNL     1      50.564   2.641  17.329  0.00  0.00    +0.000 A 
ATOM     32  O   UNL     1      50.116   1.866  16.494  0.00  0.00    +0.000 OA
ATOM     33  C   UNL     1      49.852   3.789  17.878  0.00  0.00    +0.000 A 
ATOM     34  H   UNL     1      52.346   1.682  17.465  0.00  0.00    +0.000 HD
ENDBRANCH  21  24
ENDBRANCH  19  20
ENDBRANCH   6  19
TORSDOF 6
ENDMDL
MODEL 9
REMARK VINA RESULT:    -7.420      2.457      4.348
REMARK INTER + INTRA:         -11.253
REMARK INTER:                  -9.700
REMARK INTRA:                  -1.553
REMARK UNBOUND:                -1.231
REMARK  Name = 
REMARK  6 active torsions:
REMARK  status: ('A' for Active; 'I' for Inactive)
REMARK    1  A    between atoms: C_2  and  C_4
REMARK    2  A    between atoms: C_7  and  C_8
REMARK    3  A    between atoms: C_8  and  N_9
REMARK    4  A    between atoms: C_16  and  C_17
REMARK    5  A    between atoms: C_17  and  N_18
REMARK    6  A    between atoms: C_19  and  C_21
REMARK                            x       y       z     vdW  Elec       q    Type
REMARK                         _______ _______ _______ _____ _____    ______ ____
ROOT
ATOM      1  C   UNL     1      47.227   9.060  12.190  0.00  0.00    +0.000 A 
ATOM      2  C   UNL     1      45.854   9.188  11.925  0.00  0.00    +0.000 A 
ATOM      3  C   UNL     1      45.048   8.075  11.739  0.00  0.00    +0.000 A 
ATOM      4  C   UNL     1      45.599   6.793  11.762  0.00  0.00    +0.000 A 
ATOM      5  C   UNL     1      46.979   6.661  12.012  0.00  0.00    +0.000 A 
ATOM      6  C   UNL     1      47.810   7.775  12.268  0.00  0.00    +0.000 A 
ENDROOT
BRANCH   1   8
ATOM      7  N   UNL     1      48.107  10.771  13.674  0.00  0.00    +0.000 N 
ATOM      8  C   UNL     1      47.952  10.347  12.364  0.00  0.00    +0.000 C 
ATOM      9  O   UNL     1      48.348  11.006  11.444  0.00  0.00    +0.000 OA
ATOM     10  H   UNL     1      48.674  11.600  13.810  0.00  0.00    +0.000 HD
ATOM     11  H   UNL     1      48.095  10.104  14.427  0.00  0.00    +0.000 HD
ENDBRANCH   1   8
BRANCH   4  12
ATOM     12  C   UNL     1      44.721   5.563  11.584  0.00  0.00    +0.000 C 
BRANCH  12  13
ATOM     13  N   UNL     1      45.243   4.546  10.643  0.00  0.00    +0.000 NA
ATOM     14  C   UNL     1      44.377   3.358  10.612  0.00  0.00    +0.000 C 
ATOM     15  C   UNL     1      44.622   2.402   9.446  0.00  0.00    +0.000 C 
ATOM     16  C   UNL     1      44.695   3.137   8.118  0.00  0.00    +0.000 C 
ATOM     17  C   UNL     1      45.783   4.197   8.185  0.00  0.00    +0.000 C 
ATOM     18  C   UNL     1      45.561   5.170   9.345  0.00  0.00    +0.000 C 
ENDBRANCH  12  13
ENDBRANCH   4  12
BRANCH   6  19
ATOM     19  C   UNL     1      49.242   7.516  12.669  0.00  0.00    +0.000 C 
BRANCH  19  20
ATOM     20  N   UNL     1      49.335   6.825  13.926  0.00  0.00    +0.000 N 
ATOM     21  C   UNL     1      49.146   7.364  15.159  0.00  0.00    +0.000 C 
ATOM     22  O   UNL     1      48.781   8.523  15.353  0.00  0.00    +0.000 OA
ATOM     23  H   UNL     1      49.341   5.816  13.860  0.00  0.00    +0.000 HD
BRANCH  21  24
ATOM     24  C   UNL     1      49.326   6.397  16.249  0.00  0.00    +0.000 A 
ATOM     25  C   UNL     1      50.314   6.587  17.202  0.00  0.00    +0.000 A 
ATOM     26  S   UNL     1      50.339   5.372  18.400  0.00  0.00    +0.000 S 
ATOM     27  C   UNL     1      49.036   4.545  17.679  0.00  0.00    +0.000 A 
ATOM     28  N   UNL     1      48.564   3.387  18.213  0.00  0.00    +0.000 NA
ATOM     29  C   UNL     1      47.563   2.876  17.578  0.00  0.00    +0.000 A 
ATOM     30  N   UNL     1      46.985   3.419  16.462  0.00  0.00    +0.000 N 
ATOM     31  C   UNL     1      47.447   4.569  15.862  0.00  0.00    +0.000 A 
ATOM     32  O   UNL     1      46.924   4.986  14.836  0.00  0.00    +0.000 OA
ATOM     33  C   UNL     1      48.570   5.194  16.548  0.00  0.00    +0.000 A 
ATOM     34  H   UNL     1      46.205   2.970  16.006  0.00  0.00    +0.000 HD
ENDBRANCH  21  24
ENDBRANCH  19  20
ENDBRANCH   6  19
TORSDOF 6
ENDMDL
