MODEL 1
REMARK VINA RESULT:    -7.917      0.000      0.000
REMARK INTER + INTRA:         -11.862
REMARK INTER:                 -10.694
REMARK INTRA:                  -1.168
REMARK UNBOUND:                -1.168
REMARK  Name = 
REMARK  7 active torsions:
REMARK  status: ('A' for Active; 'I' for Inactive)
REMARK    1  A    between atoms: N_1  and  S_2
REMARK    2  A    between atoms: S_2  and  C_5
REMARK    3  A    between atoms: C_9  and  N_10
REMARK    4  A    between atoms: N_10  and  C_11
REMARK    5  A    between atoms: C_11  and  C_12
REMARK    6  A    between atoms: C_16  and  C_17
REMARK    7  A    between atoms: C_21  and  O_22
REMARK                            x       y       z     vdW  Elec       q    Type
REMARK                         _______ _______ _______ _____ _____    ______ ____
ROOT
ATOM      1  C   UNL     1      45.963   7.500  12.140  0.00  0.00    +0.000 C 
ATOM      2  C   UNL     1      45.742   8.890  11.545  0.00  0.00    +0.000 C 
ATOM      3  C   UNL     1      45.188   8.568  12.891  0.00  0.00    +0.000 C 
ENDROOT
BRANCH   1   4
ATOM      4  C   UNL     1      45.152   6.340  11.559  0.00  0.00    +0.000 A 
ATOM      5  C   UNL     1      43.781   6.194  11.823  0.00  0.00    +0.000 A 
ATOM      6  C   UNL     1      43.024   5.197  11.211  0.00  0.00    +0.000 A 
ATOM      7  C   UNL     1      43.620   4.335  10.293  0.00  0.00    +0.000 A 
ATOM      8  C   UNL     1      44.981   4.445   9.973  0.00  0.00    +0.000 A 
ATOM      9  C   UNL     1      45.730   5.424  10.657  0.00  0.00    +0.000 A 
BRANCH   8  10
ATOM     10  C   UNL     1      45.588   3.650   8.880  0.00  0.00    +0.000 A 
ATOM     11  C   UNL     1      46.223   4.286   7.794  0.00  0.00    +0.000 A 
ATOM     12  C   UNL     1      46.880   3.557   6.800  0.00  0.00    +0.000 A 
ATOM     13  C   UNL     1      46.937   2.170   6.875  0.00  0.00    +0.000 A 
ATOM     14  C   UNL     1      46.318   1.525   7.938  0.00  0.00    +0.000 A 
ATOM     15  C   UNL     1      45.638   2.244   8.919  0.00  0.00    +0.000 A 
BRANCH  14  16
ATOM     16  O   UNL     1      46.376   0.169   8.072  0.00  0.00    +0.000 OA
ATOM     17  H   UNL     1      45.660  -0.112   8.665  0.00  0.00    +0.000 HD
ENDBRANCH  14  16
ENDBRANCH   8  10
ENDBRANCH   1   4
BRANCH   1  18
ATOM     18  N   UNL     1      47.375   7.190  12.452  0.00  0.00    +0.000 N 
ATOM     19  H   UNL     1      47.872   6.703  11.708  0.00  0.00    +0.000 HD
BRANCH  18  24
ATOM     20  C   UNL     1      48.054   5.363  15.632  0.00  0.00    +0.000 A 
ATOM     21  C   UNL     1      48.814   6.319  16.278  0.00  0.00    +0.000 A 
ATOM     22  N   UNL     1      49.073   7.529  15.736  0.00  0.00    +0.000 NA
ATOM     23  C   UNL     1      48.587   7.751  14.488  0.00  0.00    +0.000 A 
ATOM     24  C   UNL     1      47.854   6.831  13.727  0.00  0.00    +0.000 A 
ATOM     25  C   UNL     1      47.549   5.630  14.358  0.00  0.00    +0.000 A 
BRANCH  20  26
ATOM     26  S   UNL     1      47.850   3.778  16.345  0.00  0.00    +0.000 S 
ATOM     27  O   UNL     1      46.577   3.721  17.027  0.00  0.00    +0.000 OA
ATOM     28  O   UNL     1      49.084   3.387  16.984  0.00  0.00    +0.000 OA
BRANCH  26  29
ATOM     29  N   UNL     1      47.698   2.783  15.001  0.00  0.00    +0.000 NA
ATOM     30  H   UNL     1      46.733   2.805  14.667  0.00  0.00    +0.000 HD
ATOM     31  H   UNL     1      48.029   1.843  15.224  0.00  0.00    +0.000 HD
ENDBRANCH  26  29
ENDBRANCH  20  26
ENDBRANCH  18  24
ENDBRANCH   1  18
TORSDOF 7
ENDMDL
MODEL 2
REMARK VINA RESULT:    -7.482      1.985      3.048
REMARK INTER + INTRA:         -11.275
REMARK INTER:                 -10.081
REMARK INTRA:                  -1.193
REMARK UNBOUND:                -1.168
REMARK  Name = 
REMARK  7 active torsions:
REMARK  status: ('A' for Active; 'I' for Inactive)
REMARK    1  A    between atoms: N_1  and  S_2
REMARK    2  A    between atoms: S_2  and  C_5
REMARK    3  A    between atoms: C_9  and  N_10
REMARK    4  A    between atoms: N_10  and  C_11
REMARK    5  A    between atoms: C_11  and  C_12
REMARK    6  A    between atoms: C_16  and  C_17
REMARK    7  A    between atoms: C_21  and  O_22
REMARK                            x       y       z     vdW  Elec       q    Type
REMARK                         _______ _______ _______ _____ _____    ______ ____
ROOT
ATOM      1  C   UNL     1      49.022   7.872  12.631  0.00  0.00    +0.000 C 
ATOM      2  C   UNL     1      49.910   8.140  11.418  0.00  0.00    +0.000 C 
ATOM      3  C   UNL     1      49.620   9.244  12.377  0.00  0.00    +0.000 C 
ENDROOT
BRANCH   1   4
ATOM      4  C   UNL     1      47.518   7.720  12.393  0.00  0.00    +0.000 A 
ATOM      5  C   UNL     1      46.627   8.782  12.610  0.00  0.00    +0.000 A 
ATOM      6  C   UNL     1      45.274   8.673  12.295  0.00  0.00    +0.000 A 
ATOM      7  C   UNL     1      44.784   7.499  11.725  0.00  0.00    +0.000 A 
ATOM      8  C   UNL     1      45.631   6.411  11.465  0.00  0.00    +0.000 A 
ATOM      9  C   UNL     1      46.980   6.534  11.854  0.00  0.00    +0.000 A 
BRANCH   8  10
ATOM     10  C   UNL     1      45.162   5.226  10.709  0.00  0.00    +0.000 A 
ATOM     11  C   UNL     1      45.559   5.022   9.372  0.00  0.00    +0.000 A 
ATOM     12  C   UNL     1      45.204   3.868   8.670  0.00  0.00    +0.000 A 
ATOM     13  C   UNL     1      44.456   2.876   9.293  0.00  0.00    +0.000 A 
ATOM     14  C   UNL     1      44.055   3.058  10.610  0.00  0.00    +0.000 A 
ATOM     15  C   UNL     1      44.383   4.220  11.308  0.00  0.00    +0.000 A 
BRANCH  14  16
ATOM     16  O   UNL     1      43.348   2.099  11.273  0.00  0.00    +0.000 OA
ATOM     17  H   UNL     1      43.223   2.389  12.192  0.00  0.00    +0.000 HD
ENDBRANCH  14  16
ENDBRANCH   8  10
ENDBRANCH   1   4
BRANCH   1  18
ATOM     18  N   UNL     1      49.604   6.933  13.615  0.00  0.00    +0.000 N 
ATOM     19  H   UNL     1      49.792   6.002  13.247  0.00  0.00    +0.000 HD
BRANCH  18  24
ATOM     20  C   UNL     1      48.237   5.938  16.940  0.00  0.00    +0.000 A 
ATOM     21  C   UNL     1      48.639   7.032  17.680  0.00  0.00    +0.000 A 
ATOM     22  N   UNL     1      49.293   8.079  17.133  0.00  0.00    +0.000 NA
ATOM     23  C   UNL     1      49.587   7.987  15.810  0.00  0.00    +0.000 A 
ATOM     24  C   UNL     1      49.274   6.899  14.984  0.00  0.00    +0.000 A 
ATOM     25  C   UNL     1      48.534   5.882  15.577  0.00  0.00    +0.000 A 
BRANCH  20  26
ATOM     26  S   UNL     1      47.491   4.569  17.735  0.00  0.00    +0.000 S 
ATOM     27  O   UNL     1      48.473   3.900  18.558  0.00  0.00    +0.000 OA
ATOM     28  O   UNL     1      46.676   3.857  16.779  0.00  0.00    +0.000 OA
BRANCH  26  29
ATOM     29  N   UNL     1      46.416   5.296  18.798  0.00  0.00    +0.000 NA
ATOM     30  H   UNL     1      46.504   6.312  18.733  0.00  0.00    +0.000 HD
ATOM     31  H   UNL     1      46.563   4.937  19.743  0.00  0.00    +0.000 HD
ENDBRANCH  26  29
ENDBRANCH  20  26
ENDBRANCH  18  24
ENDBRANCH   1  18
TORSDOF 7
ENDMDL
MODEL 3
REMARK VINA RESULT:    -7.000      2.820      4.757
REMARK INTER + INTRA:         -10.624
REMARK INTER:                  -9.226
REMARK INTRA:                  -1.397
REMARK UNBOUND:                -1.168
REMARK  Name = 
REMARK  7 active torsions:
REMARK  status: ('A' for Active; 'I' for Inactive)
REMARK    1  A    between atoms: N_1  and  S_2
REMARK    2  A    between atoms: S_2  and  C_5
REMARK    3  A    between atoms: C_9  and  N_10
REMARK    4  A    between atoms: N_10  and  C_11
REMARK    5  A    between atoms: C_11  and  C_12
REMARK    6  A    between atoms: C_16  and  C_17
REMARK    7  A    between atoms: C_21  and  O_22
REMARK                            x       y       z     vdW  Elec       q    Type
REMARK                         _______ _______ _______ _____ _____    ______ ____
ROOT
ATOM      1  C   UNL     1      49.120   8.768  15.581  0.00  0.00    +0.000 C 
ATOM      2  C   UNL     1      49.240  10.236  15.987  0.00  0.00    +0.000 C 
ATOM      3  C   UNL     1      48.001   9.477  16.323  0.00  0.00    +0.000 C 
ENDROOT
BRANCH   1   4
ATOM      4  C   UNL     1      48.879   8.456  14.103  0.00  0.00    +0.000 A 
ATOM      5  C   UNL     1      49.893   8.601  13.143  0.00  0.00    +0.000 A 
ATOM      6  C   UNL     1      49.702   8.219  11.817  0.00  0.00    +0.000 A 
ATOM      7  C   UNL     1      48.490   7.654  11.424  0.00  0.00    +0.000 A 
ATOM      8  C   UNL     1      47.446   7.465  12.342  0.00  0.00    +0.000 A 
ATOM      9  C   UNL     1      47.653   7.919  13.660  0.00  0.00    +0.000 A 
BRANCH   8  10
ATOM     10  C   UNL     1      46.220   6.715  11.979  0.00  0.00    +0.000 A 
ATOM     11  C   UNL     1      46.157   5.976  10.781  0.00  0.00    +0.000 A 
ATOM     12  C   UNL     1      45.047   5.190  10.463  0.00  0.00    +0.000 A 
ATOM     13  C   UNL     1      43.976   5.106  11.344  0.00  0.00    +0.000 A 
ATOM     14  C   UNL     1      44.020   5.827  12.531  0.00  0.00    +0.000 A 
ATOM     15  C   UNL     1      45.112   6.635  12.842  0.00  0.00    +0.000 A 
BRANCH  14  16
ATOM     16  O   UNL     1      43.008   5.751  13.442  0.00  0.00    +0.000 OA
ATOM     17  H   UNL     1      43.390   5.825  14.332  0.00  0.00    +0.000 HD
ENDBRANCH  14  16
ENDBRANCH   8  10
ENDBRANCH   1   4
BRANCH   1  18
ATOM     18  N   UNL     1      50.070   7.867  16.269  0.00  0.00    +0.000 N 
ATOM     19  H   UNL     1      50.960   7.748  15.788  0.00  0.00    +0.000 HD
BRANCH  18  24
ATOM     20  C   UNL     1      48.568   4.601  17.265  0.00  0.00    +0.000 A 
ATOM     21  C   UNL     1      49.004   4.547  18.574  0.00  0.00    +0.000 A 
ATOM     22  N   UNL     1      49.725   5.539  19.141  0.00  0.00    +0.000 NA
ATOM     23  C   UNL     1      50.048   6.588  18.341  0.00  0.00    +0.000 A 
ATOM     24  C   UNL     1      49.703   6.714  16.989  0.00  0.00    +0.000 A 
ATOM     25  C   UNL     1      48.897   5.704  16.474  0.00  0.00    +0.000 A 
BRANCH  20  26
ATOM     26  S   UNL     1      47.733   3.233  16.562  0.00  0.00    +0.000 S 
ATOM     27  O   UNL     1      46.679   2.807  17.455  0.00  0.00    +0.000 OA
ATOM     28  O   UNL     1      48.707   2.312  16.027  0.00  0.00    +0.000 OA
BRANCH  26  29
ATOM     29  N   UNL     1      46.965   3.909  15.232  0.00  0.00    +0.000 NA
ATOM     30  H   UNL     1      47.661   4.320  14.608  0.00  0.00    +0.000 HD
ATOM     31  H   UNL     1      46.255   4.574  15.541  0.00  0.00    +0.000 HD
ENDBRANCH  26  29
ENDBRANCH  20  26
ENDBRANCH  18  24
ENDBRANCH   1  18
TORSDOF 7
ENDMDL
MODEL 4
REMARK VINA RESULT:    -6.644      2.545      3.518
REMARK INTER + INTRA:         -10.142
REMARK INTER:                  -9.686
REMARK INTRA:                  -0.456
REMARK UNBOUND:                -1.168
REMARK  Name = 
REMARK  7 active torsions:
REMARK  status: ('A' for Active; 'I' for Inactive)
REMARK    1  A    between atoms: N_1  and  S_2
REMARK    2  A    between atoms: S_2  and  C_5
REMARK    3  A    between atoms: C_9  and  N_10
REMARK    4  A    between atoms: N_10  and  C_11
REMARK    5  A    between atoms: C_11  and  C_12
REMARK    6  A    between atoms: C_16  and  C_17
REMARK    7  A    between atoms: C_21  and  O_22
REMARK                            x       y       z     vdW  Elec       q    Type
REMARK                         _______ _______ _______ _____ _____    ______ ____
ROOT
ATOM      1  C   UNL     1      44.819   3.705  12.529  0.00  0.00    +0.000 C 
ATOM      2  C   UNL     1      43.681   4.405  13.267  0.00  0.00    +0.000 C 
ATOM      3  C   UNL     1      43.483   3.020  12.754  0.00  0.00    +0.000 C 
ENDROOT
BRANCH   1   4
ATOM      4  C   UNL     1      45.128   4.160  11.101  0.00  0.00    +0.000 A 
ATOM      5  C   UNL     1      45.301   5.516  10.781  0.00  0.00    +0.000 A 
ATOM      6  C   UNL     1      45.684   5.920   9.504  0.00  0.00    +0.000 A 
ATOM      7  C   UNL     1      45.931   4.968   8.517  0.00  0.00    +0.000 A 
ATOM      8  C   UNL     1      45.795   3.596   8.783  0.00  0.00    +0.000 A 
ATOM      9  C   UNL     1      45.347   3.227  10.067  0.00  0.00    +0.000 A 
BRANCH   8  10
ATOM     10  C   UNL     1      46.214   2.570   7.800  0.00  0.00    +0.000 A 
ATOM     11  C   UNL     1      46.637   2.942   6.507  0.00  0.00    +0.000 A 
ATOM     12  C   UNL     1      47.121   2.002   5.596  0.00  0.00    +0.000 A 
ATOM     13  C   UNL     1      47.215   0.663   5.958  0.00  0.00    +0.000 A 
ATOM     14  C   UNL     1      46.804   0.277   7.228  0.00  0.00    +0.000 A 
ATOM     15  C   UNL     1      46.294   1.206   8.133  0.00  0.00    +0.000 A 
BRANCH  14  16
ATOM     16  O   UNL     1      46.907  -1.019   7.640  0.00  0.00    +0.000 OA
ATOM     17  H   UNL     1      46.392  -1.123   8.458  0.00  0.00    +0.000 HD
ENDBRANCH  14  16
ENDBRANCH   8  10
ENDBRANCH   1   4
BRANCH   1  18
ATOM     18  N   UNL     1      46.001   3.414  13.369  0.00  0.00    +0.000 N 
ATOM     19  H   UNL     1      45.925   2.561  13.920  0.00  0.00    +0.000 HD
BRANCH  18  24
ATOM     20  C   UNL     1      48.070   6.431  14.098  0.00  0.00    +0.000 A 
ATOM     21  C   UNL     1      48.384   6.169  15.418  0.00  0.00    +0.000 A 
ATOM     22  N   UNL     1      47.983   5.046  16.051  0.00  0.00    +0.000 NA
ATOM     23  C   UNL     1      47.204   4.192  15.337  0.00  0.00    +0.000 A 
ATOM     24  C   UNL     1      46.784   4.390  14.015  0.00  0.00    +0.000 A 
ATOM     25  C   UNL     1      47.286   5.523  13.384  0.00  0.00    +0.000 A 
BRANCH  20  26
ATOM     26  S   UNL     1      48.529   7.956  13.374  0.00  0.00    +0.000 S 
ATOM     27  O   UNL     1      49.952   8.155  13.540  0.00  0.00    +0.000 OA
ATOM     28  O   UNL     1      47.564   8.963  13.745  0.00  0.00    +0.000 OA
BRANCH  26  29
ATOM     29  N   UNL     1      48.291   7.677  11.737  0.00  0.00    +0.000 NA
ATOM     30  H   UNL     1      47.860   6.760  11.605  0.00  0.00    +0.000 HD
ATOM     31  H   UNL     1      49.173   7.786  11.233  0.00  0.00    +0.000 HD
ENDBRANCH  26  29
ENDBRANCH  20  26
ENDBRANCH  18  24
ENDBRANCH   1  18
TORSDOF 7
ENDMDL
MODEL 5
REMARK VINA RESULT:    -6.196      3.348      5.295
REMARK INTER + INTRA:          -9.537
REMARK INTER:                  -8.912
REMARK INTRA:                  -0.625
REMARK UNBOUND:                -1.168
REMARK  Name = 
REMARK  7 active torsions:
REMARK  status: ('A' for Active; 'I' for Inactive)
REMARK    1  A    between atoms: N_1  and  S_2
REMARK    2  A    between atoms: S_2  and  C_5
REMARK    3  A    between atoms: C_9  and  N_10
REMARK    4  A    between atoms: N_10  and  C_11
REMARK    5  A    between atoms: C_11  and  C_12
REMARK    6  A    between atoms: C_16  and  C_17
REMARK    7  A    between atoms: C_21  and  O_22
REMARK                            x       y       z     vdW  Elec       q    Type
REMARK                         _______ _______ _______ _____ _____    ______ ____
ROOT
ATOM      1  C   UNL     1      48.121   4.541  16.542  0.00  0.00    +0.000 C 
ATOM      2  C   UNL     1      47.020   3.781  17.279  0.00  0.00    +0.000 C 
ATOM      3  C   UNL     1      48.014   3.029  16.461  0.00  0.00    +0.000 C 
ENDROOT
BRANCH   1   4
ATOM      4  C   UNL     1      47.726   5.328  15.290  0.00  0.00    +0.000 A 
ATOM      5  C   UNL     1      48.414   6.489  14.902  0.00  0.00    +0.000 A 
ATOM      6  C   UNL     1      48.120   7.145  13.709  0.00  0.00    +0.000 A 
ATOM      7  C   UNL     1      47.142   6.635  12.857  0.00  0.00    +0.000 A 
ATOM      8  C   UNL     1      46.435   5.467  13.181  0.00  0.00    +0.000 A 
ATOM      9  C   UNL     1      46.715   4.865  14.424  0.00  0.00    +0.000 A 
BRANCH   8  10
ATOM     10  C   UNL     1      45.517   4.822  12.213  0.00  0.00    +0.000 A 
ATOM     11  C   UNL     1      45.481   5.239  10.867  0.00  0.00    +0.000 A 
ATOM     12  C   UNL     1      44.691   4.587   9.919  0.00  0.00    +0.000 A 
ATOM     13  C   UNL     1      43.926   3.486  10.286  0.00  0.00    +0.000 A 
ATOM     14  C   UNL     1      43.948   3.060  11.608  0.00  0.00    +0.000 A 
ATOM     15  C   UNL     1      44.714   3.722  12.566  0.00  0.00    +0.000 A 
BRANCH  14  16
ATOM     16  O   UNL     1      43.241   1.965  12.009  0.00  0.00    +0.000 OA
ATOM     17  H   UNL     1      42.299   2.201  12.037  0.00  0.00    +0.000 HD
ENDBRANCH  14  16
ENDBRANCH   8  10
ENDBRANCH   1   4
BRANCH   1  18
ATOM     18  N   UNL     1      49.095   5.212  17.429  0.00  0.00    +0.000 N 
ATOM     19  H   UNL     1      48.872   6.184  17.639  0.00  0.00    +0.000 HD
BRANCH  18  24
ATOM     20  C   UNL     1      52.469   3.662  17.788  0.00  0.00    +0.000 A 
ATOM     21  C   UNL     1      53.247   4.732  17.393  0.00  0.00    +0.000 A 
ATOM     22  N   UNL     1      52.719   5.929  17.057  0.00  0.00    +0.000 NA
ATOM     23  C   UNL     1      51.364   6.023  17.079  0.00  0.00    +0.000 A 
ATOM     24  C   UNL     1      50.485   4.984  17.411  0.00  0.00    +0.000 A 
ATOM     25  C   UNL     1      51.080   3.796  17.823  0.00  0.00    +0.000 A 
BRANCH  20  26
ATOM     26  S   UNL     1      53.210   2.108  18.103  0.00  0.00    +0.000 S 
ATOM     27  O   UNL     1      54.426   1.993  17.330  0.00  0.00    +0.000 OA
ATOM     28  O   UNL     1      52.190   1.088  18.087  0.00  0.00    +0.000 OA
BRANCH  26  29
ATOM     29  N   UNL     1      53.693   2.245  19.705  0.00  0.00    +0.000 NA
ATOM     30  H   UNL     1      53.613   3.218  20.005  0.00  0.00    +0.000 HD
ATOM     31  H   UNL     1      54.634   1.862  19.819  0.00  0.00    +0.000 HD
ENDBRANCH  26  29
ENDBRANCH  20  26
ENDBRANCH  18  24
ENDBRANCH   1  18
TORSDOF 7
ENDMDL
MODEL 6
REMARK VINA RESULT:    -6.167      4.555      6.600
REMARK INTER + INTRA:          -9.499
REMARK INTER:                  -8.195
REMARK INTRA:                  -1.304
REMARK UNBOUND:                -1.168
REMARK  Name = 
REMARK  7 active torsions:
REMARK  status: ('A' for Active; 'I' for Inactive)
REMARK    1  A    between atoms: N_1  and  S_2
REMARK    2  A    between atoms: S_2  and  C_5
REMARK    3  A    between atoms: C_9  and  N_10
REMARK    4  A    between atoms: N_10  and  C_11
REMARK    5  A    between atoms: C_11  and  C_12
REMARK    6  A    between atoms: C_16  and  C_17
REMARK    7  A    between atoms: C_21  and  O_22
REMARK                            x       y       z     vdW  Elec       q    Type
REMARK                         _______ _______ _______ _____ _____    ______ ____
ROOT
ATOM      1  C   UNL     1      48.712   9.390  12.617  0.00  0.00    +0.000 C 
ATOM      2  C   UNL     1      50.175   9.820  12.707  0.00  0.00    +0.000 C 
ATOM      3  C   UNL     1      49.609   9.402  11.392  0.00  0.00    +0.000 C 
ENDROOT
BRANCH   1   4
ATOM      4  C   UNL     1      48.338   8.019  13.184  0.00  0.00    +0.000 A 
ATOM      5  C   UNL     1      48.837   7.569  14.416  0.00  0.00    +0.000 A 
ATOM      6  C   UNL     1      48.414   6.366  14.978  0.00  0.00    +0.000 A 
ATOM      7  C   UNL     1      47.455   5.593  14.328  0.00  0.00    +0.000 A 
ATOM      8  C   UNL     1      46.903   6.001  13.103  0.00  0.00    +0.000 A 
ATOM      9  C   UNL     1      47.399   7.191  12.535  0.00  0.00    +0.000 A 
BRANCH   8  10
ATOM     10  C   UNL     1      45.766   5.279  12.486  0.00  0.00    +0.000 A 
ATOM     11  C   UNL     1      45.596   3.895  12.691  0.00  0.00    +0.000 A 
ATOM     12  C   UNL     1      44.484   3.212  12.194  0.00  0.00    +0.000 A 
ATOM     13  C   UNL     1      43.500   3.898  11.493  0.00  0.00    +0.000 A 
ATOM     14  C   UNL     1      43.650   5.263  11.280  0.00  0.00    +0.000 A 
ATOM     15  C   UNL     1      44.770   5.946  11.750  0.00  0.00    +0.000 A 
BRANCH  14  16
ATOM     16  O   UNL     1      42.695   5.985  10.626  0.00  0.00    +0.000 OA
ATOM     17  H   UNL     1      42.943   6.042   9.688  0.00  0.00    +0.000 HD
ENDBRANCH  14  16
ENDBRANCH   8  10
ENDBRANCH   1   4
BRANCH   1  18
ATOM     18  N   UNL     1      47.742  10.472  12.890  0.00  0.00    +0.000 N 
ATOM     19  H   UNL     1      47.353  10.460  13.832  0.00  0.00    +0.000 HD
BRANCH  18  24
ATOM     20  C   UNL     1      44.696  11.059  10.818  0.00  0.00    +0.000 A 
ATOM     21  C   UNL     1      45.181  12.052   9.989  0.00  0.00    +0.000 A 
ATOM     22  N   UNL     1      46.454  12.499  10.059  0.00  0.00    +0.000 NA
ATOM     23  C   UNL     1      47.237  11.955  11.026  0.00  0.00    +0.000 A 
ATOM     24  C   UNL     1      46.827  10.985  11.950  0.00  0.00    +0.000 A 
ATOM     25  C   UNL     1      45.533  10.503  11.788  0.00  0.00    +0.000 A 
BRANCH  20  26
ATOM     26  S   UNL     1      43.008  10.606  10.747  0.00  0.00    +0.000 S 
ATOM     27  O   UNL     1      42.501  10.858   9.417  0.00  0.00    +0.000 OA
ATOM     28  O   UNL     1      42.340  11.093  11.930  0.00  0.00    +0.000 OA
BRANCH  26  29
ATOM     29  N   UNL     1      43.064   8.937  10.910  0.00  0.00    +0.000 NA
ATOM     30  H   UNL     1      44.010   8.605  10.714  0.00  0.00    +0.000 HD
ATOM     31  H   UNL     1      42.353   8.504  10.318  0.00  0.00    +0.000 HD
ENDBRANCH  26  29
ENDBRANCH  20  26
ENDBRANCH  18  24
ENDBRANCH   1  18
TORSDOF 7
ENDMDL
MODEL 7
REMARK VINA RESULT:    -5.989      4.009      7.067
REMARK INTER + INTRA:          -9.258
REMARK INTER:                  -7.701
REMARK INTRA:                  -1.556
REMARK UNBOUND:                -1.168
REMARK  Name = 
REMARK  7 active torsions:
REMARK  status: ('A' for Active; 'I' for Inactive)
REMARK    1  A    between atoms: N_1  and  S_2
REMARK    2  A    between atoms: S_2  and  C_5
REMARK    3  A    between atoms: C_9  and  N_10
REMARK    4  A    between atoms: N_10  and  C_11
REMARK    5  A    between atoms: C_11  and  C_12
REMARK    6  A    between atoms: C_16  and  C_17
REMARK    7  A    between atoms: C_21  and  O_22
REMARK                            x       y       z     vdW  Elec       q    Type
REMARK                         _______ _______ _______ _____ _____    ______ ____
ROOT
ATOM      1  C   UNL     1      51.686   6.786  18.185  0.00  0.00    +0.000 C 
ATOM      2  C   UNL     1      52.246   7.652  19.312  0.00  0.00    +0.000 C 
ATOM      3  C   UNL     1      50.772   7.452  19.199  0.00  0.00    +0.000 C 
ENDROOT
BRANCH   1   4
ATOM      4  C   UNL     1      51.687   7.369  16.771  0.00  0.00    +0.000 A 
ATOM      5  C   UNL     1      52.858   7.873  16.183  0.00  0.00    +0.000 A 
ATOM      6  C   UNL     1      52.879   8.309  14.859  0.00  0.00    +0.000 A 
ATOM      7  C   UNL     1      51.727   8.222  14.080  0.00  0.00    +0.000 A 
ATOM      8  C   UNL     1      50.533   7.707  14.605  0.00  0.00    +0.000 A 
ATOM      9  C   UNL     1      50.531   7.335  15.965  0.00  0.00    +0.000 A 
BRANCH   8  10
ATOM     10  C   UNL     1      49.352   7.453  13.746  0.00  0.00    +0.000 A 
ATOM     11  C   UNL     1      49.351   7.844  12.392  0.00  0.00    +0.000 A 
ATOM     12  C   UNL     1      48.287   7.535  11.541  0.00  0.00    +0.000 A 
ATOM     13  C   UNL     1      47.202   6.809  12.017  0.00  0.00    +0.000 A 
ATOM     14  C   UNL     1      47.185   6.414  13.349  0.00  0.00    +0.000 A 
ATOM     15  C   UNL     1      48.231   6.743  14.210  0.00  0.00    +0.000 A 
BRANCH  14  16
ATOM     16  O   UNL     1      46.158   5.672  13.853  0.00  0.00    +0.000 OA
ATOM     17  H   UNL     1      46.520   5.050  14.505  0.00  0.00    +0.000 HD
ENDBRANCH  14  16
ENDBRANCH   8  10
ENDBRANCH   1   4
BRANCH   1  18
ATOM     18  N   UNL     1      52.051   5.356  18.279  0.00  0.00    +0.000 N 
ATOM     19  H   UNL     1      53.042   5.166  18.147  0.00  0.00    +0.000 HD
BRANCH  18  24
ATOM     20  C   UNL     1      49.158   3.290  17.146  0.00  0.00    +0.000 A 
ATOM     21  C   UNL     1      49.794   2.071  17.019  0.00  0.00    +0.000 A 
ATOM     22  N   UNL     1      51.099   1.897  17.321  0.00  0.00    +0.000 NA
ATOM     23  C   UNL     1      51.783   3.002  17.717  0.00  0.00    +0.000 A 
ATOM     24  C   UNL     1      51.247   4.292  17.826  0.00  0.00    +0.000 A 
ATOM     25  C   UNL     1      49.883   4.403  17.578  0.00  0.00    +0.000 A 
BRANCH  20  26
ATOM     26  S   UNL     1      47.495   3.469  16.633  0.00  0.00    +0.000 S 
ATOM     27  O   UNL     1      46.636   2.723  17.526  0.00  0.00    +0.000 OA
ATOM     28  O   UNL     1      47.426   3.322  15.199  0.00  0.00    +0.000 OA
BRANCH  26  29
ATOM     29  N   UNL     1      47.183   5.089  16.941  0.00  0.00    +0.000 NA
ATOM     30  H   UNL     1      46.176   5.232  17.033  0.00  0.00    +0.000 HD
ATOM     31  H   UNL     1      47.610   5.670  16.217  0.00  0.00    +0.000 HD
ENDBRANCH  26  29
ENDBRANCH  20  26
ENDBRANCH  18  24
ENDBRANCH   1  18
TORSDOF 7
ENDMDL
MODEL 8
REMARK VINA RESULT:    -5.908      3.599      5.704
REMARK INTER + INTRA:          -9.148
REMARK INTER:                  -8.169
REMARK INTRA:                  -0.980
REMARK UNBOUND:                -1.168
REMARK  Name = 
REMARK  7 active torsions:
REMARK  status: ('A' for Active; 'I' for Inactive)
REMARK    1  A    between atoms: N_1  and  S_2
REMARK    2  A    between atoms: S_2  and  C_5
REMARK    3  A    between atoms: C_9  and  N_10
REMARK    4  A    between atoms: N_10  and  C_11
REMARK    5  A    between atoms: C_11  and  C_12
REMARK    6  A    between atoms: C_16  and  C_17
REMARK    7  A    between atoms: C_21  and  O_22
REMARK                            x       y       z     vdW  Elec       q    Type
REMARK                         _______ _______ _______ _____ _____    ______ ____
ROOT
ATOM      1  C   UNL     1      47.821   4.508  16.948  0.00  0.00    +0.000 C 
ATOM      2  C   UNL     1      47.961   2.988  16.923  0.00  0.00    +0.000 C 
ATOM      3  C   UNL     1      49.155   3.834  17.212  0.00  0.00    +0.000 C 
ENDROOT
BRANCH   1   4
ATOM      4  C   UNL     1      47.667   5.231  15.608  0.00  0.00    +0.000 A 
ATOM      5  C   UNL     1      48.576   6.217  15.194  0.00  0.00    +0.000 A 
ATOM      6  C   UNL     1      48.493   6.800  13.931  0.00  0.00    +0.000 A 
ATOM      7  C   UNL     1      47.508   6.386  13.036  0.00  0.00    +0.000 A 
ATOM      8  C   UNL     1      46.584   5.390  13.386  0.00  0.00    +0.000 A 
ATOM      9  C   UNL     1      46.658   4.868  14.693  0.00  0.00    +0.000 A 
BRANCH   8  10
ATOM     10  C   UNL     1      45.641   4.824  12.393  0.00  0.00    +0.000 A 
ATOM     11  C   UNL     1      45.598   5.323  11.075  0.00  0.00    +0.000 A 
ATOM     12  C   UNL     1      44.783   4.745  10.099  0.00  0.00    +0.000 A 
ATOM     13  C   UNL     1      44.001   3.638  10.409  0.00  0.00    +0.000 A 
ATOM     14  C   UNL     1      44.031   3.131  11.702  0.00  0.00    +0.000 A 
ATOM     15  C   UNL     1      44.821   3.720  12.688  0.00  0.00    +0.000 A 
BRANCH  14  16
ATOM     16  O   UNL     1      43.307   2.027  12.044  0.00  0.00    +0.000 OA
ATOM     17  H   UNL     1      43.839   1.489  12.654  0.00  0.00    +0.000 HD
ENDBRANCH  14  16
ENDBRANCH   8  10
ENDBRANCH   1   4
BRANCH   1  18
ATOM     18  N   UNL     1      46.971   5.022  18.043  0.00  0.00    +0.000 N 
ATOM     19  H   UNL     1      45.979   5.071  17.818  0.00  0.00    +0.000 HD
BRANCH  18  24
ATOM     20  C   UNL     1      48.203   8.215  19.530  0.00  0.00    +0.000 A 
ATOM     21  C   UNL     1      48.146   7.872  20.866  0.00  0.00    +0.000 A 
ATOM     22  N   UNL     1      47.765   6.647  21.287  0.00  0.00    +0.000 NA
ATOM     23  C   UNL     1      47.386   5.766  20.325  0.00  0.00    +0.000 A 
ATOM     24  C   UNL     1      47.354   6.031  18.949  0.00  0.00    +0.000 A 
ATOM     25  C   UNL     1      47.829   7.279  18.563  0.00  0.00    +0.000 A 
BRANCH  20  26
ATOM     26  S   UNL     1      48.601   9.853  19.061  0.00  0.00    +0.000 S 
ATOM     27  O   UNL     1      49.451  10.445  20.069  0.00  0.00    +0.000 OA
ATOM     28  O   UNL     1      47.408  10.508  18.579  0.00  0.00    +0.000 OA
BRANCH  26  29
ATOM     29  N   UNL     1      49.574   9.628  17.712  0.00  0.00    +0.000 NA
ATOM     30  H   UNL     1      50.524   9.940  17.920  0.00  0.00    +0.000 HD
ATOM     31  H   UNL     1      49.162  10.095  16.903  0.00  0.00    +0.000 HD
ENDBRANCH  26  29
ENDBRANCH  20  26
ENDBRANCH  18  24
ENDBRANCH   1  18
TORSDOF 7
ENDMDL
MODEL 9
REMARK VINA RESULT:    -5.754      4.094      9.505
REMARK INTER + INTRA:          -8.941
REMARK INTER:                  -7.905
REMARK INTRA:                  -1.036
REMARK UNBOUND:                -1.168
REMARK  Name = 
REMARK  7 active torsions:
REMARK  status: ('A' for Active; 'I' for Inactive)
REMARK    1  A    between atoms: N_1  and  S_2
REMARK    2  A    between atoms: S_2  and  C_5
REMARK    3  A    between atoms: C_9  and  N_10
REMARK    4  A    between atoms: N_10  and  C_11
REMARK    5  A    between atoms: C_11  and  C_12
REMARK    6  A    between atoms: C_16  and  C_17
REMARK    7  A    between atoms: C_21  and  O_22
REMARK                            x       y       z     vdW  Elec       q    Type
REMARK                         _______ _______ _______ _____ _____    ______ ____
ROOT
ATOM      1  C   UNL     1      48.072   4.614  16.494  0.00  0.00    +0.000 C 
ATOM      2  C   UNL     1      48.297   3.215  17.064  0.00  0.00    +0.000 C 
ATOM      3  C   UNL     1      46.969   3.873  17.228  0.00  0.00    +0.000 C 
ENDROOT
BRANCH   1   4
ATOM      4  C   UNL     1      48.715   5.794  17.227  0.00  0.00    +0.000 A 
ATOM      5  C   UNL     1      49.927   6.356  16.797  0.00  0.00    +0.000 A 
ATOM      6  C   UNL     1      50.458   7.493  17.403  0.00  0.00    +0.000 A 
ATOM      7  C   UNL     1      49.768   8.114  18.442  0.00  0.00    +0.000 A 
ATOM      8  C   UNL     1      48.542   7.611  18.902  0.00  0.00    +0.000 A 
ATOM      9  C   UNL     1      48.066   6.424  18.308  0.00  0.00    +0.000 A 
BRANCH   8  10
ATOM     10  C   UNL     1      47.719   8.351  19.887  0.00  0.00    +0.000 A 
ATOM     11  C   UNL     1      47.660   7.934  21.233  0.00  0.00    +0.000 A 
ATOM     12  C   UNL     1      46.965   8.667  22.197  0.00  0.00    +0.000 A 
ATOM     13  C   UNL     1      46.324   9.850  21.846  0.00  0.00    +0.000 A 
ATOM     14  C   UNL     1      46.371  10.277  20.525  0.00  0.00    +0.000 A 
ATOM     15  C   UNL     1      47.040   9.536  19.552  0.00  0.00    +0.000 A 
BRANCH  14  16
ATOM     16  O   UNL     1      45.786  11.447  20.139  0.00  0.00    +0.000 OA
ATOM     17  H   UNL     1      44.873  11.457  20.471  0.00  0.00    +0.000 HD
ENDBRANCH  14  16
ENDBRANCH   8  10
ENDBRANCH   1   4
BRANCH   1  18
ATOM     18  N   UNL     1      48.122   4.685  15.018  0.00  0.00    +0.000 N 
ATOM     19  H   UNL     1      49.051   4.856  14.637  0.00  0.00    +0.000 HD
BRANCH  18  24
ATOM     20  C   UNL     1      45.065   5.146  12.930  0.00  0.00    +0.000 A 
ATOM     21  C   UNL     1      45.257   6.458  12.544  0.00  0.00    +0.000 A 
ATOM     22  N   UNL     1      46.348   7.169  12.905  0.00  0.00    +0.000 NA
ATOM     23  C   UNL     1      47.239   6.544  13.716  0.00  0.00    +0.000 A 
ATOM     24  C   UNL     1      47.112   5.238  14.207  0.00  0.00    +0.000 A 
ATOM     25  C   UNL     1      46.012   4.523  13.746  0.00  0.00    +0.000 A 
BRANCH  20  26
ATOM     26  S   UNL     1      43.578   4.320  12.518  0.00  0.00    +0.000 S 
ATOM     27  O   UNL     1      42.454   5.111  12.965  0.00  0.00    +0.000 OA
ATOM     28  O   UNL     1      43.712   2.920  12.844  0.00  0.00    +0.000 OA
BRANCH  26  29
ATOM     29  N   UNL     1      43.561   4.399  10.842  0.00  0.00    +0.000 NA
ATOM     30  H   UNL     1      43.653   3.458  10.454  0.00  0.00    +0.000 HD
ATOM     31  H   UNL     1      44.283   5.044  10.516  0.00  0.00    +0.000 HD
ENDBRANCH  26  29
ENDBRANCH  20  26
ENDBRANCH  18  24
ENDBRANCH   1  18
TORSDOF 7
ENDMDL
