MODEL 1
REMARK VINA RESULT:    -7.080      0.000      0.000
REMARK INTER + INTRA:         -13.038
REMARK INTER:                 -11.218
REMARK INTRA:                  -1.819
REMARK UNBOUND:                -1.819
REMARK  Name = 
REMARK  11 active torsions:
REMARK  status: ('A' for Active; 'I' for Inactive)
REMARK    1  A    between atoms: C_1  and  C_2
REMARK    2  A    between atoms: C_2  and  O_3
REMARK    3  A    between atoms: O_3  and  C_4
REMARK    4  A    between atoms: C_4  and  C_6
REMARK    5  A    between atoms: C_6  and  C_7
REMARK    6  A    between atoms: C_12  and  C_13
REMARK    7  A    between atoms: N_15  and  C_16
REMARK    8  A    between atoms: C_16  and  C_17
REMARK    9  A    between atoms: C_20  and  C_21
REMARK   10  A    between atoms: C_21  and  N_22
REMARK   11  A    between atoms: C_23  and  C_25
REMARK                            x       y       z     vdW  Elec       q    Type
REMARK                         _______ _______ _______ _____ _____    ______ ____
ROOT
ATOM      1  C   UNL     1      50.484   7.212  15.396  0.00  0.00    +0.000 A 
ATOM      2  C   UNL     1      51.049   7.904  14.315  0.00  0.00    +0.000 A 
ATOM      3  C   UNL     1      50.264   8.273  13.223  0.00  0.00    +0.000 A 
ATOM      4  C   UNL     1      48.903   7.947  13.187  0.00  0.00    +0.000 A 
ATOM      5  C   UNL     1      48.350   7.206  14.239  0.00  0.00    +0.000 A 
ATOM      6  C   UNL     1      49.132   6.844  15.335  0.00  0.00    +0.000 A 
ENDROOT
BRANCH   1   7
ATOM      7  C   UNL     1      51.278   6.989  16.657  0.00  0.00    +0.000 C 
BRANCH   7  10
ATOM      8  C   UNL     1      50.145   6.217  18.703  0.00  0.00    +0.000 C 
ATOM      9  O   UNL     1      50.104   7.354  19.160  0.00  0.00    +0.000 OA
ATOM     10  N   UNL     1      50.721   5.927  17.483  0.00  0.00    +0.000 N 
ATOM     11  H   UNL     1      50.473   5.060  17.030  0.00  0.00    +0.000 HD
BRANCH   8  17
ATOM     12  C   UNL     1      48.002   5.012  19.463  0.00  0.00    +0.000 C 
ATOM     13  C   UNL     1      47.442   6.121  20.375  0.00  0.00    +0.000 C 
ATOM     14  C   UNL     1      47.999   6.009  21.790  0.00  0.00    +0.000 C 
ATOM     15  C   UNL     1      49.523   5.965  21.812  0.00  0.00    +0.000 C 
ATOM     16  C   UNL     1      50.097   4.900  20.875  0.00  0.00    +0.000 C 
ATOM     17  C   UNL     1      49.554   5.010  19.440  0.00  0.00    +0.000 C 
BRANCH  12  18
ATOM     18  C   UNL     1      47.414   5.079  18.052  0.00  0.00    +0.000 C 
BRANCH  18  19
ATOM     19  C   UNL     1      47.427   3.737  17.373  0.00  0.00    +0.000 C 
ATOM     20  O   UNL     1      46.551   2.893  17.503  0.00  0.00    +0.000 OA
BRANCH  19  21
ATOM     21  O   UNL     1      48.585   3.585  16.677  0.00  0.00    +0.000 OA
BRANCH  21  23
ATOM     22  C   UNL     1      50.489   2.250  17.187  0.00  0.00    +0.000 C 
ATOM     23  C   UNL     1      49.085   2.246  16.605  0.00  0.00    +0.000 C 
ENDBRANCH  21  23
ENDBRANCH  19  21
ENDBRANCH  18  19
ENDBRANCH  12  18
ENDBRANCH   8  17
ENDBRANCH   7  10
ENDBRANCH   1   7
BRANCH   4  24
ATOM     24  C   UNL     1      48.051   8.337  12.012  0.00  0.00    +0.000 C 
BRANCH  24  25
ATOM     25  N   UNL     1      47.419   7.170  11.457  0.00  0.00    +0.000 N 
ATOM     26  C   UNL     1      46.059   7.040  11.419  0.00  0.00    +0.000 C 
ATOM     27  O   UNL     1      45.308   7.927  11.818  0.00  0.00    +0.000 OA
ATOM     28  H   UNL     1      48.009   6.354  11.321  0.00  0.00    +0.000 HD
BRANCH  26  29
ATOM     29  C   UNL     1      45.540   5.808  10.813  0.00  0.00    +0.000 A 
ATOM     30  C   UNL     1      45.786   5.556   9.471  0.00  0.00    +0.000 A 
ATOM     31  S   UNL     1      45.170   4.061   8.932  0.00  0.00    +0.000 S 
ATOM     32  C   UNL     1      44.508   3.719  10.463  0.00  0.00    +0.000 A 
ATOM     33  N   UNL     1      43.813   2.571  10.681  0.00  0.00    +0.000 NA
ATOM     34  C   UNL     1      43.348   2.450  11.878  0.00  0.00    +0.000 A 
ATOM     35  N   UNL     1      43.514   3.372  12.879  0.00  0.00    +0.000 N 
ATOM     36  C   UNL     1      44.226   4.536  12.712  0.00  0.00    +0.000 A 
ATOM     37  O   UNL     1      44.381   5.325  13.638  0.00  0.00    +0.000 OA
ATOM     38  C   UNL     1      44.769   4.724  11.378  0.00  0.00    +0.000 A 
ATOM     39  H   UNL     1      43.126   3.217  13.798  0.00  0.00    +0.000 HD
ENDBRANCH  26  29
ENDBRANCH  24  25
ENDBRANCH   4  24
TORSDOF 10
ENDMDL
MODEL 2
REMARK VINA RESULT:    -7.046      1.286      1.956
REMARK INTER + INTRA:         -12.985
REMARK INTER:                 -11.292
REMARK INTRA:                  -1.693
REMARK UNBOUND:                -1.819
REMARK  Name = 
REMARK  11 active torsions:
REMARK  status: ('A' for Active; 'I' for Inactive)
REMARK    1  A    between atoms: C_1  and  C_2
REMARK    2  A    between atoms: C_2  and  O_3
REMARK    3  A    between atoms: O_3  and  C_4
REMARK    4  A    between atoms: C_4  and  C_6
REMARK    5  A    between atoms: C_6  and  C_7
REMARK    6  A    between atoms: C_12  and  C_13
REMARK    7  A    between atoms: N_15  and  C_16
REMARK    8  A    between atoms: C_16  and  C_17
REMARK    9  A    between atoms: C_20  and  C_21
REMARK   10  A    between atoms: C_21  and  N_22
REMARK   11  A    between atoms: C_23  and  C_25
REMARK                            x       y       z     vdW  Elec       q    Type
REMARK                         _______ _______ _______ _____ _____    ______ ____
ROOT
ATOM      1  C   UNL     1      50.254   8.185  15.363  0.00  0.00    +0.000 A 
ATOM      2  C   UNL     1      48.853   8.241  15.403  0.00  0.00    +0.000 A 
ATOM      3  C   UNL     1      48.109   8.195  14.225  0.00  0.00    +0.000 A 
ATOM      4  C   UNL     1      48.752   8.103  12.984  0.00  0.00    +0.000 A 
ATOM      5  C   UNL     1      50.152   8.106  12.939  0.00  0.00    +0.000 A 
ATOM      6  C   UNL     1      50.896   8.143  14.117  0.00  0.00    +0.000 A 
ENDROOT
BRANCH   1   7
ATOM      7  C   UNL     1      51.047   8.034  16.635  0.00  0.00    +0.000 C 
BRANCH   7  10
ATOM      8  C   UNL     1      49.926   6.944  18.537  0.00  0.00    +0.000 C 
ATOM      9  O   UNL     1      49.573   8.022  19.002  0.00  0.00    +0.000 OA
ATOM     10  N   UNL     1      50.676   6.842  17.382  0.00  0.00    +0.000 N 
ATOM     11  H   UNL     1      50.685   5.958  16.895  0.00  0.00    +0.000 HD
BRANCH   8  17
ATOM     12  C   UNL     1      48.099   5.172  18.919  0.00  0.00    +0.000 C 
ATOM     13  C   UNL     1      47.088   6.063  19.667  0.00  0.00    +0.000 C 
ATOM     14  C   UNL     1      47.371   6.084  21.165  0.00  0.00    +0.000 C 
ATOM     15  C   UNL     1      48.813   6.468  21.479  0.00  0.00    +0.000 C 
ATOM     16  C   UNL     1      49.830   5.625  20.706  0.00  0.00    +0.000 C 
ATOM     17  C   UNL     1      49.565   5.606  19.191  0.00  0.00    +0.000 C 
BRANCH  12  18
ATOM     18  C   UNL     1      47.799   5.099  17.420  0.00  0.00    +0.000 C 
BRANCH  18  19
ATOM     19  C   UNL     1      47.482   3.697  16.978  0.00  0.00    +0.000 C 
ATOM     20  O   UNL     1      46.521   3.052  17.374  0.00  0.00    +0.000 OA
BRANCH  19  21
ATOM     21  O   UNL     1      48.462   3.243  16.151  0.00  0.00    +0.000 OA
BRANCH  21  23
ATOM     22  C   UNL     1      50.388   2.452  17.306  0.00  0.00    +0.000 C 
ATOM     23  C   UNL     1      49.117   2.045  16.579  0.00  0.00    +0.000 C 
ENDBRANCH  21  23
ENDBRANCH  19  21
ENDBRANCH  18  19
ENDBRANCH  12  18
ENDBRANCH   8  17
ENDBRANCH   7  10
ENDBRANCH   1   7
BRANCH   4  24
ATOM     24  C   UNL     1      47.957   8.059  11.709  0.00  0.00    +0.000 C 
BRANCH  24  25
ATOM     25  N   UNL     1      47.170   6.855  11.665  0.00  0.00    +0.000 N 
ATOM     26  C   UNL     1      45.803   6.891  11.698  0.00  0.00    +0.000 C 
ATOM     27  O   UNL     1      45.179   7.948  11.726  0.00  0.00    +0.000 OA
ATOM     28  H   UNL     1      47.658   5.985  11.853  0.00  0.00    +0.000 HD
BRANCH  26  29
ATOM     29  C   UNL     1      45.118   5.594  11.631  0.00  0.00    +0.000 A 
ATOM     30  C   UNL     1      44.437   5.128  12.746  0.00  0.00    +0.000 A 
ATOM     31  S   UNL     1      43.647   3.639  12.491  0.00  0.00    +0.000 S 
ATOM     32  C   UNL     1      44.230   3.541  10.895  0.00  0.00    +0.000 A 
ATOM     33  N   UNL     1      43.930   2.472  10.109  0.00  0.00    +0.000 NA
ATOM     34  C   UNL     1      44.455   2.514   8.931  0.00  0.00    +0.000 A 
ATOM     35  N   UNL     1      45.254   3.528   8.466  0.00  0.00    +0.000 N 
ATOM     36  C   UNL     1      45.566   4.637   9.216  0.00  0.00    +0.000 A 
ATOM     37  O   UNL     1      46.258   5.540   8.758  0.00  0.00    +0.000 OA
ATOM     38  C   UNL     1      45.002   4.638  10.555  0.00  0.00    +0.000 A 
ATOM     39  H   UNL     1      45.632   3.503   7.531  0.00  0.00    +0.000 HD
ENDBRANCH  26  29
ENDBRANCH  24  25
ENDBRANCH   4  24
TORSDOF 10
ENDMDL
MODEL 3
REMARK VINA RESULT:    -6.489      1.514      1.736
REMARK INTER + INTRA:         -12.101
REMARK INTER:                  -9.733
REMARK INTRA:                  -2.368
REMARK UNBOUND:                -1.819
REMARK  Name = 
REMARK  11 active torsions:
REMARK  status: ('A' for Active; 'I' for Inactive)
REMARK    1  A    between atoms: C_1  and  C_2
REMARK    2  A    between atoms: C_2  and  O_3
REMARK    3  A    between atoms: O_3  and  C_4
REMARK    4  A    between atoms: C_4  and  C_6
REMARK    5  A    between atoms: C_6  and  C_7
REMARK    6  A    between atoms: C_12  and  C_13
REMARK    7  A    between atoms: N_15  and  C_16
REMARK    8  A    between atoms: C_16  and  C_17
REMARK    9  A    between atoms: C_20  and  C_21
REMARK   10  A    between atoms: C_21  and  N_22
REMARK   11  A    between atoms: C_23  and  C_25
REMARK                            x       y       z     vdW  Elec       q    Type
REMARK                         _______ _______ _______ _____ _____    ______ ____
ROOT
ATOM      1  C   UNL     1      50.825   8.442  16.047  0.00  0.00    +0.000 A 
ATOM      2  C   UNL     1      49.680   9.236  16.203  0.00  0.00    +0.000 A 
ATOM      3  C   UNL     1      48.844   9.495  15.117  0.00  0.00    +0.000 A 
ATOM      4  C   UNL     1      49.144   8.974  13.853  0.00  0.00    +0.000 A 
ATOM      5  C   UNL     1      50.319   8.229  13.682  0.00  0.00    +0.000 A 
ATOM      6  C   UNL     1      51.150   7.963  14.769  0.00  0.00    +0.000 A 
ENDROOT
BRANCH   1   7
ATOM      7  C   UNL     1      51.616   7.998  17.250  0.00  0.00    +0.000 C 
BRANCH   7  10
ATOM      8  C   UNL     1      50.254   6.765  18.890  0.00  0.00    +0.000 C 
ATOM      9  O   UNL     1      49.900   7.803  19.440  0.00  0.00    +0.000 OA
ATOM     10  N   UNL     1      51.117   6.752  17.813  0.00  0.00    +0.000 N 
ATOM     11  H   UNL     1      51.141   5.929  17.229  0.00  0.00    +0.000 HD
BRANCH   8  17
ATOM     12  C   UNL     1      48.269   5.135  19.035  0.00  0.00    +0.000 C 
ATOM     13  C   UNL     1      47.348   5.994  19.922  0.00  0.00    +0.000 C 
ATOM     14  C   UNL     1      47.633   5.766  21.402  0.00  0.00    +0.000 C 
ATOM     15  C   UNL     1      49.106   5.963  21.746  0.00  0.00    +0.000 C 
ATOM     16  C   UNL     1      50.037   5.153  20.842  0.00  0.00    +0.000 C 
ATOM     17  C   UNL     1      49.769   5.385  19.345  0.00  0.00    +0.000 C 
BRANCH  12  18
ATOM     18  C   UNL     1      47.960   5.314  17.546  0.00  0.00    +0.000 C 
BRANCH  18  19
ATOM     19  C   UNL     1      47.676   4.001  16.869  0.00  0.00    +0.000 C 
ATOM     20  O   UNL     1      46.582   3.453  16.865  0.00  0.00    +0.000 OA
BRANCH  19  21
ATOM     21  O   UNL     1      48.825   3.494  16.349  0.00  0.00    +0.000 OA
BRANCH  21  23
ATOM     22  C   UNL     1      50.679   2.366  17.329  0.00  0.00    +0.000 C 
ATOM     23  C   UNL     1      49.233   2.230  16.882  0.00  0.00    +0.000 C 
ENDBRANCH  21  23
ENDBRANCH  19  21
ENDBRANCH  18  19
ENDBRANCH  12  18
ENDBRANCH   8  17
ENDBRANCH   7  10
ENDBRANCH   1   7
BRANCH   4  24
ATOM     24  C   UNL     1      48.252   9.252  12.676  0.00  0.00    +0.000 C 
BRANCH  24  25
ATOM     25  N   UNL     1      47.439   8.099  12.394  0.00  0.00    +0.000 N 
ATOM     26  C   UNL     1      46.087   8.108  12.600  0.00  0.00    +0.000 C 
ATOM     27  O   UNL     1      45.494   9.108  12.994  0.00  0.00    +0.000 OA
ATOM     28  H   UNL     1      47.926   7.216  12.274  0.00  0.00    +0.000 HD
BRANCH  26  29
ATOM     29  C   UNL     1      45.370   6.873  12.258  0.00  0.00    +0.000 A 
ATOM     30  C   UNL     1      44.210   6.948  11.500  0.00  0.00    +0.000 A 
ATOM     31  S   UNL     1      43.530   5.428  11.140  0.00  0.00    +0.000 S 
ATOM     32  C   UNL     1      44.735   4.617  12.026  0.00  0.00    +0.000 A 
ATOM     33  N   UNL     1      44.723   3.261  12.139  0.00  0.00    +0.000 NA
ATOM     34  C   UNL     1      45.680   2.779  12.857  0.00  0.00    +0.000 A 
ATOM     35  N   UNL     1      46.650   3.528  13.475  0.00  0.00    +0.000 N 
ATOM     36  C   UNL     1      46.714   4.897  13.372  0.00  0.00    +0.000 A 
ATOM     37  O   UNL     1      47.612   5.533  13.912  0.00  0.00    +0.000 OA
ATOM     38  C   UNL     1      45.655   5.493  12.576  0.00  0.00    +0.000 A 
ATOM     39  H   UNL     1      47.375   3.089  14.022  0.00  0.00    +0.000 HD
ENDBRANCH  26  29
ENDBRANCH  24  25
ENDBRANCH   4  24
TORSDOF 10
ENDMDL
MODEL 4
REMARK VINA RESULT:    -6.486      3.117      7.725
REMARK INTER + INTRA:         -12.098
REMARK INTER:                  -9.958
REMARK INTRA:                  -2.140
REMARK UNBOUND:                -1.819
REMARK  Name = 
REMARK  11 active torsions:
REMARK  status: ('A' for Active; 'I' for Inactive)
REMARK    1  A    between atoms: C_1  and  C_2
REMARK    2  A    between atoms: C_2  and  O_3
REMARK    3  A    between atoms: O_3  and  C_4
REMARK    4  A    between atoms: C_4  and  C_6
REMARK    5  A    between atoms: C_6  and  C_7
REMARK    6  A    between atoms: C_12  and  C_13
REMARK    7  A    between atoms: N_15  and  C_16
REMARK    8  A    between atoms: C_16  and  C_17
REMARK    9  A    between atoms: C_20  and  C_21
REMARK   10  A    between atoms: C_21  and  N_22
REMARK   11  A    between atoms: C_23  and  C_25
REMARK                            x       y       z     vdW  Elec       q    Type
REMARK                         _______ _______ _______ _____ _____    ______ ____
ROOT
ATOM      1  C   UNL     1      47.495   8.803  12.410  0.00  0.00    +0.000 A 
ATOM      2  C   UNL     1      48.245   7.752  11.863  0.00  0.00    +0.000 A 
ATOM      3  C   UNL     1      49.624   7.688  12.060  0.00  0.00    +0.000 A 
ATOM      4  C   UNL     1      50.280   8.680  12.800  0.00  0.00    +0.000 A 
ATOM      5  C   UNL     1      49.541   9.761  13.298  0.00  0.00    +0.000 A 
ATOM      6  C   UNL     1      48.162   9.821  13.108  0.00  0.00    +0.000 A 
ENDROOT
BRANCH   1   7
ATOM      7  C   UNL     1      45.989   8.769  12.367  0.00  0.00    +0.000 C 
BRANCH   7  10
ATOM      8  C   UNL     1      45.007   6.511  12.323  0.00  0.00    +0.000 C 
ATOM      9  O   UNL     1      45.026   6.481  11.096  0.00  0.00    +0.000 OA
ATOM     10  N   UNL     1      45.442   7.603  13.046  0.00  0.00    +0.000 N 
ATOM     11  H   UNL     1      45.679   7.470  14.018  0.00  0.00    +0.000 HD
BRANCH   8  17
ATOM     12  C   UNL     1      45.304   4.028  12.929  0.00  0.00    +0.000 C 
ATOM     13  C   UNL     1      45.026   3.431  11.536  0.00  0.00    +0.000 C 
ATOM     14  C   UNL     1      43.535   3.193  11.323  0.00  0.00    +0.000 C 
ATOM     15  C   UNL     1      42.704   4.444  11.585  0.00  0.00    +0.000 C 
ATOM     16  C   UNL     1      43.004   5.078  12.945  0.00  0.00    +0.000 C 
ATOM     17  C   UNL     1      44.504   5.336  13.168  0.00  0.00    +0.000 C 
BRANCH  12  18
ATOM     18  C   UNL     1      46.801   4.226  13.179  0.00  0.00    +0.000 C 
BRANCH  18  19
ATOM     19  C   UNL     1      47.074   4.777  14.552  0.00  0.00    +0.000 C 
ATOM     20  O   UNL     1      47.655   5.833  14.765  0.00  0.00    +0.000 OA
BRANCH  19  21
ATOM     21  O   UNL     1      46.657   3.891  15.495  0.00  0.00    +0.000 OA
BRANCH  21  23
ATOM     22  C   UNL     1      48.374   2.774  16.707  0.00  0.00    +0.000 C 
ATOM     23  C   UNL     1      47.381   3.923  16.728  0.00  0.00    +0.000 C 
ENDBRANCH  21  23
ENDBRANCH  19  21
ENDBRANCH  18  19
ENDBRANCH  12  18
ENDBRANCH   8  17
ENDBRANCH   7  10
ENDBRANCH   1   7
BRANCH   4  24
ATOM     24  C   UNL     1      51.766   8.621  13.014  0.00  0.00    +0.000 C 
BRANCH  24  25
ATOM     25  N   UNL     1      52.080   7.623  14.001  0.00  0.00    +0.000 N 
ATOM     26  C   UNL     1      52.343   7.958  15.301  0.00  0.00    +0.000 C 
ATOM     27  O   UNL     1      52.285   9.117  15.700  0.00  0.00    +0.000 OA
ATOM     28  H   UNL     1      52.337   6.704  13.654  0.00  0.00    +0.000 HD
BRANCH  26  29
ATOM     29  C   UNL     1      52.633   6.844  16.212  0.00  0.00    +0.000 A 
ATOM     30  C   UNL     1      53.897   6.270  16.202  0.00  0.00    +0.000 A 
ATOM     31  S   UNL     1      54.094   5.030  17.354  0.00  0.00    +0.000 S 
ATOM     32  C   UNL     1      52.481   5.182  17.875  0.00  0.00    +0.000 A 
ATOM     33  N   UNL     1      51.986   4.378  18.853  0.00  0.00    +0.000 NA
ATOM     34  C   UNL     1      50.744   4.584  19.134  0.00  0.00    +0.000 A 
ATOM     35  N   UNL     1      49.949   5.521  18.526  0.00  0.00    +0.000 N 
ATOM     36  C   UNL     1      50.411   6.371  17.548  0.00  0.00    +0.000 A 
ATOM     37  O   UNL     1      49.681   7.219  17.047  0.00  0.00    +0.000 OA
ATOM     38  C   UNL     1      51.805   6.178  17.191  0.00  0.00    +0.000 A 
ATOM     39  H   UNL     1      48.983   5.636  18.794  0.00  0.00    +0.000 HD
ENDBRANCH  26  29
ENDBRANCH  24  25
ENDBRANCH   4  24
TORSDOF 10
ENDMDL
MODEL 5
REMARK VINA RESULT:    -5.802      3.290      8.398
REMARK INTER + INTRA:         -11.013
REMARK INTER:                  -9.643
REMARK INTRA:                  -1.370
REMARK UNBOUND:                -1.819
REMARK  Name = 
REMARK  11 active torsions:
REMARK  status: ('A' for Active; 'I' for Inactive)
REMARK    1  A    between atoms: C_1  and  C_2
REMARK    2  A    between atoms: C_2  and  O_3
REMARK    3  A    between atoms: O_3  and  C_4
REMARK    4  A    between atoms: C_4  and  C_6
REMARK    5  A    between atoms: C_6  and  C_7
REMARK    6  A    between atoms: C_12  and  C_13
REMARK    7  A    between atoms: N_15  and  C_16
REMARK    8  A    between atoms: C_16  and  C_17
REMARK    9  A    between atoms: C_20  and  C_21
REMARK   10  A    between atoms: C_21  and  N_22
REMARK   11  A    between atoms: C_23  and  C_25
REMARK                            x       y       z     vdW  Elec       q    Type
REMARK                         _______ _______ _______ _____ _____    ______ ____
ROOT
ATOM      1  C   UNL     1      48.786   8.672  12.671  0.00  0.00    +0.000 A 
ATOM      2  C   UNL     1      49.907   7.971  13.137  0.00  0.00    +0.000 A 
ATOM      3  C   UNL     1      50.465   8.271  14.380  0.00  0.00    +0.000 A 
ATOM      4  C   UNL     1      49.917   9.287  15.174  0.00  0.00    +0.000 A 
ATOM      5  C   UNL     1      48.833  10.027  14.684  0.00  0.00    +0.000 A 
ATOM      6  C   UNL     1      48.271   9.721  13.446  0.00  0.00    +0.000 A 
ENDROOT
BRANCH   1   7
ATOM      7  C   UNL     1      48.065   8.219  11.428  0.00  0.00    +0.000 C 
BRANCH   7  10
ATOM      8  C   UNL     1      46.207   6.624  11.682  0.00  0.00    +0.000 C 
ATOM      9  O   UNL     1      45.382   7.529  11.746  0.00  0.00    +0.000 OA
ATOM     10  N   UNL     1      47.559   6.859  11.545  0.00  0.00    +0.000 N 
ATOM     11  H   UNL     1      48.144   6.108  11.207  0.00  0.00    +0.000 HD
BRANCH   8  17
ATOM     12  C   UNL     1      44.894   4.711  10.568  0.00  0.00    +0.000 C 
ATOM     13  C   UNL     1      43.483   5.320  10.687  0.00  0.00    +0.000 C 
ATOM     14  C   UNL     1      42.841   4.971  12.025  0.00  0.00    +0.000 C 
ATOM     15  C   UNL     1      43.727   5.343  13.209  0.00  0.00    +0.000 C 
ATOM     16  C   UNL     1      45.147   4.788  13.082  0.00  0.00    +0.000 C 
ATOM     17  C   UNL     1      45.812   5.144  11.742  0.00  0.00    +0.000 C 
BRANCH  12  18
ATOM     18  C   UNL     1      45.533   5.009   9.209  0.00  0.00    +0.000 C 
BRANCH  18  19
ATOM     19  C   UNL     1      45.384   3.857   8.253  0.00  0.00    +0.000 C 
ATOM     20  O   UNL     1      44.665   2.887   8.453  0.00  0.00    +0.000 OA
BRANCH  19  21
ATOM     21  O   UNL     1      46.222   4.025   7.196  0.00  0.00    +0.000 OA
BRANCH  21  23
ATOM     22  C   UNL     1      47.032   2.747   5.358  0.00  0.00    +0.000 C 
ATOM     23  C   UNL     1      47.032   2.892   6.870  0.00  0.00    +0.000 C 
ENDBRANCH  21  23
ENDBRANCH  19  21
ENDBRANCH  18  19
ENDBRANCH  12  18
ENDBRANCH   8  17
ENDBRANCH   7  10
ENDBRANCH   1   7
BRANCH   4  24
ATOM     24  C   UNL     1      50.515   9.621  16.512  0.00  0.00    +0.000 C 
BRANCH  24  25
ATOM     25  N   UNL     1      50.264   8.552  17.441  0.00  0.00    +0.000 N 
ATOM     26  C   UNL     1      49.155   8.542  18.241  0.00  0.00    +0.000 C 
ATOM     27  O   UNL     1      48.299   9.421  18.179  0.00  0.00    +0.000 OA
ATOM     28  H   UNL     1      51.047   7.941  17.655  0.00  0.00    +0.000 HD
BRANCH  26  29
ATOM     29  C   UNL     1      49.008   7.386  19.134  0.00  0.00    +0.000 A 
ATOM     30  C   UNL     1      48.993   7.586  20.507  0.00  0.00    +0.000 A 
ATOM     31  S   UNL     1      48.758   6.156  21.404  0.00  0.00    +0.000 S 
ATOM     32  C   UNL     1      48.718   5.211  19.989  0.00  0.00    +0.000 A 
ATOM     33  N   UNL     1      48.561   3.862  20.058  0.00  0.00    +0.000 NA
ATOM     34  C   UNL     1      48.572   3.266  18.913  0.00  0.00    +0.000 A 
ATOM     35  N   UNL     1      48.725   3.896  17.704  0.00  0.00    +0.000 N 
ATOM     36  C   UNL     1      48.865   5.258  17.584  0.00  0.00    +0.000 A 
ATOM     37  O   UNL     1      48.970   5.792  16.486  0.00  0.00    +0.000 OA
ATOM     38  C   UNL     1      48.864   5.978  18.846  0.00  0.00    +0.000 A 
ATOM     39  H   UNL     1      48.722   3.372  16.842  0.00  0.00    +0.000 HD
ENDBRANCH  26  29
ENDBRANCH  24  25
ENDBRANCH   4  24
TORSDOF 10
ENDMDL
MODEL 6
REMARK VINA RESULT:    -5.694      2.790      5.514
REMARK INTER + INTRA:         -10.843
REMARK INTER:                  -9.530
REMARK INTRA:                  -1.312
REMARK UNBOUND:                -1.819
REMARK  Name = 
REMARK  11 active torsions:
REMARK  status: ('A' for Active; 'I' for Inactive)
REMARK    1  A    between atoms: C_1  and  C_2
REMARK    2  A    between atoms: C_2  and  O_3
REMARK    3  A    between atoms: O_3  and  C_4
REMARK    4  A    between atoms: C_4  and  C_6
REMARK    5  A    between atoms: C_6  and  C_7
REMARK    6  A    between atoms: C_12  and  C_13
REMARK    7  A    between atoms: N_15  and  C_16
REMARK    8  A    between atoms: C_16  and  C_17
REMARK    9  A    between atoms: C_20  and  C_21
REMARK   10  A    between atoms: C_21  and  N_22
REMARK   11  A    between atoms: C_23  and  C_25
REMARK                            x       y       z     vdW  Elec       q    Type
REMARK                         _______ _______ _______ _____ _____    ______ ____
ROOT
ATOM      1  C   UNL     1      51.395   4.407  17.622  0.00  0.00    +0.000 A 
ATOM      2  C   UNL     1      50.960   3.074  17.625  0.00  0.00    +0.000 A 
ATOM      3  C   UNL     1      49.636   2.760  17.317  0.00  0.00    +0.000 A 
ATOM      4  C   UNL     1      48.721   3.775  17.010  0.00  0.00    +0.000 A 
ATOM      5  C   UNL     1      49.140   5.111  17.063  0.00  0.00    +0.000 A 
ATOM      6  C   UNL     1      50.465   5.424  17.362  0.00  0.00    +0.000 A 
ENDROOT
BRANCH   1   7
ATOM      7  C   UNL     1      52.860   4.731  17.757  0.00  0.00    +0.000 C 
BRANCH   7  10
ATOM      8  C   UNL     1      53.582   7.076  17.969  0.00  0.00    +0.000 C 
ATOM      9  O   UNL     1      53.618   6.998  19.193  0.00  0.00    +0.000 OA
ATOM     10  N   UNL     1      53.201   6.018  17.169  0.00  0.00    +0.000 N 
ATOM     11  H   UNL     1      53.465   6.035  16.195  0.00  0.00    +0.000 HD
BRANCH   8  17
ATOM     12  C   UNL     1      52.748   9.033  16.522  0.00  0.00    +0.000 C 
ATOM     13  C   UNL     1      52.236   8.212  15.323  0.00  0.00    +0.000 C 
ATOM     14  C   UNL     1      53.348   7.950  14.314  0.00  0.00    +0.000 C 
ATOM     15  C   UNL     1      54.578   7.317  14.958  0.00  0.00    +0.000 C 
ATOM     16  C   UNL     1      55.070   8.094  16.180  0.00  0.00    +0.000 C 
ATOM     17  C   UNL     1      53.961   8.353  17.213  0.00  0.00    +0.000 C 
BRANCH  12  18
ATOM     18  C   UNL     1      51.632   9.349  17.520  0.00  0.00    +0.000 C 
BRANCH  18  19
ATOM     19  C   UNL     1      50.763  10.484  17.051  0.00  0.00    +0.000 C 
ATOM     20  O   UNL     1      51.187  11.495  16.507  0.00  0.00    +0.000 OA
BRANCH  19  21
ATOM     21  O   UNL     1      49.470  10.248  17.399  0.00  0.00    +0.000 OA
BRANCH  21  23
ATOM     22  C   UNL     1      48.027   8.555  18.245  0.00  0.00    +0.000 C 
ATOM     23  C   UNL     1      48.997   8.924  17.136  0.00  0.00    +0.000 C 
ENDBRANCH  21  23
ENDBRANCH  19  21
ENDBRANCH  18  19
ENDBRANCH  12  18
ENDBRANCH   8  17
ENDBRANCH   7  10
ENDBRANCH   1   7
BRANCH   4  24
ATOM     24  C   UNL     1      47.292   3.447  16.682  0.00  0.00    +0.000 C 
BRANCH  24  25
ATOM     25  N   UNL     1      46.772   4.406  15.744  0.00  0.00    +0.000 N 
ATOM     26  C   UNL     1      46.776   4.167  14.398  0.00  0.00    +0.000 C 
ATOM     27  O   UNL     1      47.183   3.110  13.924  0.00  0.00    +0.000 OA
ATOM     28  H   UNL     1      46.631   5.350  16.089  0.00  0.00    +0.000 HD
BRANCH  26  29
ATOM     29  C   UNL     1      46.202   5.219  13.550  0.00  0.00    +0.000 A 
ATOM     30  C   UNL     1      46.919   6.390  13.342  0.00  0.00    +0.000 A 
ATOM     31  S   UNL     1      46.146   7.486  12.291  0.00  0.00    +0.000 S 
ATOM     32  C   UNL     1      44.803   6.456  12.114  0.00  0.00    +0.000 A 
ATOM     33  N   UNL     1      43.745   6.818  11.341  0.00  0.00    +0.000 NA
ATOM     34  C   UNL     1      42.786   5.955  11.314  0.00  0.00    +0.000 A 
ATOM     35  N   UNL     1      42.787   4.762  11.990  0.00  0.00    +0.000 N 
ATOM     36  C   UNL     1      43.842   4.344  12.766  0.00  0.00    +0.000 A 
ATOM     37  O   UNL     1      43.823   3.257  13.332  0.00  0.00    +0.000 OA
ATOM     38  C   UNL     1      44.949   5.283  12.834  0.00  0.00    +0.000 A 
ATOM     39  H   UNL     1      42.005   4.127  11.925  0.00  0.00    +0.000 HD
ENDBRANCH  26  29
ENDBRANCH  24  25
ENDBRANCH   4  24
TORSDOF 10
ENDMDL
MODEL 7
REMARK VINA RESULT:    -5.441      2.477      4.190
REMARK INTER + INTRA:         -10.442
REMARK INTER:                  -8.919
REMARK INTRA:                  -1.522
REMARK UNBOUND:                -1.819
REMARK  Name = 
REMARK  11 active torsions:
REMARK  status: ('A' for Active; 'I' for Inactive)
REMARK    1  A    between atoms: C_1  and  C_2
REMARK    2  A    between atoms: C_2  and  O_3
REMARK    3  A    between atoms: O_3  and  C_4
REMARK    4  A    between atoms: C_4  and  C_6
REMARK    5  A    between atoms: C_6  and  C_7
REMARK    6  A    between atoms: C_12  and  C_13
REMARK    7  A    between atoms: N_15  and  C_16
REMARK    8  A    between atoms: C_16  and  C_17
REMARK    9  A    between atoms: C_20  and  C_21
REMARK   10  A    between atoms: C_21  and  N_22
REMARK   11  A    between atoms: C_23  and  C_25
REMARK                            x       y       z     vdW  Elec       q    Type
REMARK                         _______ _______ _______ _____ _____    ______ ____
ROOT
ATOM      1  C   UNL     1      49.339   8.326  15.766  0.00  0.00    +0.000 A 
ATOM      2  C   UNL     1      49.181   7.057  15.189  0.00  0.00    +0.000 A 
ATOM      3  C   UNL     1      48.662   6.924  13.902  0.00  0.00    +0.000 A 
ATOM      4  C   UNL     1      48.280   8.056  13.172  0.00  0.00    +0.000 A 
ATOM      5  C   UNL     1      48.383   9.320  13.768  0.00  0.00    +0.000 A 
ATOM      6  C   UNL     1      48.910   9.454  15.051  0.00  0.00    +0.000 A 
ENDROOT
BRANCH   1   7
ATOM      7  C   UNL     1      50.080   8.486  17.068  0.00  0.00    +0.000 C 
BRANCH   7  10
ATOM      8  C   UNL     1      49.117   7.295  18.996  0.00  0.00    +0.000 C 
ATOM      9  O   UNL     1      49.751   6.277  18.737  0.00  0.00    +0.000 OA
ATOM     10  N   UNL     1      49.194   8.434  18.221  0.00  0.00    +0.000 N 
ATOM     11  H   UNL     1      48.898   9.309  18.627  0.00  0.00    +0.000 HD
BRANCH   8  17
ATOM     12  C   UNL     1      48.919   7.818  21.507  0.00  0.00    +0.000 C 
ATOM     13  C   UNL     1      49.837   6.697  22.034  0.00  0.00    +0.000 C 
ATOM     14  C   UNL     1      49.062   5.402  22.251  0.00  0.00    +0.000 C 
ATOM     15  C   UNL     1      48.290   4.973  21.007  0.00  0.00    +0.000 C 
ATOM     16  C   UNL     1      47.411   6.090  20.443  0.00  0.00    +0.000 C 
ATOM     17  C   UNL     1      48.184   7.399  20.206  0.00  0.00    +0.000 C 
BRANCH  12  18
ATOM     18  C   UNL     1      49.671   9.139  21.333  0.00  0.00    +0.000 C 
BRANCH  18  19
ATOM     19  C   UNL     1      48.734  10.314  21.258  0.00  0.00    +0.000 C 
ATOM     20  O   UNL     1      47.924  10.603  22.128  0.00  0.00    +0.000 OA
BRANCH  19  21
ATOM     21  O   UNL     1      48.872  10.936  20.057  0.00  0.00    +0.000 OA
BRANCH  21  23
ATOM     22  C   UNL     1      47.457  11.460  18.216  0.00  0.00    +0.000 C 
ATOM     23  C   UNL     1      47.776  11.768  19.669  0.00  0.00    +0.000 C 
ENDBRANCH  21  23
ENDBRANCH  19  21
ENDBRANCH  18  19
ENDBRANCH  12  18
ENDBRANCH   8  17
ENDBRANCH   7  10
ENDBRANCH   1   7
BRANCH   4  24
ATOM     24  C   UNL     1      47.715   7.921  11.786  0.00  0.00    +0.000 C 
BRANCH  24  25
ATOM     25  N   UNL     1      46.990   6.683  11.672  0.00  0.00    +0.000 N 
ATOM     26  C   UNL     1      45.623   6.647  11.704  0.00  0.00    +0.000 C 
ATOM     27  O   UNL     1      44.946   7.668  11.790  0.00  0.00    +0.000 OA
ATOM     28  H   UNL     1      47.522   5.829  11.812  0.00  0.00    +0.000 HD
BRANCH  26  29
ATOM     29  C   UNL     1      45.005   5.323  11.561  0.00  0.00    +0.000 A 
ATOM     30  C   UNL     1      44.321   4.774  12.637  0.00  0.00    +0.000 A 
ATOM     31  S   UNL     1      43.613   3.262  12.296  0.00  0.00    +0.000 S 
ATOM     32  C   UNL     1      44.237   3.264  10.713  0.00  0.00    +0.000 A 
ATOM     33  N   UNL     1      44.010   2.220   9.873  0.00  0.00    +0.000 NA
ATOM     34  C   UNL     1      44.560   2.341   8.712  0.00  0.00    +0.000 A 
ATOM     35  N   UNL     1      45.317   3.412   8.312  0.00  0.00    +0.000 N 
ATOM     36  C   UNL     1      45.556   4.499   9.118  0.00  0.00    +0.000 A 
ATOM     37  O   UNL     1      46.213   5.454   8.719  0.00  0.00    +0.000 OA
ATOM     38  C   UNL     1      44.962   4.412  10.441  0.00  0.00    +0.000 A 
ATOM     39  H   UNL     1      45.719   3.448   7.387  0.00  0.00    +0.000 HD
ENDBRANCH  26  29
ENDBRANCH  24  25
ENDBRANCH   4  24
TORSDOF 10
ENDMDL
MODEL 8
REMARK VINA RESULT:    -5.358      2.902      5.989
REMARK INTER + INTRA:         -10.310
REMARK INTER:                  -8.508
REMARK INTRA:                  -1.802
REMARK UNBOUND:                -1.819
REMARK  Name = 
REMARK  11 active torsions:
REMARK  status: ('A' for Active; 'I' for Inactive)
REMARK    1  A    between atoms: C_1  and  C_2
REMARK    2  A    between atoms: C_2  and  O_3
REMARK    3  A    between atoms: O_3  and  C_4
REMARK    4  A    between atoms: C_4  and  C_6
REMARK    5  A    between atoms: C_6  and  C_7
REMARK    6  A    between atoms: C_12  and  C_13
REMARK    7  A    between atoms: N_15  and  C_16
REMARK    8  A    between atoms: C_16  and  C_17
REMARK    9  A    between atoms: C_20  and  C_21
REMARK   10  A    between atoms: C_21  and  N_22
REMARK   11  A    between atoms: C_23  and  C_25
REMARK                            x       y       z     vdW  Elec       q    Type
REMARK                         _______ _______ _______ _____ _____    ______ ____
ROOT
ATOM      1  C   UNL     1      51.497   4.394  17.701  0.00  0.00    +0.000 A 
ATOM      2  C   UNL     1      51.110   3.049  17.622  0.00  0.00    +0.000 A 
ATOM      3  C   UNL     1      49.783   2.708  17.360  0.00  0.00    +0.000 A 
ATOM      4  C   UNL     1      48.817   3.707  17.182  0.00  0.00    +0.000 A 
ATOM      5  C   UNL     1      49.192   5.050  17.319  0.00  0.00    +0.000 A 
ATOM      6  C   UNL     1      50.519   5.391  17.572  0.00  0.00    +0.000 A 
ENDROOT
BRANCH   1   7
ATOM      7  C   UNL     1      52.956   4.764  17.784  0.00  0.00    +0.000 C 
BRANCH   7  10
ATOM      8  C   UNL     1      53.906   7.033  17.891  0.00  0.00    +0.000 C 
ATOM      9  O   UNL     1      54.262   6.875  19.054  0.00  0.00    +0.000 OA
ATOM     10  N   UNL     1      53.235   6.058  17.181  0.00  0.00    +0.000 N 
ATOM     11  H   UNL     1      53.229   6.119  16.173  0.00  0.00    +0.000 HD
BRANCH   8  17
ATOM     12  C   UNL     1      52.881   9.010  16.601  0.00  0.00    +0.000 C 
ATOM     13  C   UNL     1      52.219   8.206  15.465  0.00  0.00    +0.000 C 
ATOM     14  C   UNL     1      53.191   7.969  14.314  0.00  0.00    +0.000 C 
ATOM     15  C   UNL     1      54.497   7.333  14.779  0.00  0.00    +0.000 C 
ATOM     16  C   UNL     1      55.143   8.092  15.940  0.00  0.00    +0.000 C 
ATOM     17  C   UNL     1      54.177   8.326  17.114  0.00  0.00    +0.000 C 
BRANCH  12  18
ATOM     18  C   UNL     1      51.904   9.301  17.742  0.00  0.00    +0.000 C 
BRANCH  18  19
ATOM     19  C   UNL     1      51.072  10.524  17.471  0.00  0.00    +0.000 C 
ATOM     20  O   UNL     1      51.494  11.536  16.930  0.00  0.00    +0.000 OA
BRANCH  19  21
ATOM     21  O   UNL     1      49.826  10.357  17.990  0.00  0.00    +0.000 OA
BRANCH  21  23
ATOM     22  C   UNL     1      48.359   9.130  16.573  0.00  0.00    +0.000 C 
ATOM     23  C   UNL     1      49.251   9.061  17.800  0.00  0.00    +0.000 C 
ENDBRANCH  21  23
ENDBRANCH  19  21
ENDBRANCH  18  19
ENDBRANCH  12  18
ENDBRANCH   8  17
ENDBRANCH   7  10
ENDBRANCH   1   7
BRANCH   4  24
ATOM     24  C   UNL     1      47.385   3.349  16.905  0.00  0.00    +0.000 C 
BRANCH  24  25
ATOM     25  N   UNL     1      46.825   4.272  15.954  0.00  0.00    +0.000 N 
ATOM     26  C   UNL     1      46.908   4.052  14.607  0.00  0.00    +0.000 C 
ATOM     27  O   UNL     1      47.426   3.040  14.142  0.00  0.00    +0.000 OA
ATOM     28  H   UNL     1      46.588   5.196  16.302  0.00  0.00    +0.000 HD
BRANCH  26  29
ATOM     29  C   UNL     1      46.282   5.062  13.744  0.00  0.00    +0.000 A 
ATOM     30  C   UNL     1      45.005   4.837  13.250  0.00  0.00    +0.000 A 
ATOM     31  S   UNL     1      44.397   6.125  12.315  0.00  0.00    +0.000 S 
ATOM     32  C   UNL     1      45.840   7.010  12.496  0.00  0.00    +0.000 A 
ATOM     33  N   UNL     1      45.988   8.227  11.908  0.00  0.00    +0.000 NA
ATOM     34  C   UNL     1      47.139   8.777  12.107  0.00  0.00    +0.000 A 
ATOM     35  N   UNL     1      48.156   8.221  12.840  0.00  0.00    +0.000 N 
ATOM     36  C   UNL     1      48.044   7.004  13.470  0.00  0.00    +0.000 A 
ATOM     37  O   UNL     1      48.962   6.550  14.144  0.00  0.00    +0.000 OA
ATOM     38  C   UNL     1      46.767   6.339  13.274  0.00  0.00    +0.000 A 
ATOM     39  H   UNL     1      49.033   8.705  12.962  0.00  0.00    +0.000 HD
ENDBRANCH  26  29
ENDBRANCH  24  25
ENDBRANCH   4  24
TORSDOF 10
ENDMDL
MODEL 9
REMARK VINA RESULT:    -5.337      2.898      5.368
REMARK INTER + INTRA:         -10.276
REMARK INTER:                  -8.627
REMARK INTRA:                  -1.649
REMARK UNBOUND:                -1.819
REMARK  Name = 
REMARK  11 active torsions:
REMARK  status: ('A' for Active; 'I' for Inactive)
REMARK    1  A    between atoms: C_1  and  C_2
REMARK    2  A    between atoms: C_2  and  O_3
REMARK    3  A    between atoms: O_3  and  C_4
REMARK    4  A    between atoms: C_4  and  C_6
REMARK    5  A    between atoms: C_6  and  C_7
REMARK    6  A    between atoms: C_12  and  C_13
REMARK    7  A    between atoms: N_15  and  C_16
REMARK    8  A    between atoms: C_16  and  C_17
REMARK    9  A    between atoms: C_20  and  C_21
REMARK   10  A    between atoms: C_21  and  N_22
REMARK   11  A    between atoms: C_23  and  C_25
REMARK                            x       y       z     vdW  Elec       q    Type
REMARK                         _______ _______ _______ _____ _____    ______ ____
ROOT
ATOM      1  C   UNL     1      50.502   5.517  18.959  0.00  0.00    +0.000 A 
ATOM      2  C   UNL     1      50.425   5.680  17.568  0.00  0.00    +0.000 A 
ATOM      3  C   UNL     1      49.409   5.063  16.838  0.00  0.00    +0.000 A 
ATOM      4  C   UNL     1      48.458   4.263  17.485  0.00  0.00    +0.000 A 
ATOM      5  C   UNL     1      48.569   4.053  18.866  0.00  0.00    +0.000 A 
ATOM      6  C   UNL     1      49.579   4.676  19.596  0.00  0.00    +0.000 A 
ENDROOT
BRANCH   1   7
ATOM      7  C   UNL     1      51.472   6.338  19.769  0.00  0.00    +0.000 C 
BRANCH   7  10
ATOM      8  C   UNL     1      52.339   8.346  18.640  0.00  0.00    +0.000 C 
ATOM      9  O   UNL     1      53.290   7.727  18.175  0.00  0.00    +0.000 OA
ATOM     10  N   UNL     1      51.395   7.757  19.456  0.00  0.00    +0.000 N 
ATOM     11  H   UNL     1      50.503   8.215  19.564  0.00  0.00    +0.000 HD
BRANCH   8  17
ATOM     12  C   UNL     1      51.561  10.100  16.925  0.00  0.00    +0.000 C 
ATOM     13  C   UNL     1      52.628   9.833  15.845  0.00  0.00    +0.000 C 
ATOM     14  C   UNL     1      53.889  10.652  16.098  0.00  0.00    +0.000 C 
ATOM     15  C   UNL     1      54.438  10.451  17.507  0.00  0.00    +0.000 C 
ATOM     16  C   UNL     1      53.378  10.664  18.589  0.00  0.00    +0.000 C 
ATOM     17  C   UNL     1      52.106   9.834  18.354  0.00  0.00    +0.000 C 
BRANCH  12  18
ATOM     18  C   UNL     1      50.269   9.325  16.657  0.00  0.00    +0.000 C 
BRANCH  18  19
ATOM     19  C   UNL     1      49.344  10.074  15.736  0.00  0.00    +0.000 C 
ATOM     20  O   UNL     1      48.931  11.205  15.949  0.00  0.00    +0.000 OA
BRANCH  19  21
ATOM     21  O   UNL     1      48.984   9.275  14.697  0.00  0.00    +0.000 OA
BRANCH  21  23
ATOM     22  C   UNL     1      50.161   8.080  13.007  0.00  0.00    +0.000 C 
ATOM     23  C   UNL     1      49.740   9.455  13.495  0.00  0.00    +0.000 C 
ENDBRANCH  21  23
ENDBRANCH  19  21
ENDBRANCH  18  19
ENDBRANCH  12  18
ENDBRANCH   8  17
ENDBRANCH   7  10
ENDBRANCH   1   7
BRANCH   4  24
ATOM     24  C   UNL     1      47.363   3.591  16.706  0.00  0.00    +0.000 C 
BRANCH  24  25
ATOM     25  N   UNL     1      46.811   4.509  15.746  0.00  0.00    +0.000 N 
ATOM     26  C   UNL     1      46.799   4.226  14.408  0.00  0.00    +0.000 C 
ATOM     27  O   UNL     1      47.220   3.163  13.962  0.00  0.00    +0.000 OA
ATOM     28  H   UNL     1      46.656   5.461  16.063  0.00  0.00    +0.000 HD
BRANCH  26  29
ATOM     29  C   UNL     1      46.192   5.239  13.536  0.00  0.00    +0.000 A 
ATOM     30  C   UNL     1      46.882   6.416  13.279  0.00  0.00    +0.000 A 
ATOM     31  S   UNL     1      46.072   7.463  12.206  0.00  0.00    +0.000 S 
ATOM     32  C   UNL     1      44.747   6.402  12.083  0.00  0.00    +0.000 A 
ATOM     33  N   UNL     1      43.671   6.718  11.315  0.00  0.00    +0.000 NA
ATOM     34  C   UNL     1      42.729   5.837  11.331  0.00  0.00    +0.000 A 
ATOM     35  N   UNL     1      42.763   4.666  12.044  0.00  0.00    +0.000 N 
ATOM     36  C   UNL     1      43.838   4.294  12.817  0.00  0.00    +0.000 A 
ATOM     37  O   UNL     1      43.849   3.226  13.418  0.00  0.00    +0.000 OA
ATOM     38  C   UNL     1      44.927   5.256  12.838  0.00  0.00    +0.000 A 
ATOM     39  H   UNL     1      41.993   4.015  12.012  0.00  0.00    +0.000 HD
ENDBRANCH  26  29
ENDBRANCH  24  25
ENDBRANCH   4  24
TORSDOF 10
ENDMDL
