MODEL 1
REMARK VINA RESULT:    -8.012      0.000      0.000
REMARK INTER + INTRA:         -12.415
REMARK INTER:                 -11.290
REMARK INTRA:                  -1.125
REMARK UNBOUND:                -1.125
REMARK  Name = 
REMARK  8 active torsions:
REMARK  status: ('A' for Active; 'I' for Inactive)
REMARK    1  A    between atoms: C_1  and  C_2
REMARK    2  A    between atoms: C_2  and  C_3
REMARK    3  A    between atoms: C_3  and  C_4
REMARK    4  A    between atoms: C_4  and  N_5
REMARK    5  A    between atoms: C_4  and  C_18
REMARK    6  A    between atoms: C_6  and  C_8
REMARK    7  A    between atoms: C_21  and  O_22
REMARK    8  A    between atoms: O_22  and  C_23
REMARK                            x       y       z     vdW  Elec       q    Type
REMARK                         _______ _______ _______ _____ _____    ______ ____
ROOT
ATOM      1  C   UNL     1      46.453   7.980  12.694  0.00  0.00    +0.000 C 
ENDROOT
BRANCH   1   2
ATOM      2  C   UNL     1      45.895   6.795  11.914  0.00  0.00    +0.000 A 
ATOM      3  C   UNL     1      44.875   6.003  12.460  0.00  0.00    +0.000 A 
ATOM      4  C   UNL     1      44.348   4.931  11.735  0.00  0.00    +0.000 A 
ATOM      5  C   UNL     1      44.778   4.685  10.429  0.00  0.00    +0.000 A 
ATOM      6  C   UNL     1      45.824   5.434   9.895  0.00  0.00    +0.000 A 
ATOM      7  C   UNL     1      46.379   6.480  10.632  0.00  0.00    +0.000 A 
BRANCH   5   8
ATOM      8  O   UNL     1      44.264   3.696   9.619  0.00  0.00    +0.000 OA
BRANCH   8   9
ATOM      9  C   UNL     1      45.094   3.023   8.750  0.00  0.00    +0.000 A 
ATOM     10  C   UNL     1      45.458   1.679   8.873  0.00  0.00    +0.000 A 
ATOM     11  C   UNL     1      46.356   1.108   7.970  0.00  0.00    +0.000 A 
ATOM     12  C   UNL     1      46.840   1.860   6.901  0.00  0.00    +0.000 A 
ATOM     13  C   UNL     1      46.417   3.177   6.728  0.00  0.00    +0.000 A 
ATOM     14  C   UNL     1      45.546   3.759   7.652  0.00  0.00    +0.000 A 
ENDBRANCH   8   9
ENDBRANCH   5   8
ENDBRANCH   1   2
BRANCH   1  15
ATOM     15  N   UNL     1      47.003   7.473  13.943  0.00  0.00    +0.000 N 
ATOM     16  C   UNL     1      48.275   6.985  14.089  0.00  0.00    +0.000 C 
ATOM     17  O   UNL     1      49.118   7.024  13.198  0.00  0.00    +0.000 OA
ATOM     18  H   UNL     1      46.308   7.156  14.612  0.00  0.00    +0.000 HD
BRANCH  16  19
ATOM     19  C   UNL     1      48.598   6.454  15.417  0.00  0.00    +0.000 A 
ATOM     20  C   UNL     1      49.509   7.114  16.230  0.00  0.00    +0.000 A 
ATOM     21  S   UNL     1      49.760   6.345  17.733  0.00  0.00    +0.000 S 
ATOM     22  C   UNL     1      48.698   5.078  17.326  0.00  0.00    +0.000 A 
ATOM     23  N   UNL     1      48.491   4.033  18.171  0.00  0.00    +0.000 NA
ATOM     24  C   UNL     1      47.687   3.130  17.717  0.00  0.00    +0.000 A 
ATOM     25  N   UNL     1      47.053   3.186  16.501  0.00  0.00    +0.000 N 
ATOM     26  C   UNL     1      47.192   4.244  15.639  0.00  0.00    +0.000 A 
ATOM     27  O   UNL     1      46.545   4.311  14.603  0.00  0.00    +0.000 OA
ATOM     28  C   UNL     1      48.124   5.265  16.082  0.00  0.00    +0.000 A 
ATOM     29  H   UNL     1      46.410   2.463  16.218  0.00  0.00    +0.000 HD
ENDBRANCH  16  19
ENDBRANCH   1  15
BRANCH   1  30
ATOM     30  C   UNL     1      45.371   9.055  12.923  0.00  0.00    +0.000 C 
BRANCH  30  32
ATOM     31  C   UNL     1      43.927   9.745  10.988  0.00  0.00    +0.000 C 
ATOM     32  C   UNL     1      45.219  10.016  11.742  0.00  0.00    +0.000 C 
ENDBRANCH  30  32
ENDBRANCH   1  30
TORSDOF 7
ENDMDL
MODEL 2
REMARK VINA RESULT:    -7.614      2.595      4.447
REMARK INTER + INTRA:         -11.854
REMARK INTER:                 -10.191
REMARK INTRA:                  -1.663
REMARK UNBOUND:                -1.125
REMARK  Name = 
REMARK  8 active torsions:
REMARK  status: ('A' for Active; 'I' for Inactive)
REMARK    1  A    between atoms: C_1  and  C_2
REMARK    2  A    between atoms: C_2  and  C_3
REMARK    3  A    between atoms: C_3  and  C_4
REMARK    4  A    between atoms: C_4  and  N_5
REMARK    5  A    between atoms: C_4  and  C_18
REMARK    6  A    between atoms: C_6  and  C_8
REMARK    7  A    between atoms: C_21  and  O_22
REMARK    8  A    between atoms: O_22  and  C_23
REMARK                            x       y       z     vdW  Elec       q    Type
REMARK                         _______ _______ _______ _____ _____    ______ ____
ROOT
ATOM      1  C   UNL     1      45.486   5.982  12.883  0.00  0.00    +0.000 C 
ENDROOT
BRANCH   1   2
ATOM      2  C   UNL     1      45.259   5.372  11.504  0.00  0.00    +0.000 A 
ATOM      3  C   UNL     1      46.019   5.801  10.406  0.00  0.00    +0.000 A 
ATOM      4  C   UNL     1      45.826   5.227   9.147  0.00  0.00    +0.000 A 
ATOM      5  C   UNL     1      44.931   4.166   8.985  0.00  0.00    +0.000 A 
ATOM      6  C   UNL     1      44.137   3.766  10.057  0.00  0.00    +0.000 A 
ATOM      7  C   UNL     1      44.298   4.366  11.306  0.00  0.00    +0.000 A 
BRANCH   5   8
ATOM      8  O   UNL     1      44.731   3.496   7.798  0.00  0.00    +0.000 OA
BRANCH   8   9
ATOM      9  C   UNL     1      45.785   2.852   7.190  0.00  0.00    +0.000 A 
ATOM     10  C   UNL     1      46.407   3.275   6.011  0.00  0.00    +0.000 A 
ATOM     11  C   UNL     1      47.429   2.513   5.443  0.00  0.00    +0.000 A 
ATOM     12  C   UNL     1      47.880   1.362   6.087  0.00  0.00    +0.000 A 
ATOM     13  C   UNL     1      47.317   0.980   7.304  0.00  0.00    +0.000 A 
ATOM     14  C   UNL     1      46.270   1.723   7.854  0.00  0.00    +0.000 A 
ENDBRANCH   8   9
ENDBRANCH   5   8
ENDBRANCH   1   2
BRANCH   1  15
ATOM     15  N   UNL     1      46.630   6.877  12.792  0.00  0.00    +0.000 N 
ATOM     16  C   UNL     1      46.564   8.238  12.938  0.00  0.00    +0.000 C 
ATOM     17  O   UNL     1      45.541   8.832  13.265  0.00  0.00    +0.000 OA
ATOM     18  H   UNL     1      47.414   6.508  12.264  0.00  0.00    +0.000 HD
BRANCH  16  19
ATOM     19  C   UNL     1      47.826   8.957  12.733  0.00  0.00    +0.000 A 
ATOM     20  C   UNL     1      47.859  10.099  11.946  0.00  0.00    +0.000 A 
ATOM     21  S   UNL     1      49.413  10.792  11.820  0.00  0.00    +0.000 S 
ATOM     22  C   UNL     1      50.102   9.561  12.773  0.00  0.00    +0.000 A 
ATOM     23  N   UNL     1      51.439   9.524  13.019  0.00  0.00    +0.000 NA
ATOM     24  C   UNL     1      51.824   8.516  13.727  0.00  0.00    +0.000 A 
ATOM     25  N   UNL     1      50.991   7.548  14.230  0.00  0.00    +0.000 N 
ATOM     26  C   UNL     1      49.632   7.572  14.050  0.00  0.00    +0.000 A 
ATOM     27  O   UNL     1      48.902   6.748  14.586  0.00  0.00    +0.000 OA
ATOM     28  C   UNL     1      49.151   8.662  13.219  0.00  0.00    +0.000 A 
ATOM     29  H   UNL     1      51.350   6.802  14.805  0.00  0.00    +0.000 HD
ENDBRANCH  16  19
ENDBRANCH   1  15
BRANCH   1  30
ATOM     30  C   UNL     1      45.680   4.887  13.950  0.00  0.00    +0.000 C 
BRANCH  30  32
ATOM     31  C   UNL     1      47.447   3.486  15.055  0.00  0.00    +0.000 C 
ATOM     32  C   UNL     1      46.950   4.059  13.738  0.00  0.00    +0.000 C 
ENDBRANCH  30  32
ENDBRANCH   1  30
TORSDOF 7
ENDMDL
MODEL 3
REMARK VINA RESULT:    -7.369      4.067      9.408
REMARK INTER + INTRA:         -11.510
REMARK INTER:                  -9.877
REMARK INTRA:                  -1.632
REMARK UNBOUND:                -1.125
REMARK  Name = 
REMARK  8 active torsions:
REMARK  status: ('A' for Active; 'I' for Inactive)
REMARK    1  A    between atoms: C_1  and  C_2
REMARK    2  A    between atoms: C_2  and  C_3
REMARK    3  A    between atoms: C_3  and  C_4
REMARK    4  A    between atoms: C_4  and  N_5
REMARK    5  A    between atoms: C_4  and  C_18
REMARK    6  A    between atoms: C_6  and  C_8
REMARK    7  A    between atoms: C_21  and  O_22
REMARK    8  A    between atoms: O_22  and  C_23
REMARK                            x       y       z     vdW  Elec       q    Type
REMARK                         _______ _______ _______ _____ _____    ______ ____
ROOT
ATOM      1  C   UNL     1      48.175   4.741  16.294  0.00  0.00    +0.000 C 
ENDROOT
BRANCH   1   2
ATOM      2  C   UNL     1      48.190   5.798  17.393  0.00  0.00    +0.000 A 
ATOM      3  C   UNL     1      47.380   5.652  18.528  0.00  0.00    +0.000 A 
ATOM      4  C   UNL     1      47.411   6.609  19.545  0.00  0.00    +0.000 A 
ATOM      5  C   UNL     1      48.305   7.680  19.478  0.00  0.00    +0.000 A 
ATOM      6  C   UNL     1      49.077   7.862  18.333  0.00  0.00    +0.000 A 
ATOM      7  C   UNL     1      49.020   6.929  17.298  0.00  0.00    +0.000 A 
BRANCH   5   8
ATOM      8  O   UNL     1      48.451   8.630  20.466  0.00  0.00    +0.000 OA
BRANCH   8   9
ATOM      9  C   UNL     1      47.385   9.430  20.810  0.00  0.00    +0.000 A 
ATOM     10  C   UNL     1      46.753   9.425  22.058  0.00  0.00    +0.000 A 
ATOM     11  C   UNL     1      45.638  10.234  22.284  0.00  0.00    +0.000 A 
ATOM     12  C   UNL     1      45.193  11.101  21.287  0.00  0.00    +0.000 A 
ATOM     13  C   UNL     1      45.869  11.167  20.070  0.00  0.00    +0.000 A 
ATOM     14  C   UNL     1      46.962  10.332  19.831  0.00  0.00    +0.000 A 
ENDBRANCH   8   9
ENDBRANCH   5   8
ENDBRANCH   1   2
BRANCH   1  15
ATOM     15  N   UNL     1      47.247   5.182  15.264  0.00  0.00    +0.000 N 
ATOM     16  C   UNL     1      47.610   5.868  14.134  0.00  0.00    +0.000 C 
ATOM     17  O   UNL     1      48.777   6.088  13.826  0.00  0.00    +0.000 OA
ATOM     18  H   UNL     1      46.287   5.285  15.576  0.00  0.00    +0.000 HD
BRANCH  16  19
ATOM     19  C   UNL     1      46.504   6.282  13.264  0.00  0.00    +0.000 A 
ATOM     20  C   UNL     1      46.360   7.614  12.906  0.00  0.00    +0.000 A 
ATOM     21  S   UNL     1      45.014   7.904  11.896  0.00  0.00    +0.000 S 
ATOM     22  C   UNL     1      44.554   6.266  11.945  0.00  0.00    +0.000 A 
ATOM     23  N   UNL     1      43.429   5.831  11.316  0.00  0.00    +0.000 NA
ATOM     24  C   UNL     1      43.185   4.572  11.467  0.00  0.00    +0.000 A 
ATOM     25  N   UNL     1      43.976   3.701  12.174  0.00  0.00    +0.000 N 
ATOM     26  C   UNL     1      45.144   4.084  12.781  0.00  0.00    +0.000 A 
ATOM     27  O   UNL     1      45.877   3.269  13.327  0.00  0.00    +0.000 OA
ATOM     28  C   UNL     1      45.440   5.502  12.682  0.00  0.00    +0.000 A 
ATOM     29  H   UNL     1      43.748   2.720  12.228  0.00  0.00    +0.000 HD
ENDBRANCH  16  19
ENDBRANCH   1  15
BRANCH   1  30
ATOM     30  C   UNL     1      47.808   3.355  16.860  0.00  0.00    +0.000 C 
BRANCH  30  32
ATOM     31  C   UNL     1      50.183   2.726  17.380  0.00  0.00    +0.000 C 
ATOM     32  C   UNL     1      48.911   2.312  16.660  0.00  0.00    +0.000 C 
ENDBRANCH  30  32
ENDBRANCH   1  30
TORSDOF 7
ENDMDL
MODEL 4
REMARK VINA RESULT:    -7.347      3.393      7.458
REMARK INTER + INTRA:         -11.478
REMARK INTER:                  -9.986
REMARK INTRA:                  -1.493
REMARK UNBOUND:                -1.125
REMARK  Name = 
REMARK  8 active torsions:
REMARK  status: ('A' for Active; 'I' for Inactive)
REMARK    1  A    between atoms: C_1  and  C_2
REMARK    2  A    between atoms: C_2  and  C_3
REMARK    3  A    between atoms: C_3  and  C_4
REMARK    4  A    between atoms: C_4  and  N_5
REMARK    5  A    between atoms: C_4  and  C_18
REMARK    6  A    between atoms: C_6  and  C_8
REMARK    7  A    between atoms: C_21  and  O_22
REMARK    8  A    between atoms: O_22  and  C_23
REMARK                            x       y       z     vdW  Elec       q    Type
REMARK                         _______ _______ _______ _____ _____    ______ ____
ROOT
ATOM      1  C   UNL     1      48.414   7.505  12.836  0.00  0.00    +0.000 C 
ENDROOT
BRANCH   1   2
ATOM      2  C   UNL     1      48.683   6.869  14.196  0.00  0.00    +0.000 A 
ATOM      3  C   UNL     1      47.835   5.869  14.691  0.00  0.00    +0.000 A 
ATOM      4  C   UNL     1      48.094   5.271  15.927  0.00  0.00    +0.000 A 
ATOM      5  C   UNL     1      49.244   5.608  16.645  0.00  0.00    +0.000 A 
ATOM      6  C   UNL     1      50.066   6.635  16.187  0.00  0.00    +0.000 A 
ATOM      7  C   UNL     1      49.787   7.261  14.972  0.00  0.00    +0.000 A 
BRANCH   5   8
ATOM      8  O   UNL     1      49.614   5.020  17.835  0.00  0.00    +0.000 OA
BRANCH   8   9
ATOM      9  C   UNL     1      50.529   3.992  17.835  0.00  0.00    +0.000 A 
ATOM     10  C   UNL     1      51.845   4.094  18.297  0.00  0.00    +0.000 A 
ATOM     11  C   UNL     1      52.713   3.006  18.195  0.00  0.00    +0.000 A 
ATOM     12  C   UNL     1      52.249   1.790  17.695  0.00  0.00    +0.000 A 
ATOM     13  C   UNL     1      50.916   1.660  17.308  0.00  0.00    +0.000 A 
ATOM     14  C   UNL     1      50.057   2.759  17.377  0.00  0.00    +0.000 A 
ENDBRANCH   8   9
ENDBRANCH   5   8
ENDBRANCH   1   2
BRANCH   1  15
ATOM     15  N   UNL     1      47.635   6.560  12.049  0.00  0.00    +0.000 N 
ATOM     16  C   UNL     1      46.327   6.748  11.683  0.00  0.00    +0.000 C 
ATOM     17  O   UNL     1      45.711   7.786  11.896  0.00  0.00    +0.000 OA
ATOM     18  H   UNL     1      47.971   5.603  12.084  0.00  0.00    +0.000 HD
BRANCH  16  19
ATOM     19  C   UNL     1      45.711   5.635  10.954  0.00  0.00    +0.000 A 
ATOM     20  C   UNL     1      45.809   5.566   9.572  0.00  0.00    +0.000 A 
ATOM     21  S   UNL     1      45.026   4.206   8.902  0.00  0.00    +0.000 S 
ATOM     22  C   UNL     1      44.489   3.690  10.433  0.00  0.00    +0.000 A 
ATOM     23  N   UNL     1      43.703   2.588  10.570  0.00  0.00    +0.000 NA
ATOM     24  C   UNL     1      43.344   2.337  11.785  0.00  0.00    +0.000 A 
ATOM     25  N   UNL     1      43.715   3.076  12.880  0.00  0.00    +0.000 N 
ATOM     26  C   UNL     1      44.545   4.164  12.795  0.00  0.00    +0.000 A 
ATOM     27  O   UNL     1      44.934   4.750  13.797  0.00  0.00    +0.000 OA
ATOM     28  C   UNL     1      44.940   4.518  11.444  0.00  0.00    +0.000 A 
ATOM     29  H   UNL     1      43.427   2.808  13.809  0.00  0.00    +0.000 HD
ENDBRANCH  16  19
ENDBRANCH   1  15
BRANCH   1  30
ATOM     30  C   UNL     1      49.729   7.906  12.139  0.00  0.00    +0.000 C 
BRANCH  30  32
ATOM     31  C   UNL     1      48.414  10.034  11.922  0.00  0.00    +0.000 C 
ATOM     32  C   UNL     1      49.779   9.386  11.754  0.00  0.00    +0.000 C 
ENDBRANCH  30  32
ENDBRANCH   1  30
TORSDOF 7
ENDMDL
MODEL 5
REMARK VINA RESULT:    -7.301      1.284      1.585
REMARK INTER + INTRA:         -11.413
REMARK INTER:                  -9.973
REMARK INTRA:                  -1.440
REMARK UNBOUND:                -1.125
REMARK  Name = 
REMARK  8 active torsions:
REMARK  status: ('A' for Active; 'I' for Inactive)
REMARK    1  A    between atoms: C_1  and  C_2
REMARK    2  A    between atoms: C_2  and  C_3
REMARK    3  A    between atoms: C_3  and  C_4
REMARK    4  A    between atoms: C_4  and  N_5
REMARK    5  A    between atoms: C_4  and  C_18
REMARK    6  A    between atoms: C_6  and  C_8
REMARK    7  A    between atoms: C_21  and  O_22
REMARK    8  A    between atoms: O_22  and  C_23
REMARK                            x       y       z     vdW  Elec       q    Type
REMARK                         _______ _______ _______ _____ _____    ______ ____
ROOT
ATOM      1  C   UNL     1      47.517   8.153  13.205  0.00  0.00    +0.000 C 
ENDROOT
BRANCH   1   2
ATOM      2  C   UNL     1      46.556   7.228  12.468  0.00  0.00    +0.000 A 
ATOM      3  C   UNL     1      45.433   7.750  11.810  0.00  0.00    +0.000 A 
ATOM      4  C   UNL     1      44.564   6.904  11.116  0.00  0.00    +0.000 A 
ATOM      5  C   UNL     1      44.847   5.541  11.005  0.00  0.00    +0.000 A 
ATOM      6  C   UNL     1      45.931   5.004  11.696  0.00  0.00    +0.000 A 
ATOM      7  C   UNL     1      46.778   5.841  12.423  0.00  0.00    +0.000 A 
BRANCH   5   8
ATOM      8  O   UNL     1      44.085   4.648  10.283  0.00  0.00    +0.000 OA
BRANCH   8   9
ATOM      9  C   UNL     1      44.698   3.750   9.440  0.00  0.00    +0.000 A 
ATOM     10  C   UNL     1      44.615   2.358   9.559  0.00  0.00    +0.000 A 
ATOM     11  C   UNL     1      45.327   1.535   8.685  0.00  0.00    +0.000 A 
ATOM     12  C   UNL     1      46.069   2.097   7.648  0.00  0.00    +0.000 A 
ATOM     13  C   UNL     1      46.089   3.480   7.477  0.00  0.00    +0.000 A 
ATOM     14  C   UNL     1      45.406   4.306   8.372  0.00  0.00    +0.000 A 
ENDBRANCH   8   9
ENDBRANCH   5   8
ENDBRANCH   1   2
BRANCH   1  15
ATOM     15  N   UNL     1      47.736   7.603  14.534  0.00  0.00    +0.000 N 
ATOM     16  C   UNL     1      48.952   7.192  15.014  0.00  0.00    +0.000 C 
ATOM     17  O   UNL     1      50.004   7.346  14.402  0.00  0.00    +0.000 OA
ATOM     18  H   UNL     1      46.910   7.197  14.964  0.00  0.00    +0.000 HD
BRANCH  16  19
ATOM     19  C   UNL     1      48.933   6.598  16.355  0.00  0.00    +0.000 A 
ATOM     20  C   UNL     1      49.496   7.276  17.427  0.00  0.00    +0.000 A 
ATOM     21  S   UNL     1      49.384   6.426  18.903  0.00  0.00    +0.000 S 
ATOM     22  C   UNL     1      48.624   5.103  18.148  0.00  0.00    +0.000 A 
ATOM     23  N   UNL     1      48.295   3.985  18.849  0.00  0.00    +0.000 NA
ATOM     24  C   UNL     1      47.756   3.050  18.141  0.00  0.00    +0.000 A 
ATOM     25  N   UNL     1      47.497   3.136  16.796  0.00  0.00    +0.000 N 
ATOM     26  C   UNL     1      47.766   4.261  16.059  0.00  0.00    +0.000 A 
ATOM     27  O   UNL     1      47.441   4.345  14.882  0.00  0.00    +0.000 OA
ATOM     28  C   UNL     1      48.417   5.327  16.800  0.00  0.00    +0.000 A 
ATOM     29  H   UNL     1      47.043   2.381  16.305  0.00  0.00    +0.000 HD
ENDBRANCH  16  19
ENDBRANCH   1  15
BRANCH   1  30
ATOM     30  C   UNL     1      46.977   9.597  13.248  0.00  0.00    +0.000 C 
BRANCH  30  32
ATOM     31  C   UNL     1      48.925   9.847  11.684  0.00  0.00    +0.000 C 
ATOM     32  C   UNL     1      47.775  10.565  12.372  0.00  0.00    +0.000 C 
ENDBRANCH  30  32
ENDBRANCH   1  30
TORSDOF 7
ENDMDL
MODEL 6
REMARK VINA RESULT:    -7.293      2.305      3.064
REMARK INTER + INTRA:         -11.402
REMARK INTER:                  -9.716
REMARK INTRA:                  -1.686
REMARK UNBOUND:                -1.125
REMARK  Name = 
REMARK  8 active torsions:
REMARK  status: ('A' for Active; 'I' for Inactive)
REMARK    1  A    between atoms: C_1  and  C_2
REMARK    2  A    between atoms: C_2  and  C_3
REMARK    3  A    between atoms: C_3  and  C_4
REMARK    4  A    between atoms: C_4  and  N_5
REMARK    5  A    between atoms: C_4  and  C_18
REMARK    6  A    between atoms: C_6  and  C_8
REMARK    7  A    between atoms: C_21  and  O_22
REMARK    8  A    between atoms: O_22  and  C_23
REMARK                            x       y       z     vdW  Elec       q    Type
REMARK                         _______ _______ _______ _____ _____    ______ ____
ROOT
ATOM      1  C   UNL     1      48.107   7.624  13.978  0.00  0.00    +0.000 C 
ENDROOT
BRANCH   1   2
ATOM      2  C   UNL     1      47.044   6.925  13.137  0.00  0.00    +0.000 A 
ATOM      3  C   UNL     1      46.300   7.646  12.192  0.00  0.00    +0.000 A 
ATOM      4  C   UNL     1      45.342   7.001  11.406  0.00  0.00    +0.000 A 
ATOM      5  C   UNL     1      45.170   5.618  11.499  0.00  0.00    +0.000 A 
ATOM      6  C   UNL     1      45.867   4.900  12.468  0.00  0.00    +0.000 A 
ATOM      7  C   UNL     1      46.796   5.549  13.281  0.00  0.00    +0.000 A 
BRANCH   5   8
ATOM      8  O   UNL     1      44.300   4.892  10.715  0.00  0.00    +0.000 OA
BRANCH   8   9
ATOM      9  C   UNL     1      44.794   4.010   9.780  0.00  0.00    +0.000 A 
ATOM     10  C   UNL     1      44.566   2.630   9.786  0.00  0.00    +0.000 A 
ATOM     11  C   UNL     1      45.165   1.815   8.824  0.00  0.00    +0.000 A 
ATOM     12  C   UNL     1      45.938   2.383   7.813  0.00  0.00    +0.000 A 
ATOM     13  C   UNL     1      46.102   3.767   7.757  0.00  0.00    +0.000 A 
ATOM     14  C   UNL     1      45.532   4.579   8.740  0.00  0.00    +0.000 A 
ENDBRANCH   8   9
ENDBRANCH   5   8
ENDBRANCH   1   2
BRANCH   1  15
ATOM     15  N   UNL     1      48.085   7.031  15.307  0.00  0.00    +0.000 N 
ATOM     16  C   UNL     1      49.180   6.504  15.940  0.00  0.00    +0.000 C 
ATOM     17  O   UNL     1      50.318   6.574  15.488  0.00  0.00    +0.000 OA
ATOM     18  H   UNL     1      47.175   6.694  15.604  0.00  0.00    +0.000 HD
BRANCH  16  19
ATOM     19  C   UNL     1      48.919   5.889  17.246  0.00  0.00    +0.000 A 
ATOM     20  C   UNL     1      49.133   4.531  17.433  0.00  0.00    +0.000 A 
ATOM     21  S   UNL     1      48.769   3.998  19.013  0.00  0.00    +0.000 S 
ATOM     22  C   UNL     1      48.267   5.554  19.484  0.00  0.00    +0.000 A 
ATOM     23  N   UNL     1      47.776   5.790  20.730  0.00  0.00    +0.000 NA
ATOM     24  C   UNL     1      47.402   7.009  20.936  0.00  0.00    +0.000 A 
ATOM     25  N   UNL     1      47.493   8.021  20.014  0.00  0.00    +0.000 N 
ATOM     26  C   UNL     1      48.027   7.842  18.764  0.00  0.00    +0.000 A 
ATOM     27  O   UNL     1      48.181   8.782  17.995  0.00  0.00    +0.000 OA
ATOM     28  C   UNL     1      48.420   6.476  18.465  0.00  0.00    +0.000 A 
ATOM     29  H   UNL     1      47.214   8.962  20.247  0.00  0.00    +0.000 HD
ENDBRANCH  16  19
ENDBRANCH   1  15
BRANCH   1  30
ATOM     30  C   UNL     1      47.878   9.148  14.010  0.00  0.00    +0.000 C 
BRANCH  30  32
ATOM     31  C   UNL     1      49.325   9.652  12.021  0.00  0.00    +0.000 C 
ATOM     32  C   UNL     1      49.075   9.948  13.491  0.00  0.00    +0.000 C 
ENDBRANCH  30  32
ENDBRANCH   1  30
TORSDOF 7
ENDMDL
MODEL 7
REMARK VINA RESULT:    -7.019      3.579      7.957
REMARK INTER + INTRA:         -11.016
REMARK INTER:                  -9.689
REMARK INTRA:                  -1.327
REMARK UNBOUND:                -1.125
REMARK  Name = 
REMARK  8 active torsions:
REMARK  status: ('A' for Active; 'I' for Inactive)
REMARK    1  A    between atoms: C_1  and  C_2
REMARK    2  A    between atoms: C_2  and  C_3
REMARK    3  A    between atoms: C_3  and  C_4
REMARK    4  A    between atoms: C_4  and  N_5
REMARK    5  A    between atoms: C_4  and  C_18
REMARK    6  A    between atoms: C_6  and  C_8
REMARK    7  A    between atoms: C_21  and  O_22
REMARK    8  A    between atoms: O_22  and  C_23
REMARK                            x       y       z     vdW  Elec       q    Type
REMARK                         _______ _______ _______ _____ _____    ______ ____
ROOT
ATOM      1  C   UNL     1      47.738   6.943  13.506  0.00  0.00    +0.000 C 
ENDROOT
BRANCH   1   2
ATOM      2  C   UNL     1      48.329   6.373  14.790  0.00  0.00    +0.000 A 
ATOM      3  C   UNL     1      47.691   5.315  15.455  0.00  0.00    +0.000 A 
ATOM      4  C   UNL     1      48.244   4.777  16.619  0.00  0.00    +0.000 A 
ATOM      5  C   UNL     1      49.477   5.235  17.090  0.00  0.00    +0.000 A 
ATOM      6  C   UNL     1      50.094   6.318  16.468  0.00  0.00    +0.000 A 
ATOM      7  C   UNL     1      49.523   6.883  15.327  0.00  0.00    +0.000 A 
BRANCH   5   8
ATOM      8  O   UNL     1      50.127   4.715  18.188  0.00  0.00    +0.000 OA
BRANCH   8   9
ATOM      9  C   UNL     1      50.974   3.640  18.037  0.00  0.00    +0.000 A 
ATOM     10  C   UNL     1      50.628   2.431  17.426  0.00  0.00    +0.000 A 
ATOM     11  C   UNL     1      51.545   1.380  17.378  0.00  0.00    +0.000 A 
ATOM     12  C   UNL     1      52.833   1.556  17.880  0.00  0.00    +0.000 A 
ATOM     13  C   UNL     1      53.208   2.787  18.418  0.00  0.00    +0.000 A 
ATOM     14  C   UNL     1      52.280   3.827  18.497  0.00  0.00    +0.000 A 
ENDBRANCH   8   9
ENDBRANCH   5   8
ENDBRANCH   1   2
BRANCH   1  15
ATOM     15  N   UNL     1      46.903   5.915  12.903  0.00  0.00    +0.000 N 
ATOM     16  C   UNL     1      45.708   6.154  12.276  0.00  0.00    +0.000 C 
ATOM     17  O   UNL     1      45.271   7.281  12.067  0.00  0.00    +0.000 OA
ATOM     18  H   UNL     1      47.050   4.981  13.273  0.00  0.00    +0.000 HD
BRANCH  16  19
ATOM     19  C   UNL     1      44.993   4.963  11.805  0.00  0.00    +0.000 A 
ATOM     20  C   UNL     1      44.231   4.212  12.689  0.00  0.00    +0.000 A 
ATOM     21  S   UNL     1      43.480   2.863  11.962  0.00  0.00    +0.000 S 
ATOM     22  C   UNL     1      44.187   3.211  10.454  0.00  0.00    +0.000 A 
ATOM     23  N   UNL     1      43.992   2.400   9.379  0.00  0.00    +0.000 NA
ATOM     24  C   UNL     1      44.617   2.769   8.311  0.00  0.00    +0.000 A 
ATOM     25  N   UNL     1      45.406   3.887   8.212  0.00  0.00    +0.000 N 
ATOM     26  C   UNL     1      45.591   4.759   9.254  0.00  0.00    +0.000 A 
ATOM     27  O   UNL     1      46.225   5.797   9.112  0.00  0.00    +0.000 OA
ATOM     28  C   UNL     1      44.947   4.366  10.494  0.00  0.00    +0.000 A 
ATOM     29  H   UNL     1      45.842   4.138   7.338  0.00  0.00    +0.000 HD
ENDBRANCH  16  19
ENDBRANCH   1  15
BRANCH   1  30
ATOM     30  C   UNL     1      48.847   7.432  12.553  0.00  0.00    +0.000 C 
BRANCH  30  32
ATOM     31  C   UNL     1      49.899   9.547  11.700  0.00  0.00    +0.000 C 
ATOM     32  C   UNL     1      48.590   8.836  12.000  0.00  0.00    +0.000 C 
ENDBRANCH  30  32
ENDBRANCH   1  30
TORSDOF 7
ENDMDL
MODEL 8
REMARK VINA RESULT:    -6.926      3.414      8.067
REMARK INTER + INTRA:         -10.885
REMARK INTER:                  -9.296
REMARK INTRA:                  -1.589
REMARK UNBOUND:                -1.125
REMARK  Name = 
REMARK  8 active torsions:
REMARK  status: ('A' for Active; 'I' for Inactive)
REMARK    1  A    between atoms: C_1  and  C_2
REMARK    2  A    between atoms: C_2  and  C_3
REMARK    3  A    between atoms: C_3  and  C_4
REMARK    4  A    between atoms: C_4  and  N_5
REMARK    5  A    between atoms: C_4  and  C_18
REMARK    6  A    between atoms: C_6  and  C_8
REMARK    7  A    between atoms: C_21  and  O_22
REMARK    8  A    between atoms: O_22  and  C_23
REMARK                            x       y       z     vdW  Elec       q    Type
REMARK                         _______ _______ _______ _____ _____    ______ ____
ROOT
ATOM      1  C   UNL     1      48.444   7.732  12.533  0.00  0.00    +0.000 C 
ENDROOT
BRANCH   1   2
ATOM      2  C   UNL     1      48.774   7.151  13.904  0.00  0.00    +0.000 A 
ATOM      3  C   UNL     1      49.900   7.598  14.610  0.00  0.00    +0.000 A 
ATOM      4  C   UNL     1      50.190   7.082  15.876  0.00  0.00    +0.000 A 
ATOM      5  C   UNL     1      49.320   6.174  16.483  0.00  0.00    +0.000 A 
ATOM      6  C   UNL     1      48.226   5.686  15.771  0.00  0.00    +0.000 A 
ATOM      7  C   UNL     1      47.957   6.170  14.491  0.00  0.00    +0.000 A 
BRANCH   5   8
ATOM      8  O   UNL     1      49.491   5.669  17.753  0.00  0.00    +0.000 OA
BRANCH   8   9
ATOM      9  C   UNL     1      48.785   6.209  18.805  0.00  0.00    +0.000 A 
ATOM     10  C   UNL     1      48.370   7.542  18.888  0.00  0.00    +0.000 A 
ATOM     11  C   UNL     1      47.712   8.003  20.029  0.00  0.00    +0.000 A 
ATOM     12  C   UNL     1      47.406   7.119  21.062  0.00  0.00    +0.000 A 
ATOM     13  C   UNL     1      47.747   5.772  20.949  0.00  0.00    +0.000 A 
ATOM     14  C   UNL     1      48.437   5.317  19.823  0.00  0.00    +0.000 A 
ENDBRANCH   8   9
ENDBRANCH   5   8
ENDBRANCH   1   2
BRANCH   1  15
ATOM     15  N   UNL     1      47.659   6.743  11.808  0.00  0.00    +0.000 N 
ATOM     16  C   UNL     1      46.320   6.858  11.542  0.00  0.00    +0.000 C 
ATOM     17  O   UNL     1      45.666   7.863  11.801  0.00  0.00    +0.000 OA
ATOM     18  H   UNL     1      48.048   5.806  11.818  0.00  0.00    +0.000 HD
BRANCH  16  19
ATOM     19  C   UNL     1      45.710   5.710  10.863  0.00  0.00    +0.000 A 
ATOM     20  C   UNL     1      45.853   5.555   9.491  0.00  0.00    +0.000 A 
ATOM     21  S   UNL     1      45.071   4.166   8.880  0.00  0.00    +0.000 S 
ATOM     22  C   UNL     1      44.477   3.754  10.421  0.00  0.00    +0.000 A 
ATOM     23  N   UNL     1      43.671   2.673  10.599  0.00  0.00    +0.000 NA
ATOM     24  C   UNL     1      43.268   2.502  11.814  0.00  0.00    +0.000 A 
ATOM     25  N   UNL     1      43.613   3.302  12.874  0.00  0.00    +0.000 N 
ATOM     26  C   UNL     1      44.463   4.372  12.750  0.00  0.00    +0.000 A 
ATOM     27  O   UNL     1      44.827   5.013  13.727  0.00  0.00    +0.000 OA
ATOM     28  C   UNL     1      44.907   4.637  11.393  0.00  0.00    +0.000 A 
ATOM     29  H   UNL     1      43.291   3.096  13.807  0.00  0.00    +0.000 HD
ENDBRANCH  16  19
ENDBRANCH   1  15
BRANCH   1  30
ATOM     30  C   UNL     1      49.725   8.135  11.776  0.00  0.00    +0.000 C 
BRANCH  30  32
ATOM     31  C   UNL     1      48.439  10.291  11.696  0.00  0.00    +0.000 C 
ATOM     32  C   UNL     1      49.786   9.630  11.451  0.00  0.00    +0.000 C 
ENDBRANCH  30  32
ENDBRANCH   1  30
TORSDOF 7
ENDMDL
MODEL 9
REMARK VINA RESULT:    -6.699      3.404      8.413
REMARK INTER + INTRA:         -10.565
REMARK INTER:                  -9.097
REMARK INTRA:                  -1.468
REMARK UNBOUND:                -1.125
REMARK  Name = 
REMARK  8 active torsions:
REMARK  status: ('A' for Active; 'I' for Inactive)
REMARK    1  A    between atoms: C_1  and  C_2
REMARK    2  A    between atoms: C_2  and  C_3
REMARK    3  A    between atoms: C_3  and  C_4
REMARK    4  A    between atoms: C_4  and  N_5
REMARK    5  A    between atoms: C_4  and  C_18
REMARK    6  A    between atoms: C_6  and  C_8
REMARK    7  A    between atoms: C_21  and  O_22
REMARK    8  A    between atoms: O_22  and  C_23
REMARK                            x       y       z     vdW  Elec       q    Type
REMARK                         _______ _______ _______ _____ _____    ______ ____
ROOT
ATOM      1  C   UNL     1      47.881   7.230  13.090  0.00  0.00    +0.000 C 
ENDROOT
BRANCH   1   2
ATOM      2  C   UNL     1      48.374   6.836  14.478  0.00  0.00    +0.000 A 
ATOM      3  C   UNL     1      47.808   5.740  15.147  0.00  0.00    +0.000 A 
ATOM      4  C   UNL     1      48.275   5.366  16.409  0.00  0.00    +0.000 A 
ATOM      5  C   UNL     1      49.361   6.030  16.984  0.00  0.00    +0.000 A 
ATOM      6  C   UNL     1      49.898   7.149  16.352  0.00  0.00    +0.000 A 
ATOM      7  C   UNL     1      49.407   7.550  15.109  0.00  0.00    +0.000 A 
BRANCH   5   8
ATOM      8  O   UNL     1      49.930   5.683  18.190  0.00  0.00    +0.000 OA
BRANCH   8   9
ATOM      9  C   UNL     1      49.196   5.793  19.350  0.00  0.00    +0.000 A 
ATOM     10  C   UNL     1      49.093   4.797  20.327  0.00  0.00    +0.000 A 
ATOM     11  C   UNL     1      48.271   4.986  21.439  0.00  0.00    +0.000 A 
ATOM     12  C   UNL     1      47.604   6.198  21.614  0.00  0.00    +0.000 A 
ATOM     13  C   UNL     1      47.768   7.223  20.683  0.00  0.00    +0.000 A 
ATOM     14  C   UNL     1      48.562   7.021  19.552  0.00  0.00    +0.000 A 
ENDBRANCH   8   9
ENDBRANCH   5   8
ENDBRANCH   1   2
BRANCH   1  15
ATOM     15  N   UNL     1      47.032   6.156  12.596  0.00  0.00    +0.000 N 
ATOM     16  C   UNL     1      45.724   6.311  12.220  0.00  0.00    +0.000 C 
ATOM     17  O   UNL     1      45.165   7.402  12.162  0.00  0.00    +0.000 OA
ATOM     18  H   UNL     1      47.323   5.225  12.878  0.00  0.00    +0.000 HD
BRANCH  16  19
ATOM     19  C   UNL     1      45.030   5.081  11.824  0.00  0.00    +0.000 A 
ATOM     20  C   UNL     1      44.296   4.363  12.757  0.00  0.00    +0.000 A 
ATOM     21  S   UNL     1      43.567   2.960  12.114  0.00  0.00    +0.000 S 
ATOM     22  C   UNL     1      44.249   3.240  10.580  0.00  0.00    +0.000 A 
ATOM     23  N   UNL     1      44.060   2.368   9.554  0.00  0.00    +0.000 NA
ATOM     24  C   UNL     1      44.665   2.691   8.460  0.00  0.00    +0.000 A 
ATOM     25  N   UNL     1      45.427   3.819   8.290  0.00  0.00    +0.000 N 
ATOM     26  C   UNL     1      45.604   4.751   9.280  0.00  0.00    +0.000 A 
ATOM     27  O   UNL     1      46.213   5.793   9.074  0.00  0.00    +0.000 OA
ATOM     28  C   UNL     1      44.983   4.412  10.548  0.00  0.00    +0.000 A 
ATOM     29  H   UNL     1      45.848   4.032   7.399  0.00  0.00    +0.000 HD
ENDBRANCH  16  19
ENDBRANCH   1  15
BRANCH   1  30
ATOM     30  C   UNL     1      49.062   7.527  12.144  0.00  0.00    +0.000 C 
BRANCH  30  32
ATOM     31  C   UNL     1      48.175   9.867  12.348  0.00  0.00    +0.000 C 
ATOM     32  C   UNL     1      48.972   8.904  11.483  0.00  0.00    +0.000 C 
ENDBRANCH  30  32
ENDBRANCH   1  30
TORSDOF 7
ENDMDL
