MODEL 1
REMARK VINA RESULT:    -8.249      0.000      0.000
REMARK INTER + INTRA:         -12.645
REMARK INTER:                 -11.624
REMARK INTRA:                  -1.020
REMARK UNBOUND:                -1.020
REMARK  Name = 
REMARK  8 active torsions:
REMARK  status: ('A' for Active; 'I' for Inactive)
REMARK    1  A    between atoms: C_1  and  C_2
REMARK    2  A    between atoms: C_5  and  C_6
REMARK    3  A    between atoms: C_6  and  N_7
REMARK    4  A    between atoms: N_7  and  C_8
REMARK    5  A    between atoms: C_8  and  C_9
REMARK    6  A    between atoms: C_12  and  C_13
REMARK    7  A    between atoms: C_13  and  N_14
REMARK    8  A    between atoms: C_15  and  C_17
REMARK                            x       y       z     vdW  Elec       q    Type
REMARK                         _______ _______ _______ _____ _____    ______ ____
ROOT
ATOM      1  C   UNL     1      44.735   5.659  11.821  0.00  0.00    +0.000 A 
ATOM      2  C   UNL     1      45.065   4.976  13.000  0.00  0.00    +0.000 A 
ATOM      3  C   UNL     1      46.248   5.270  13.686  0.00  0.00    +0.000 A 
ATOM      4  C   UNL     1      47.118   6.258  13.209  0.00  0.00    +0.000 A 
ATOM      5  C   UNL     1      46.804   6.917  12.015  0.00  0.00    +0.000 A 
ATOM      6  C   UNL     1      45.621   6.625  11.328  0.00  0.00    +0.000 A 
ENDROOT
BRANCH   1   7
ATOM      7  C   UNL     1      43.432   5.380  11.111  0.00  0.00    +0.000 C 
BRANCH   7   8
ATOM      8  N   UNL     1      43.605   4.743   9.802  0.00  0.00    +0.000 NA
ATOM      9  H   UNL     1      42.716   4.770   9.306  0.00  0.00    +0.000 HD
BRANCH   8  10
ATOM     10  C   UNL     1      44.029   3.345   9.919  0.00  0.00    +0.000 C 
BRANCH  10  15
ATOM     11  C   UNL     1      48.046   1.865   6.068  0.00  0.00    +0.000 C 
ATOM     12  C   UNL     1      46.999   2.299   7.048  0.00  0.00    +0.000 A 
ATOM     13  C   UNL     1      46.574   3.622   7.102  0.00  0.00    +0.000 A 
ATOM     14  C   UNL     1      45.597   3.975   8.032  0.00  0.00    +0.000 A 
ATOM     15  C   UNL     1      45.065   3.004   8.884  0.00  0.00    +0.000 A 
ATOM     16  C   UNL     1      45.562   1.713   8.762  0.00  0.00    +0.000 A 
ATOM     17  N   UNL     1      46.507   1.341   7.868  0.00  0.00    +0.000 NA
ENDBRANCH  10  15
ENDBRANCH   8  10
ENDBRANCH   7   8
ENDBRANCH   1   7
BRANCH   4  18
ATOM     18  C   UNL     1      48.393   6.586  13.942  0.00  0.00    +0.000 C 
BRANCH  18  19
ATOM     19  N   UNL     1      48.148   6.783  15.347  0.00  0.00    +0.000 N 
ATOM     20  C   UNL     1      49.127   6.546  16.277  0.00  0.00    +0.000 C 
ATOM     21  O   UNL     1      50.257   6.189  15.953  0.00  0.00    +0.000 OA
ATOM     22  H   UNL     1      47.179   6.852  15.644  0.00  0.00    +0.000 HD
BRANCH  20  23
ATOM     23  C   UNL     1      48.777   6.802  17.678  0.00  0.00    +0.000 A 
ATOM     24  C   UNL     1      48.483   8.097  18.086  0.00  0.00    +0.000 A 
ATOM     25  S   UNL     1      48.051   8.214  19.732  0.00  0.00    +0.000 S 
ATOM     26  C   UNL     1      48.290   6.546  19.970  0.00  0.00    +0.000 A 
ATOM     27  N   UNL     1      48.113   5.982  21.195  0.00  0.00    +0.000 NA
ATOM     28  C   UNL     1      48.360   4.716  21.239  0.00  0.00    +0.000 A 
ATOM     29  N   UNL     1      48.760   3.960  20.168  0.00  0.00    +0.000 N 
ATOM     30  C   UNL     1      48.922   4.480  18.906  0.00  0.00    +0.000 A 
ATOM     31  O   UNL     1      49.239   3.767  17.960  0.00  0.00    +0.000 OA
ATOM     32  C   UNL     1      48.674   5.905  18.805  0.00  0.00    +0.000 A 
ATOM     33  H   UNL     1      48.927   2.970  20.267  0.00  0.00    +0.000 HD
ENDBRANCH  20  23
ENDBRANCH  18  19
ENDBRANCH   4  18
TORSDOF 7
ENDMDL
MODEL 2
REMARK VINA RESULT:    -7.777      1.308      1.893
REMARK INTER + INTRA:         -11.979
REMARK INTER:                 -10.960
REMARK INTRA:                  -1.019
REMARK UNBOUND:                -1.020
REMARK  Name = 
REMARK  8 active torsions:
REMARK  status: ('A' for Active; 'I' for Inactive)
REMARK    1  A    between atoms: C_1  and  C_2
REMARK    2  A    between atoms: C_5  and  C_6
REMARK    3  A    between atoms: C_6  and  N_7
REMARK    4  A    between atoms: N_7  and  C_8
REMARK    5  A    between atoms: C_8  and  C_9
REMARK    6  A    between atoms: C_12  and  C_13
REMARK    7  A    between atoms: C_13  and  N_14
REMARK    8  A    between atoms: C_15  and  C_17
REMARK                            x       y       z     vdW  Elec       q    Type
REMARK                         _______ _______ _______ _____ _____    ______ ____
ROOT
ATOM      1  C   UNL     1      44.605   5.624  11.772  0.00  0.00    +0.000 A 
ATOM      2  C   UNL     1      44.897   4.934  12.957  0.00  0.00    +0.000 A 
ATOM      3  C   UNL     1      46.067   5.212  13.671  0.00  0.00    +0.000 A 
ATOM      4  C   UNL     1      46.961   6.188  13.218  0.00  0.00    +0.000 A 
ATOM      5  C   UNL     1      46.685   6.854  12.017  0.00  0.00    +0.000 A 
ATOM      6  C   UNL     1      45.515   6.578  11.302  0.00  0.00    +0.000 A 
ENDROOT
BRANCH   1   7
ATOM      7  C   UNL     1      43.315   5.363  11.029  0.00  0.00    +0.000 C 
BRANCH   7   8
ATOM      8  N   UNL     1      43.509   4.686   9.744  0.00  0.00    +0.000 NA
ATOM      9  H   UNL     1      42.618   4.665   9.249  0.00  0.00    +0.000 HD
BRANCH   8  10
ATOM     10  C   UNL     1      43.980   3.308   9.909  0.00  0.00    +0.000 C 
BRANCH  10  15
ATOM     11  C   UNL     1      48.001   1.812   6.069  0.00  0.00    +0.000 C 
ATOM     12  C   UNL     1      46.952   2.250   7.045  0.00  0.00    +0.000 A 
ATOM     13  C   UNL     1      46.512   3.569   7.079  0.00  0.00    +0.000 A 
ATOM     14  C   UNL     1      45.534   3.925   8.007  0.00  0.00    +0.000 A 
ATOM     15  C   UNL     1      45.017   2.963   8.876  0.00  0.00    +0.000 A 
ATOM     16  C   UNL     1      45.528   1.676   8.773  0.00  0.00    +0.000 A 
ATOM     17  N   UNL     1      46.475   1.300   7.882  0.00  0.00    +0.000 NA
ENDBRANCH  10  15
ENDBRANCH   8  10
ENDBRANCH   7   8
ENDBRANCH   1   7
BRANCH   4  18
ATOM     18  C   UNL     1      48.222   6.498  13.981  0.00  0.00    +0.000 C 
BRANCH  18  19
ATOM     19  N   UNL     1      48.103   6.106  15.362  0.00  0.00    +0.000 N 
ATOM     20  C   UNL     1      48.979   6.571  16.309  0.00  0.00    +0.000 C 
ATOM     21  O   UNL     1      49.877   7.362  16.030  0.00  0.00    +0.000 OA
ATOM     22  H   UNL     1      47.527   5.294  15.566  0.00  0.00    +0.000 HD
BRANCH  20  23
ATOM     23  C   UNL     1      48.751   6.126  17.688  0.00  0.00    +0.000 A 
ATOM     24  C   UNL     1      49.012   4.806  18.034  0.00  0.00    +0.000 A 
ATOM     25  S   UNL     1      48.740   4.465  19.683  0.00  0.00    +0.000 S 
ATOM     26  C   UNL     1      48.214   6.056  19.981  0.00  0.00    +0.000 A 
ATOM     27  N   UNL     1      47.799   6.434  21.220  0.00  0.00    +0.000 NA
ATOM     28  C   UNL     1      47.397   7.659  21.296  0.00  0.00    +0.000 A 
ATOM     29  N   UNL     1      47.380   8.542  20.249  0.00  0.00    +0.000 N 
ATOM     30  C   UNL     1      47.819   8.214  18.988  0.00  0.00    +0.000 A 
ATOM     31  O   UNL     1      47.832   9.042  18.083  0.00  0.00    +0.000 OA
ATOM     32  C   UNL     1      48.266   6.842  18.844  0.00  0.00    +0.000 A 
ATOM     33  H   UNL     1      47.063   9.492  20.377  0.00  0.00    +0.000 HD
ENDBRANCH  20  23
ENDBRANCH  18  19
ENDBRANCH   4  18
TORSDOF 7
ENDMDL
MODEL 3
REMARK VINA RESULT:    -7.759      1.185      1.381
REMARK INTER + INTRA:         -11.955
REMARK INTER:                 -10.729
REMARK INTRA:                  -1.226
REMARK UNBOUND:                -1.020
REMARK  Name = 
REMARK  8 active torsions:
REMARK  status: ('A' for Active; 'I' for Inactive)
REMARK    1  A    between atoms: C_1  and  C_2
REMARK    2  A    between atoms: C_5  and  C_6
REMARK    3  A    between atoms: C_6  and  N_7
REMARK    4  A    between atoms: N_7  and  C_8
REMARK    5  A    between atoms: C_8  and  C_9
REMARK    6  A    between atoms: C_12  and  C_13
REMARK    7  A    between atoms: C_13  and  N_14
REMARK    8  A    between atoms: C_15  and  C_17
REMARK                            x       y       z     vdW  Elec       q    Type
REMARK                         _______ _______ _______ _____ _____    ______ ____
ROOT
ATOM      1  C   UNL     1      44.593   5.177  12.241  0.00  0.00    +0.000 A 
ATOM      2  C   UNL     1      45.163   4.596  13.383  0.00  0.00    +0.000 A 
ATOM      3  C   UNL     1      46.396   5.042  13.869  0.00  0.00    +0.000 A 
ATOM      4  C   UNL     1      47.078   6.082  13.227  0.00  0.00    +0.000 A 
ATOM      5  C   UNL     1      46.524   6.640  12.068  0.00  0.00    +0.000 A 
ATOM      6  C   UNL     1      45.291   6.195  11.581  0.00  0.00    +0.000 A 
ENDROOT
BRANCH   1   7
ATOM      7  C   UNL     1      43.236   4.732  11.748  0.00  0.00    +0.000 C 
BRANCH   7   8
ATOM      8  N   UNL     1      43.269   4.135  10.411  0.00  0.00    +0.000 NA
ATOM      9  H   UNL     1      42.315   3.912  10.129  0.00  0.00    +0.000 HD
BRANCH   8  10
ATOM     10  C   UNL     1      44.062   2.904  10.373  0.00  0.00    +0.000 C 
BRANCH  10  15
ATOM     11  C   UNL     1      47.407   2.968   5.686  0.00  0.00    +0.000 C 
ATOM     12  C   UNL     1      46.553   2.901   6.916  0.00  0.00    +0.000 A 
ATOM     13  C   UNL     1      46.409   1.712   7.623  0.00  0.00    +0.000 A 
ATOM     14  C   UNL     1      45.603   1.703   8.760  0.00  0.00    +0.000 A 
ATOM     15  C   UNL     1      44.961   2.874   9.167  0.00  0.00    +0.000 A 
ATOM     16  C   UNL     1      45.157   4.007   8.389  0.00  0.00    +0.000 A 
ATOM     17  N   UNL     1      45.935   4.048   7.282  0.00  0.00    +0.000 NA
ENDBRANCH  10  15
ENDBRANCH   8  10
ENDBRANCH   7   8
ENDBRANCH   1   7
BRANCH   4  18
ATOM     18  C   UNL     1      48.405   6.573  13.743  0.00  0.00    +0.000 C 
BRANCH  18  19
ATOM     19  N   UNL     1      48.313   6.956  15.129  0.00  0.00    +0.000 N 
ATOM     20  C   UNL     1      49.430   7.019  15.922  0.00  0.00    +0.000 C 
ATOM     21  O   UNL     1      50.553   6.787  15.481  0.00  0.00    +0.000 OA
ATOM     22  H   UNL     1      47.393   6.926  15.558  0.00  0.00    +0.000 HD
BRANCH  20  23
ATOM     23  C   UNL     1      49.224   7.442  17.311  0.00  0.00    +0.000 A 
ATOM     24  C   UNL     1      49.850   8.591  17.778  0.00  0.00    +0.000 A 
ATOM     25  S   UNL     1      49.470   8.967  19.398  0.00  0.00    +0.000 S 
ATOM     26  C   UNL     1      48.496   7.580  19.548  0.00  0.00    +0.000 A 
ATOM     27  N   UNL     1      47.877   7.284  20.723  0.00  0.00    +0.000 NA
ATOM     28  C   UNL     1      47.197   6.186  20.705  0.00  0.00    +0.000 A 
ATOM     29  N   UNL     1      47.072   5.362  19.618  0.00  0.00    +0.000 N 
ATOM     30  C   UNL     1      47.653   5.636  18.402  0.00  0.00    +0.000 A 
ATOM     31  O   UNL     1      47.485   4.900  17.436  0.00  0.00    +0.000 OA
ATOM     32  C   UNL     1      48.444   6.851  18.373  0.00  0.00    +0.000 A 
ATOM     33  H   UNL     1      46.516   4.521  19.666  0.00  0.00    +0.000 HD
ENDBRANCH  20  23
ENDBRANCH  18  19
ENDBRANCH   4  18
TORSDOF 7
ENDMDL
MODEL 4
REMARK VINA RESULT:    -7.221      2.497      3.235
REMARK INTER + INTRA:         -11.197
REMARK INTER:                  -9.999
REMARK INTRA:                  -1.198
REMARK UNBOUND:                -1.020
REMARK  Name = 
REMARK  8 active torsions:
REMARK  status: ('A' for Active; 'I' for Inactive)
REMARK    1  A    between atoms: C_1  and  C_2
REMARK    2  A    between atoms: C_5  and  C_6
REMARK    3  A    between atoms: C_6  and  N_7
REMARK    4  A    between atoms: N_7  and  C_8
REMARK    5  A    between atoms: C_8  and  C_9
REMARK    6  A    between atoms: C_12  and  C_13
REMARK    7  A    between atoms: C_13  and  N_14
REMARK    8  A    between atoms: C_15  and  C_17
REMARK                            x       y       z     vdW  Elec       q    Type
REMARK                         _______ _______ _______ _____ _____    ______ ____
ROOT
ATOM      1  C   UNL     1      45.220   6.653  12.098  0.00  0.00    +0.000 A 
ATOM      2  C   UNL     1      45.392   7.995  12.464  0.00  0.00    +0.000 A 
ATOM      3  C   UNL     1      46.651   8.474  12.840  0.00  0.00    +0.000 A 
ATOM      4  C   UNL     1      47.761   7.622  12.849  0.00  0.00    +0.000 A 
ATOM      5  C   UNL     1      47.583   6.274  12.514  0.00  0.00    +0.000 A 
ATOM      6  C   UNL     1      46.325   5.793  12.138  0.00  0.00    +0.000 A 
ENDROOT
BRANCH   1   7
ATOM      7  C   UNL     1      43.872   6.149  11.639  0.00  0.00    +0.000 C 
BRANCH   7   8
ATOM      8  N   UNL     1      43.892   5.572  10.292  0.00  0.00    +0.000 NA
ATOM      9  H   UNL     1      43.115   5.960   9.759  0.00  0.00    +0.000 HD
BRANCH   8  10
ATOM     10  C   UNL     1      43.756   4.113  10.313  0.00  0.00    +0.000 C 
BRANCH  10  15
ATOM     11  C   UNL     1      47.477   1.462   6.808  0.00  0.00    +0.000 C 
ATOM     12  C   UNL     1      46.518   2.198   7.694  0.00  0.00    +0.000 A 
ATOM     13  C   UNL     1      46.378   3.578   7.606  0.00  0.00    +0.000 A 
ATOM     14  C   UNL     1      45.472   4.215   8.453  0.00  0.00    +0.000 A 
ATOM     15  C   UNL     1      44.726   3.465   9.364  0.00  0.00    +0.000 A 
ATOM     16  C   UNL     1      44.944   2.094   9.384  0.00  0.00    +0.000 A 
ATOM     17  N   UNL     1      45.815   1.448   8.574  0.00  0.00    +0.000 NA
ENDBRANCH  10  15
ENDBRANCH   8  10
ENDBRANCH   7   8
ENDBRANCH   1   7
BRANCH   4  18
ATOM     18  C   UNL     1      49.123   8.127  13.248  0.00  0.00    +0.000 C 
BRANCH  18  19
ATOM     19  N   UNL     1      49.756   7.233  14.183  0.00  0.00    +0.000 N 
ATOM     20  C   UNL     1      49.534   7.344  15.531  0.00  0.00    +0.000 C 
ATOM     21  O   UNL     1      48.766   8.182  15.996  0.00  0.00    +0.000 OA
ATOM     22  H   UNL     1      50.552   6.698  13.847  0.00  0.00    +0.000 HD
BRANCH  20  23
ATOM     23  C   UNL     1      50.212   6.366  16.390  0.00  0.00    +0.000 A 
ATOM     24  C   UNL     1      49.457   5.507  17.179  0.00  0.00    +0.000 A 
ATOM     25  S   UNL     1      50.396   4.404  18.079  0.00  0.00    +0.000 S 
ATOM     26  C   UNL     1      51.845   5.069  17.486  0.00  0.00    +0.000 A 
ATOM     27  N   UNL     1      53.052   4.590  17.892  0.00  0.00    +0.000 NA
ATOM     28  C   UNL     1      54.068   5.208  17.388  0.00  0.00    +0.000 A 
ATOM     29  N   UNL     1      53.986   6.256  16.509  0.00  0.00    +0.000 N 
ATOM     30  C   UNL     1      52.791   6.754  16.047  0.00  0.00    +0.000 A 
ATOM     31  O   UNL     1      52.755   7.664  15.226  0.00  0.00    +0.000 OA
ATOM     32  C   UNL     1      51.616   6.104  16.597  0.00  0.00    +0.000 A 
ATOM     33  H   UNL     1      54.821   6.690  16.142  0.00  0.00    +0.000 HD
ENDBRANCH  20  23
ENDBRANCH  18  19
ENDBRANCH   4  18
TORSDOF 7
ENDMDL
MODEL 5
REMARK VINA RESULT:    -6.742      2.623      3.312
REMARK INTER + INTRA:         -10.522
REMARK INTER:                  -9.177
REMARK INTRA:                  -1.345
REMARK UNBOUND:                -1.020
REMARK  Name = 
REMARK  8 active torsions:
REMARK  status: ('A' for Active; 'I' for Inactive)
REMARK    1  A    between atoms: C_1  and  C_2
REMARK    2  A    between atoms: C_5  and  C_6
REMARK    3  A    between atoms: C_6  and  N_7
REMARK    4  A    between atoms: N_7  and  C_8
REMARK    5  A    between atoms: C_8  and  C_9
REMARK    6  A    between atoms: C_12  and  C_13
REMARK    7  A    between atoms: C_13  and  N_14
REMARK    8  A    between atoms: C_15  and  C_17
REMARK                            x       y       z     vdW  Elec       q    Type
REMARK                         _______ _______ _______ _____ _____    ______ ____
ROOT
ATOM      1  C   UNL     1      45.395   6.913  11.981  0.00  0.00    +0.000 A 
ATOM      2  C   UNL     1      46.684   6.392  11.801  0.00  0.00    +0.000 A 
ATOM      3  C   UNL     1      47.808   7.212  11.936  0.00  0.00    +0.000 A 
ATOM      4  C   UNL     1      47.665   8.566  12.261  0.00  0.00    +0.000 A 
ATOM      5  C   UNL     1      46.376   9.093  12.410  0.00  0.00    +0.000 A 
ATOM      6  C   UNL     1      45.251   8.274  12.275  0.00  0.00    +0.000 A 
ENDROOT
BRANCH   1   7
ATOM      7  C   UNL     1      44.183   6.015  11.889  0.00  0.00    +0.000 C 
BRANCH   7   8
ATOM      8  N   UNL     1      44.514   4.620  11.586  0.00  0.00    +0.000 NA
ATOM      9  H   UNL     1      45.517   4.550  11.423  0.00  0.00    +0.000 HD
BRANCH   8  10
ATOM     10  C   UNL     1      43.815   4.132  10.395  0.00  0.00    +0.000 C 
BRANCH  10  15
ATOM     11  C   UNL     1      47.531   1.761   6.689  0.00  0.00    +0.000 C 
ATOM     12  C   UNL     1      46.571   2.425   7.629  0.00  0.00    +0.000 A 
ATOM     13  C   UNL     1      46.407   3.806   7.626  0.00  0.00    +0.000 A 
ATOM     14  C   UNL     1      45.503   4.375   8.521  0.00  0.00    +0.000 A 
ATOM     15  C   UNL     1      44.782   3.559   9.396  0.00  0.00    +0.000 A 
ATOM     16  C   UNL     1      45.024   2.193   9.331  0.00  0.00    +0.000 A 
ATOM     17  N   UNL     1      45.894   1.612   8.472  0.00  0.00    +0.000 NA
ENDBRANCH  10  15
ENDBRANCH   8  10
ENDBRANCH   7   8
ENDBRANCH   1   7
BRANCH   4  18
ATOM     18  C   UNL     1      48.869   9.458  12.414  0.00  0.00    +0.000 C 
BRANCH  18  19
ATOM     19  N   UNL     1      49.674   9.056  13.538  0.00  0.00    +0.000 N 
ATOM     20  C   UNL     1      50.879   8.429  13.358  0.00  0.00    +0.000 C 
ATOM     21  O   UNL     1      51.338   8.213  12.239  0.00  0.00    +0.000 OA
ATOM     22  H   UNL     1      49.218   9.018  14.445  0.00  0.00    +0.000 HD
BRANCH  20  23
ATOM     23  C   UNL     1      51.627   8.084  14.572  0.00  0.00    +0.000 A 
ATOM     24  C   UNL     1      52.914   8.579  14.749  0.00  0.00    +0.000 A 
ATOM     25  S   UNL     1      53.624   8.124  16.230  0.00  0.00    +0.000 S 
ATOM     26  C   UNL     1      52.258   7.207  16.666  0.00  0.00    +0.000 A 
ATOM     27  N   UNL     1      52.223   6.518  17.838  0.00  0.00    +0.000 NA
ATOM     28  C   UNL     1      51.140   5.840  18.026  0.00  0.00    +0.000 A 
ATOM     29  N   UNL     1      50.086   5.796  17.152  0.00  0.00    +0.000 N 
ATOM     30  C   UNL     1      50.063   6.500  15.972  0.00  0.00    +0.000 A 
ATOM     31  O   UNL     1      49.084   6.472  15.233  0.00  0.00    +0.000 OA
ATOM     32  C   UNL     1      51.265   7.265  15.704  0.00  0.00    +0.000 A 
ATOM     33  H   UNL     1      49.261   5.253  17.364  0.00  0.00    +0.000 HD
ENDBRANCH  20  23
ENDBRANCH  18  19
ENDBRANCH   4  18
TORSDOF 7
ENDMDL
MODEL 6
REMARK VINA RESULT:    -6.683      3.256      8.654
REMARK INTER + INTRA:         -10.438
REMARK INTER:                  -9.270
REMARK INTRA:                  -1.169
REMARK UNBOUND:                -1.020
REMARK  Name = 
REMARK  8 active torsions:
REMARK  status: ('A' for Active; 'I' for Inactive)
REMARK    1  A    between atoms: C_1  and  C_2
REMARK    2  A    between atoms: C_5  and  C_6
REMARK    3  A    between atoms: C_6  and  N_7
REMARK    4  A    between atoms: N_7  and  C_8
REMARK    5  A    between atoms: C_8  and  C_9
REMARK    6  A    between atoms: C_12  and  C_13
REMARK    7  A    between atoms: C_13  and  N_14
REMARK    8  A    between atoms: C_15  and  C_17
REMARK                            x       y       z     vdW  Elec       q    Type
REMARK                         _______ _______ _______ _____ _____    ______ ____
ROOT
ATOM      1  C   UNL     1      48.974   8.719  18.334  0.00  0.00    +0.000 A 
ATOM      2  C   UNL     1      48.141   9.191  17.310  0.00  0.00    +0.000 A 
ATOM      3  C   UNL     1      48.385   8.846  15.978  0.00  0.00    +0.000 A 
ATOM      4  C   UNL     1      49.462   8.017  15.645  0.00  0.00    +0.000 A 
ATOM      5  C   UNL     1      50.313   7.571  16.664  0.00  0.00    +0.000 A 
ATOM      6  C   UNL     1      50.070   7.915  17.997  0.00  0.00    +0.000 A 
ENDROOT
BRANCH   1   7
ATOM      7  C   UNL     1      48.679   9.047  19.779  0.00  0.00    +0.000 C 
BRANCH   7   8
ATOM      8  N   UNL     1      48.935   7.932  20.694  0.00  0.00    +0.000 NA
ATOM      9  H   UNL     1      49.734   7.402  20.348  0.00  0.00    +0.000 HD
BRANCH   8  10
ATOM     10  C   UNL     1      47.789   7.026  20.799  0.00  0.00    +0.000 C 
BRANCH  10  15
ATOM     11  C   UNL     1      48.399   2.700  17.047  0.00  0.00    +0.000 C 
ATOM     12  C   UNL     1      48.193   3.837  18.001  0.00  0.00    +0.000 A 
ATOM     13  C   UNL     1      47.122   4.711  17.851  0.00  0.00    +0.000 A 
ATOM     14  C   UNL     1      46.975   5.754  18.765  0.00  0.00    +0.000 A 
ATOM     15  C   UNL     1      47.894   5.902  19.805  0.00  0.00    +0.000 A 
ATOM     16  C   UNL     1      48.936   4.985  19.865  0.00  0.00    +0.000 A 
ATOM     17  N   UNL     1      49.103   3.963  18.994  0.00  0.00    +0.000 NA
ENDBRANCH  10  15
ENDBRANCH   8  10
ENDBRANCH   7   8
ENDBRANCH   1   7
BRANCH   4  18
ATOM     18  C   UNL     1      49.733   7.635  14.213  0.00  0.00    +0.000 C 
BRANCH  18  19
ATOM     19  N   UNL     1      48.505   7.383  13.502  0.00  0.00    +0.000 N 
ATOM     20  C   UNL     1      47.780   6.241  13.723  0.00  0.00    +0.000 C 
ATOM     21  O   UNL     1      48.124   5.404  14.553  0.00  0.00    +0.000 OA
ATOM     22  H   UNL     1      48.332   7.936  12.668  0.00  0.00    +0.000 HD
BRANCH  20  23
ATOM     23  C   UNL     1      46.535   6.098  12.961  0.00  0.00    +0.000 A 
ATOM     24  C   UNL     1      45.919   7.227  12.436  0.00  0.00    +0.000 A 
ATOM     25  S   UNL     1      44.509   6.882  11.540  0.00  0.00    +0.000 S 
ATOM     26  C   UNL     1      44.643   5.217  11.865  0.00  0.00    +0.000 A 
ATOM     27  N   UNL     1      43.717   4.337  11.400  0.00  0.00    +0.000 NA
ATOM     28  C   UNL     1      43.925   3.111  11.748  0.00  0.00    +0.000 A 
ATOM     29  N   UNL     1      44.979   2.684  12.512  0.00  0.00    +0.000 N 
ATOM     30  C   UNL     1      45.956   3.532  12.978  0.00  0.00    +0.000 A 
ATOM     31  O   UNL     1      46.911   3.110  13.622  0.00  0.00    +0.000 OA
ATOM     32  C   UNL     1      45.761   4.926  12.628  0.00  0.00    +0.000 A 
ATOM     33  H   UNL     1      45.091   1.707  12.741  0.00  0.00    +0.000 HD
ENDBRANCH  20  23
ENDBRANCH  18  19
ENDBRANCH   4  18
TORSDOF 7
ENDMDL
MODEL 7
REMARK VINA RESULT:    -6.570      3.440      8.886
REMARK INTER + INTRA:         -10.280
REMARK INTER:                  -8.801
REMARK INTRA:                  -1.478
REMARK UNBOUND:                -1.020
REMARK  Name = 
REMARK  8 active torsions:
REMARK  status: ('A' for Active; 'I' for Inactive)
REMARK    1  A    between atoms: C_1  and  C_2
REMARK    2  A    between atoms: C_5  and  C_6
REMARK    3  A    between atoms: C_6  and  N_7
REMARK    4  A    between atoms: N_7  and  C_8
REMARK    5  A    between atoms: C_8  and  C_9
REMARK    6  A    between atoms: C_12  and  C_13
REMARK    7  A    between atoms: C_13  and  N_14
REMARK    8  A    between atoms: C_15  and  C_17
REMARK                            x       y       z     vdW  Elec       q    Type
REMARK                         _______ _______ _______ _____ _____    ______ ____
ROOT
ATOM      1  C   UNL     1      50.036   8.878  15.654  0.00  0.00    +0.000 A 
ATOM      2  C   UNL     1      49.144   9.801  15.086  0.00  0.00    +0.000 A 
ATOM      3  C   UNL     1      48.575   9.560  13.832  0.00  0.00    +0.000 A 
ATOM      4  C   UNL     1      48.879   8.390  13.126  0.00  0.00    +0.000 A 
ATOM      5  C   UNL     1      49.793   7.485  13.679  0.00  0.00    +0.000 A 
ATOM      6  C   UNL     1      50.364   7.724  14.933  0.00  0.00    +0.000 A 
ENDROOT
BRANCH   1   7
ATOM      7  C   UNL     1      50.609   9.112  17.031  0.00  0.00    +0.000 C 
BRANCH   7   8
ATOM      8  N   UNL     1      50.900   7.874  17.760  0.00  0.00    +0.000 NA
ATOM      9  H   UNL     1      51.204   7.166  17.093  0.00  0.00    +0.000 HD
BRANCH   8  10
ATOM     10  C   UNL     1      49.727   7.364  18.474  0.00  0.00    +0.000 C 
BRANCH  10  15
ATOM     11  C   UNL     1      48.471   2.100  16.506  0.00  0.00    +0.000 C 
ATOM     12  C   UNL     1      48.747   3.475  17.033  0.00  0.00    +0.000 A 
ATOM     13  C   UNL     1      47.713   4.289  17.484  0.00  0.00    +0.000 A 
ATOM     14  C   UNL     1      48.022   5.560  17.965  0.00  0.00    +0.000 A 
ATOM     15  C   UNL     1      49.350   5.991  17.987  0.00  0.00    +0.000 A 
ATOM     16  C   UNL     1      50.310   5.111  17.506  0.00  0.00    +0.000 A 
ATOM     17  N   UNL     1      50.041   3.871  17.035  0.00  0.00    +0.000 NA
ENDBRANCH  10  15
ENDBRANCH   8  10
ENDBRANCH   7   8
ENDBRANCH   1   7
BRANCH   4  18
ATOM     18  C   UNL     1      48.267   8.119  11.777  0.00  0.00    +0.000 C 
BRANCH  18  19
ATOM     19  N   UNL     1      47.403   6.967  11.820  0.00  0.00    +0.000 N 
ATOM     20  C   UNL     1      46.039   7.106  11.845  0.00  0.00    +0.000 C 
ATOM     21  O   UNL     1      45.497   8.207  11.798  0.00  0.00    +0.000 OA
ATOM     22  H   UNL     1      47.823   6.082  12.087  0.00  0.00    +0.000 HD
BRANCH  20  23
ATOM     23  C   UNL     1      45.255   5.866  11.865  0.00  0.00    +0.000 A 
ATOM     24  C   UNL     1      44.579   5.502  13.023  0.00  0.00    +0.000 A 
ATOM     25  S   UNL     1      43.679   4.062  12.865  0.00  0.00    +0.000 S 
ATOM     26  C   UNL     1      44.202   3.847  11.260  0.00  0.00    +0.000 A 
ATOM     27  N   UNL     1      43.810   2.764  10.536  0.00  0.00    +0.000 NA
ATOM     28  C   UNL     1      44.306   2.711   9.345  0.00  0.00    +0.000 A 
ATOM     29  N   UNL     1      45.153   3.646   8.810  0.00  0.00    +0.000 N 
ATOM     30  C   UNL     1      45.551   4.772   9.492  0.00  0.00    +0.000 A 
ATOM     31  O   UNL     1      46.275   5.612   8.967  0.00  0.00    +0.000 OA
ATOM     32  C   UNL     1      45.034   4.871  10.843  0.00  0.00    +0.000 A 
ATOM     33  H   UNL     1      45.499   3.552   7.866  0.00  0.00    +0.000 HD
ENDBRANCH  20  23
ENDBRANCH  18  19
ENDBRANCH   4  18
TORSDOF 7
ENDMDL
MODEL 8
REMARK VINA RESULT:    -6.564      5.591      8.265
REMARK INTER + INTRA:         -10.270
REMARK INTER:                  -9.217
REMARK INTRA:                  -1.053
REMARK UNBOUND:                -1.020
REMARK  Name = 
REMARK  8 active torsions:
REMARK  status: ('A' for Active; 'I' for Inactive)
REMARK    1  A    between atoms: C_1  and  C_2
REMARK    2  A    between atoms: C_5  and  C_6
REMARK    3  A    between atoms: C_6  and  N_7
REMARK    4  A    between atoms: N_7  and  C_8
REMARK    5  A    between atoms: C_8  and  C_9
REMARK    6  A    between atoms: C_12  and  C_13
REMARK    7  A    between atoms: C_13  and  N_14
REMARK    8  A    between atoms: C_15  and  C_17
REMARK                            x       y       z     vdW  Elec       q    Type
REMARK                         _______ _______ _______ _____ _____    ______ ____
ROOT
ATOM      1  C   UNL     1      47.083   7.623  12.540  0.00  0.00    +0.000 A 
ATOM      2  C   UNL     1      48.051   6.616  12.667  0.00  0.00    +0.000 A 
ATOM      3  C   UNL     1      49.398   6.890  12.413  0.00  0.00    +0.000 A 
ATOM      4  C   UNL     1      49.803   8.175  12.034  0.00  0.00    +0.000 A 
ATOM      5  C   UNL     1      48.832   9.171  11.876  0.00  0.00    +0.000 A 
ATOM      6  C   UNL     1      47.484   8.900  12.130  0.00  0.00    +0.000 A 
ENDROOT
BRANCH   1   7
ATOM      7  C   UNL     1      45.635   7.341  12.867  0.00  0.00    +0.000 C 
BRANCH   7   8
ATOM      8  N   UNL     1      45.317   5.912  12.924  0.00  0.00    +0.000 NA
ATOM      9  H   UNL     1      46.133   5.384  12.619  0.00  0.00    +0.000 HD
BRANCH   8  10
ATOM     10  C   UNL     1      44.188   5.561  12.059  0.00  0.00    +0.000 C 
BRANCH  10  15
ATOM     11  C   UNL     1      46.041   3.239   7.126  0.00  0.00    +0.000 C 
ATOM     12  C   UNL     1      45.536   3.796   8.423  0.00  0.00    +0.000 A 
ATOM     13  C   UNL     1      44.693   3.052   9.241  0.00  0.00    +0.000 A 
ATOM     14  C   UNL     1      44.251   3.617  10.437  0.00  0.00    +0.000 A 
ATOM     15  C   UNL     1      44.660   4.904  10.791  0.00  0.00    +0.000 A 
ATOM     16  C   UNL     1      45.493   5.571   9.903  0.00  0.00    +0.000 A 
ATOM     17  N   UNL     1      45.940   5.049   8.737  0.00  0.00    +0.000 NA
ENDBRANCH  10  15
ENDBRANCH   8  10
ENDBRANCH   7   8
ENDBRANCH   1   7
BRANCH   4  18
ATOM     18  C   UNL     1      51.253   8.482  11.762  0.00  0.00    +0.000 C 
BRANCH  18  19
ATOM     19  N   UNL     1      51.626   8.089  10.428  0.00  0.00    +0.000 N 
ATOM     20  C   UNL     1      52.670   8.692   9.777  0.00  0.00    +0.000 C 
ATOM     21  O   UNL     1      53.350   9.565  10.311  0.00  0.00    +0.000 OA
ATOM     22  H   UNL     1      50.949   7.547   9.898  0.00  0.00    +0.000 HD
BRANCH  20  23
ATOM     23  C   UNL     1      52.978   8.197   8.431  0.00  0.00    +0.000 A 
ATOM     24  C   UNL     1      52.918   9.068   7.350  0.00  0.00    +0.000 A 
ATOM     25  S   UNL     1      53.348   8.347   5.866  0.00  0.00    +0.000 S 
ATOM     26  C   UNL     1      53.581   6.833   6.606  0.00  0.00    +0.000 A 
ATOM     27  N   UNL     1      53.940   5.745   5.874  0.00  0.00    +0.000 NA
ATOM     28  C   UNL     1      54.050   4.655   6.558  0.00  0.00    +0.000 A 
ATOM     29  N   UNL     1      53.841   4.556   7.909  0.00  0.00    +0.000 N 
ATOM     30  C   UNL     1      53.507   5.634   8.694  0.00  0.00    +0.000 A 
ATOM     31  O   UNL     1      53.370   5.520   9.908  0.00  0.00    +0.000 OA
ATOM     32  C   UNL     1      53.354   6.882   7.971  0.00  0.00    +0.000 A 
ATOM     33  H   UNL     1      53.954   3.675   8.387  0.00  0.00    +0.000 HD
ENDBRANCH  20  23
ENDBRANCH  18  19
ENDBRANCH   4  18
TORSDOF 7
ENDMDL
MODEL 9
REMARK VINA RESULT:    -6.052      5.128      7.718
REMARK INTER + INTRA:          -9.549
REMARK INTER:                  -8.930
REMARK INTRA:                  -0.619
REMARK UNBOUND:                -1.020
REMARK  Name = 
REMARK  8 active torsions:
REMARK  status: ('A' for Active; 'I' for Inactive)
REMARK    1  A    between atoms: C_1  and  C_2
REMARK    2  A    between atoms: C_5  and  C_6
REMARK    3  A    between atoms: C_6  and  N_7
REMARK    4  A    between atoms: N_7  and  C_8
REMARK    5  A    between atoms: C_8  and  C_9
REMARK    6  A    between atoms: C_12  and  C_13
REMARK    7  A    between atoms: C_13  and  N_14
REMARK    8  A    between atoms: C_15  and  C_17
REMARK                            x       y       z     vdW  Elec       q    Type
REMARK                         _______ _______ _______ _____ _____    ______ ____
ROOT
ATOM      1  C   UNL     1      51.097  10.014  11.741  0.00  0.00    +0.000 A 
ATOM      2  C   UNL     1      51.604   9.412  12.901  0.00  0.00    +0.000 A 
ATOM      3  C   UNL     1      50.757   8.719  13.772  0.00  0.00    +0.000 A 
ATOM      4  C   UNL     1      49.389   8.610  13.495  0.00  0.00    +0.000 A 
ATOM      5  C   UNL     1      48.878   9.238  12.353  0.00  0.00    +0.000 A 
ATOM      6  C   UNL     1      49.723   9.931  11.481  0.00  0.00    +0.000 A 
ENDROOT
BRANCH   1   7
ATOM      7  C   UNL     1      52.020  10.715  10.773  0.00  0.00    +0.000 C 
BRANCH   7   8
ATOM      8  N   UNL     1      51.878  10.251   9.390  0.00  0.00    +0.000 NA
ATOM      9  H   UNL     1      51.290   9.418   9.385  0.00  0.00    +0.000 HD
BRANCH   8  10
ATOM     10  C   UNL     1      53.167   9.912   8.784  0.00  0.00    +0.000 C 
BRANCH  10  15
ATOM     11  C   UNL     1      53.160   4.478   6.878  0.00  0.00    +0.000 C 
ATOM     12  C   UNL     1      53.178   5.875   7.422  0.00  0.00    +0.000 A 
ATOM     13  C   UNL     1      53.413   6.113   8.771  0.00  0.00    +0.000 A 
ATOM     14  C   UNL     1      53.419   7.431   9.227  0.00  0.00    +0.000 A 
ATOM     15  C   UNL     1      53.194   8.478   8.331  0.00  0.00    +0.000 A 
ATOM     16  C   UNL     1      52.958   8.138   7.006  0.00  0.00    +0.000 A 
ATOM     17  N   UNL     1      52.948   6.869   6.534  0.00  0.00    +0.000 NA
ENDBRANCH  10  15
ENDBRANCH   8  10
ENDBRANCH   7   8
ENDBRANCH   1   7
BRANCH   4  18
ATOM     18  C   UNL     1      48.468   7.863  14.424  0.00  0.00    +0.000 C 
BRANCH  18  19
ATOM     19  N   UNL     1      47.246   7.493  13.757  0.00  0.00    +0.000 N 
ATOM     20  C   UNL     1      47.140   6.307  13.078  0.00  0.00    +0.000 C 
ATOM     21  O   UNL     1      48.064   5.499  13.035  0.00  0.00    +0.000 OA
ATOM     22  H   UNL     1      46.569   8.232  13.589  0.00  0.00    +0.000 HD
BRANCH  20  23
ATOM     23  C   UNL     1      45.843   6.022  12.456  0.00  0.00    +0.000 A 
ATOM     24  C   UNL     1      45.104   7.061  11.903  0.00  0.00    +0.000 A 
ATOM     25  S   UNL     1      43.645   6.554  11.181  0.00  0.00    +0.000 S 
ATOM     26  C   UNL     1      43.924   4.935  11.625  0.00  0.00    +0.000 A 
ATOM     27  N   UNL     1      43.022   3.962  11.326  0.00  0.00    +0.000 NA
ATOM     28  C   UNL     1      43.345   2.786  11.750  0.00  0.00    +0.000 A 
ATOM     29  N   UNL     1      44.493   2.493  12.439  0.00  0.00    +0.000 N 
ATOM     30  C   UNL     1      45.447   3.437  12.737  0.00  0.00    +0.000 A 
ATOM     31  O   UNL     1      46.484   3.132  13.317  0.00  0.00    +0.000 OA
ATOM     32  C   UNL     1      45.124   4.780  12.296  0.00  0.00    +0.000 A 
ATOM     33  H   UNL     1      44.692   1.549  12.735  0.00  0.00    +0.000 HD
ENDBRANCH  20  23
ENDBRANCH  18  19
ENDBRANCH   4  18
TORSDOF 7
ENDMDL
