MODEL 1
REMARK VINA RESULT:    -8.107      0.000      0.000
REMARK INTER + INTRA:         -11.937
REMARK INTER:                 -10.951
REMARK INTRA:                  -0.986
REMARK UNBOUND:                -0.986
REMARK  Name = 
REMARK  6 active torsions:
REMARK  status: ('A' for Active; 'I' for Inactive)
REMARK    1  A    between atoms: C_2  and  C_4
REMARK    2  A    between atoms: C_7  and  N_8
REMARK    3  A    between atoms: N_8  and  C_9
REMARK    4  A    between atoms: C_9  and  C_10
REMARK    5  A    between atoms: C_10  and  C_11
REMARK    6  A    between atoms: C_15  and  C_16
REMARK                            x       y       z     vdW  Elec       q    Type
REMARK                         _______ _______ _______ _____ _____    ______ ____
ROOT
ATOM      1  N   UNL     1      43.923   3.615  10.330  0.00  0.00    +0.000 N 
ATOM      2  H   UNL     1      44.082   3.075  11.177  0.00  0.00    +0.000 HD
ENDROOT
BRANCH   1   6
ATOM      3  C   UNL     1      46.555   2.716   7.205  0.00  0.00    +0.000 A 
ATOM      4  N   UNL     1      46.152   4.010   7.399  0.00  0.00    +0.000 NA
ATOM      5  C   UNL     1      45.284   4.236   8.418  0.00  0.00    +0.000 A 
ATOM      6  C   UNL     1      44.752   3.259   9.260  0.00  0.00    +0.000 A 
ATOM      7  C   UNL     1      45.215   1.959   9.039  0.00  0.00    +0.000 A 
ATOM      8  C   UNL     1      46.115   1.665   8.005  0.00  0.00    +0.000 A 
ATOM      9 CL   UNL     1      46.595   0.017   7.835  0.00  0.00    +0.000 Cl
BRANCH   3  11
ATOM     10  N   UNL     1      48.836   2.709   6.374  0.00  0.00    +0.000 N 
ATOM     11  C   UNL     1      47.517   2.531   6.055  0.00  0.00    +0.000 C 
ATOM     12  O   UNL     1      47.197   2.249   4.906  0.00  0.00    +0.000 OA
ATOM     13  H   UNL     1      49.536   2.609   5.651  0.00  0.00    +0.000 HD
ATOM     14  H   UNL     1      49.103   2.945   7.323  0.00  0.00    +0.000 HD
ENDBRANCH   3  11
ENDBRANCH   1   6
BRANCH   1  15
ATOM     15  C   UNL     1      43.592   5.025  10.549  0.00  0.00    +0.000 C 
BRANCH  15  16
ATOM     16  C   UNL     1      43.478   5.353  12.042  0.00  0.00    +0.000 C 
BRANCH  16  17
ATOM     17  C   UNL     1      44.853   5.514  12.648  0.00  0.00    +0.000 A 
ATOM     18  C   UNL     1      45.393   4.534  13.483  0.00  0.00    +0.000 A 
ATOM     19  C   UNL     1      46.696   4.664  13.957  0.00  0.00    +0.000 A 
ATOM     20  C   UNL     1      47.476   5.762  13.582  0.00  0.00    +0.000 A 
ATOM     21  C   UNL     1      46.980   6.752  12.716  0.00  0.00    +0.000 A 
ATOM     22  C   UNL     1      45.648   6.614  12.283  0.00  0.00    +0.000 A 
BRANCH  21  23
ATOM     23  C   UNL     1      47.839   7.846  12.200  0.00  0.00    +0.000 A 
ATOM     24  C   UNL     1      47.370   9.173  12.150  0.00  0.00    +0.000 A 
ATOM     25  C   UNL     1      48.198  10.228  11.756  0.00  0.00    +0.000 A 
ATOM     26  C   UNL     1      49.522   9.983  11.408  0.00  0.00    +0.000 A 
ATOM     27  C   UNL     1      50.009   8.679  11.430  0.00  0.00    +0.000 A 
ATOM     28  C   UNL     1      49.173   7.623  11.812  0.00  0.00    +0.000 A 
ENDBRANCH  21  23
ENDBRANCH  16  17
ENDBRANCH  15  16
ENDBRANCH   1  15
TORSDOF 6
ENDMDL
MODEL 2
REMARK VINA RESULT:    -7.881      4.379      7.464
REMARK INTER + INTRA:         -11.632
REMARK INTER:                 -10.714
REMARK INTRA:                  -0.918
REMARK UNBOUND:                -0.986
REMARK  Name = 
REMARK  6 active torsions:
REMARK  status: ('A' for Active; 'I' for Inactive)
REMARK    1  A    between atoms: C_2  and  C_4
REMARK    2  A    between atoms: C_7  and  N_8
REMARK    3  A    between atoms: N_8  and  C_9
REMARK    4  A    between atoms: C_9  and  C_10
REMARK    5  A    between atoms: C_10  and  C_11
REMARK    6  A    between atoms: C_15  and  C_16
REMARK                            x       y       z     vdW  Elec       q    Type
REMARK                         _______ _______ _______ _____ _____    ______ ____
ROOT
ATOM      1  N   UNL     1      46.684   6.433  12.410  0.00  0.00    +0.000 N 
ATOM      2  H   UNL     1      46.908   5.995  11.520  0.00  0.00    +0.000 HD
ENDROOT
BRANCH   1   6
ATOM      3  C   UNL     1      47.732   3.943  15.605  0.00  0.00    +0.000 A 
ATOM      4  N   UNL     1      47.046   3.424  14.540  0.00  0.00    +0.000 NA
ATOM      5  C   UNL     1      46.719   4.285  13.543  0.00  0.00    +0.000 A 
ATOM      6  C   UNL     1      47.000   5.652  13.529  0.00  0.00    +0.000 A 
ATOM      7  C   UNL     1      47.725   6.127  14.624  0.00  0.00    +0.000 A 
ATOM      8  C   UNL     1      48.095   5.285  15.683  0.00  0.00    +0.000 A 
ATOM      9 CL   UNL     1      48.976   6.005  16.979  0.00  0.00    +0.000 Cl
BRANCH   3  11
ATOM     10  N   UNL     1      47.088   2.764  17.628  0.00  0.00    +0.000 N 
ATOM     11  C   UNL     1      48.062   2.936  16.681  0.00  0.00    +0.000 C 
ATOM     12  O   UNL     1      49.106   2.298  16.754  0.00  0.00    +0.000 OA
ATOM     13  H   UNL     1      47.245   2.110  18.382  0.00  0.00    +0.000 HD
ATOM     14  H   UNL     1      46.225   3.292  17.571  0.00  0.00    +0.000 HD
ENDBRANCH   3  11
ENDBRANCH   1   6
BRANCH   1  15
ATOM     15  C   UNL     1      45.461   7.238  12.413  0.00  0.00    +0.000 C 
BRANCH  15  16
ATOM     16  C   UNL     1      44.611   6.978  11.165  0.00  0.00    +0.000 C 
BRANCH  16  17
ATOM     17  C   UNL     1      44.485   5.492  10.918  0.00  0.00    +0.000 A 
ATOM     18  C   UNL     1      43.531   4.727  11.592  0.00  0.00    +0.000 A 
ATOM     19  C   UNL     1      43.376   3.378  11.282  0.00  0.00    +0.000 A 
ATOM     20  C   UNL     1      44.158   2.789  10.284  0.00  0.00    +0.000 A 
ATOM     21  C   UNL     1      45.106   3.534   9.561  0.00  0.00    +0.000 A 
ATOM     22  C   UNL     1      45.267   4.885   9.920  0.00  0.00    +0.000 A 
BRANCH  21  23
ATOM     23  C   UNL     1      45.842   2.960   8.408  0.00  0.00    +0.000 A 
ATOM     24  C   UNL     1      46.183   1.593   8.374  0.00  0.00    +0.000 A 
ATOM     25  C   UNL     1      46.793   1.018   7.254  0.00  0.00    +0.000 A 
ATOM     26  C   UNL     1      47.072   1.796   6.136  0.00  0.00    +0.000 A 
ATOM     27  C   UNL     1      46.764   3.153   6.148  0.00  0.00    +0.000 A 
ATOM     28  C   UNL     1      46.166   3.728   7.275  0.00  0.00    +0.000 A 
ENDBRANCH  21  23
ENDBRANCH  16  17
ENDBRANCH  15  16
ENDBRANCH   1  15
TORSDOF 6
ENDMDL
MODEL 3
REMARK VINA RESULT:    -7.831      1.818      3.695
REMARK INTER + INTRA:         -11.564
REMARK INTER:                 -10.678
REMARK INTRA:                  -0.885
REMARK UNBOUND:                -0.986
REMARK  Name = 
REMARK  6 active torsions:
REMARK  status: ('A' for Active; 'I' for Inactive)
REMARK    1  A    between atoms: C_2  and  C_4
REMARK    2  A    between atoms: C_7  and  N_8
REMARK    3  A    between atoms: N_8  and  C_9
REMARK    4  A    between atoms: C_9  and  C_10
REMARK    5  A    between atoms: C_10  and  C_11
REMARK    6  A    between atoms: C_15  and  C_16
REMARK                            x       y       z     vdW  Elec       q    Type
REMARK                         _______ _______ _______ _____ _____    ______ ____
ROOT
ATOM      1  N   UNL     1      43.879   3.600  10.181  0.00  0.00    +0.000 N 
ATOM      2  H   UNL     1      43.741   2.866  10.871  0.00  0.00    +0.000 HD
ENDROOT
BRANCH   1   6
ATOM      3  C   UNL     1      46.586   2.702   7.120  0.00  0.00    +0.000 A 
ATOM      4  N   UNL     1      46.191   3.998   7.314  0.00  0.00    +0.000 NA
ATOM      5  C   UNL     1      45.297   4.224   8.311  0.00  0.00    +0.000 A 
ATOM      6  C   UNL     1      44.733   3.244   9.130  0.00  0.00    +0.000 A 
ATOM      7  C   UNL     1      45.190   1.943   8.911  0.00  0.00    +0.000 A 
ATOM      8  C   UNL     1      46.115   1.648   7.899  0.00  0.00    +0.000 A 
ATOM      9 CL   UNL     1      46.584  -0.003   7.728  0.00  0.00    +0.000 Cl
BRANCH   3  11
ATOM     10  N   UNL     1      48.887   2.445   6.388  0.00  0.00    +0.000 N 
ATOM     11  C   UNL     1      47.577   2.517   5.996  0.00  0.00    +0.000 C 
ATOM     12  O   UNL     1      47.289   2.439   4.807  0.00  0.00    +0.000 OA
ATOM     13  H   UNL     1      49.606   2.329   5.687  0.00  0.00    +0.000 HD
ATOM     14  H   UNL     1      49.128   2.512   7.370  0.00  0.00    +0.000 HD
ENDBRANCH   3  11
ENDBRANCH   1   6
BRANCH   1  15
ATOM     15  C   UNL     1      43.929   4.958  10.724  0.00  0.00    +0.000 C 
BRANCH  15  16
ATOM     16  C   UNL     1      44.075   4.951  12.250  0.00  0.00    +0.000 C 
BRANCH  16  17
ATOM     17  C   UNL     1      45.496   5.285  12.641  0.00  0.00    +0.000 A 
ATOM     18  C   UNL     1      46.252   6.198  11.902  0.00  0.00    +0.000 A 
ATOM     19  C   UNL     1      47.527   6.556  12.333  0.00  0.00    +0.000 A 
ATOM     20  C   UNL     1      48.047   6.021  13.516  0.00  0.00    +0.000 A 
ATOM     21  C   UNL     1      47.304   5.126  14.305  0.00  0.00    +0.000 A 
ATOM     22  C   UNL     1      46.034   4.753  13.826  0.00  0.00    +0.000 A 
BRANCH  21  23
ATOM     23  C   UNL     1      47.785   4.660  15.628  0.00  0.00    +0.000 A 
ATOM     24  C   UNL     1      48.478   5.528  16.494  0.00  0.00    +0.000 A 
ATOM     25  C   UNL     1      48.855   5.131  17.781  0.00  0.00    +0.000 A 
ATOM     26  C   UNL     1      48.541   3.856  18.238  0.00  0.00    +0.000 A 
ATOM     27  C   UNL     1      47.873   2.970  17.398  0.00  0.00    +0.000 A 
ATOM     28  C   UNL     1      47.510   3.365  16.105  0.00  0.00    +0.000 A 
ENDBRANCH  21  23
ENDBRANCH  16  17
ENDBRANCH  15  16
ENDBRANCH   1  15
TORSDOF 6
ENDMDL
MODEL 4
REMARK VINA RESULT:    -7.089      4.456      7.607
REMARK INTER + INTRA:         -10.561
REMARK INTER:                  -9.733
REMARK INTRA:                  -0.829
REMARK UNBOUND:                -0.986
REMARK  Name = 
REMARK  6 active torsions:
REMARK  status: ('A' for Active; 'I' for Inactive)
REMARK    1  A    between atoms: C_2  and  C_4
REMARK    2  A    between atoms: C_7  and  N_8
REMARK    3  A    between atoms: N_8  and  C_9
REMARK    4  A    between atoms: C_9  and  C_10
REMARK    5  A    between atoms: C_10  and  C_11
REMARK    6  A    between atoms: C_15  and  C_16
REMARK                            x       y       z     vdW  Elec       q    Type
REMARK                         _______ _______ _______ _____ _____    ______ ____
ROOT
ATOM      1  N   UNL     1      46.479   5.863  12.727  0.00  0.00    +0.000 N 
ATOM      2  H   UNL     1      46.358   4.954  13.167  0.00  0.00    +0.000 HD
ENDROOT
BRANCH   1   6
ATOM      3  C   UNL     1      50.040   7.670  13.976  0.00  0.00    +0.000 A 
ATOM      4  N   UNL     1      49.325   6.905  14.858  0.00  0.00    +0.000 NA
ATOM      5  C   UNL     1      48.169   6.359  14.399  0.00  0.00    +0.000 A 
ATOM      6  C   UNL     1      47.642   6.537  13.119  0.00  0.00    +0.000 A 
ATOM      7  C   UNL     1      48.423   7.303  12.249  0.00  0.00    +0.000 A 
ATOM      8  C   UNL     1      49.628   7.888  12.664  0.00  0.00    +0.000 A 
ATOM      9 CL   UNL     1      50.485   8.820  11.493  0.00  0.00    +0.000 Cl
BRANCH   3  11
ATOM     10  N   UNL     1      52.460   7.613  14.162  0.00  0.00    +0.000 N 
ATOM     11  C   UNL     1      51.312   8.250  14.548  0.00  0.00    +0.000 C 
ATOM     12  O   UNL     1      51.370   9.210  15.307  0.00  0.00    +0.000 OA
ATOM     13  H   UNL     1      53.349   7.942  14.512  0.00  0.00    +0.000 HD
ATOM     14  H   UNL     1      52.414   6.816  13.536  0.00  0.00    +0.000 HD
ENDBRANCH   3  11
ENDBRANCH   1   6
BRANCH   1  15
ATOM     15  C   UNL     1      45.243   6.618  12.514  0.00  0.00    +0.000 C 
BRANCH  15  16
ATOM     16  C   UNL     1      44.713   6.443  11.087  0.00  0.00    +0.000 C 
BRANCH  16  17
ATOM     17  C   UNL     1      44.605   4.974  10.746  0.00  0.00    +0.000 A 
ATOM     18  C   UNL     1      43.687   4.148  11.397  0.00  0.00    +0.000 A 
ATOM     19  C   UNL     1      43.546   2.819  11.003  0.00  0.00    +0.000 A 
ATOM     20  C   UNL     1      44.304   2.313   9.943  0.00  0.00    +0.000 A 
ATOM     21  C   UNL     1      45.215   3.123   9.241  0.00  0.00    +0.000 A 
ATOM     22  C   UNL     1      45.364   4.451   9.685  0.00  0.00    +0.000 A 
BRANCH  21  23
ATOM     23  C   UNL     1      45.922   2.641   8.031  0.00  0.00    +0.000 A 
ATOM     24  C   UNL     1      46.127   3.489   6.925  0.00  0.00    +0.000 A 
ATOM     25  C   UNL     1      46.874   3.079   5.815  0.00  0.00    +0.000 A 
ATOM     26  C   UNL     1      47.441   1.810   5.788  0.00  0.00    +0.000 A 
ATOM     27  C   UNL     1      47.241   0.943   6.858  0.00  0.00    +0.000 A 
ATOM     28  C   UNL     1      46.481   1.352   7.960  0.00  0.00    +0.000 A 
ENDBRANCH  21  23
ENDBRANCH  16  17
ENDBRANCH  15  16
ENDBRANCH   1  15
TORSDOF 6
ENDMDL
MODEL 5
REMARK VINA RESULT:    -7.087      1.537      1.961
REMARK INTER + INTRA:         -10.559
REMARK INTER:                 -10.249
REMARK INTRA:                  -0.310
REMARK UNBOUND:                -0.986
REMARK  Name = 
REMARK  6 active torsions:
REMARK  status: ('A' for Active; 'I' for Inactive)
REMARK    1  A    between atoms: C_2  and  C_4
REMARK    2  A    between atoms: C_7  and  N_8
REMARK    3  A    between atoms: N_8  and  C_9
REMARK    4  A    between atoms: C_9  and  C_10
REMARK    5  A    between atoms: C_10  and  C_11
REMARK    6  A    between atoms: C_15  and  C_16
REMARK                            x       y       z     vdW  Elec       q    Type
REMARK                         _______ _______ _______ _____ _____    ______ ____
ROOT
ATOM      1  N   UNL     1      43.575   4.741   9.865  0.00  0.00    +0.000 N 
ATOM      2  H   UNL     1      42.660   4.344  10.059  0.00  0.00    +0.000 HD
ENDROOT
BRANCH   1   6
ATOM      3  C   UNL     1      46.088   1.902   8.096  0.00  0.00    +0.000 A 
ATOM      4  N   UNL     1      45.360   1.563   9.205  0.00  0.00    +0.000 NA
ATOM      5  C   UNL     1      44.577   2.532   9.744  0.00  0.00    +0.000 A 
ATOM      6  C   UNL     1      44.476   3.844   9.279  0.00  0.00    +0.000 A 
ATOM      7  C   UNL     1      45.216   4.131   8.129  0.00  0.00    +0.000 A 
ATOM      8  C   UNL     1      46.040   3.170   7.525  0.00  0.00    +0.000 A 
ATOM      9 CL   UNL     1      46.909   3.663   6.119  0.00  0.00    +0.000 Cl
BRANCH   3  11
ATOM     10  N   UNL     1      47.997   1.187   6.776  0.00  0.00    +0.000 N 
ATOM     11  C   UNL     1      46.941   0.782   7.547  0.00  0.00    +0.000 C 
ATOM     12  O   UNL     1      46.745  -0.412   7.739  0.00  0.00    +0.000 OA
ATOM     13  H   UNL     1      48.606   0.491   6.369  0.00  0.00    +0.000 HD
ATOM     14  H   UNL     1      48.159   2.175   6.613  0.00  0.00    +0.000 HD
ENDBRANCH   3  11
ENDBRANCH   1   6
BRANCH   1  15
ATOM     15  C   UNL     1      44.057   5.699  10.862  0.00  0.00    +0.000 C 
BRANCH  15  16
ATOM     16  C   UNL     1      44.172   5.061  12.251  0.00  0.00    +0.000 C 
BRANCH  16  17
ATOM     17  C   UNL     1      45.448   5.508  12.927  0.00  0.00    +0.000 A 
ATOM     18  C   UNL     1      46.069   4.713  13.893  0.00  0.00    +0.000 A 
ATOM     19  C   UNL     1      47.290   5.106  14.436  0.00  0.00    +0.000 A 
ATOM     20  C   UNL     1      47.910   6.282  14.003  0.00  0.00    +0.000 A 
ATOM     21  C   UNL     1      47.333   7.090  13.008  0.00  0.00    +0.000 A 
ATOM     22  C   UNL     1      46.081   6.690  12.503  0.00  0.00    +0.000 A 
BRANCH  21  23
ATOM     23  C   UNL     1      48.042   8.263  12.440  0.00  0.00    +0.000 A 
ATOM     24  C   UNL     1      49.387   8.169  12.033  0.00  0.00    +0.000 A 
ATOM     25  C   UNL     1      50.039   9.238  11.410  0.00  0.00    +0.000 A 
ATOM     26  C   UNL     1      49.359  10.427  11.172  0.00  0.00    +0.000 A 
ATOM     27  C   UNL     1      48.035  10.556  11.580  0.00  0.00    +0.000 A 
ATOM     28  C   UNL     1      47.389   9.489  12.216  0.00  0.00    +0.000 A 
ENDBRANCH  21  23
ENDBRANCH  16  17
ENDBRANCH  15  16
ENDBRANCH   1  15
TORSDOF 6
ENDMDL
MODEL 6
REMARK VINA RESULT:    -7.050      4.816      7.873
REMARK INTER + INTRA:         -10.509
REMARK INTER:                 -10.057
REMARK INTRA:                  -0.452
REMARK UNBOUND:                -0.986
REMARK  Name = 
REMARK  6 active torsions:
REMARK  status: ('A' for Active; 'I' for Inactive)
REMARK    1  A    between atoms: C_2  and  C_4
REMARK    2  A    between atoms: C_7  and  N_8
REMARK    3  A    between atoms: N_8  and  C_9
REMARK    4  A    between atoms: C_9  and  C_10
REMARK    5  A    between atoms: C_10  and  C_11
REMARK    6  A    between atoms: C_15  and  C_16
REMARK                            x       y       z     vdW  Elec       q    Type
REMARK                         _______ _______ _______ _____ _____    ______ ____
ROOT
ATOM      1  N   UNL     1      46.598   5.853  13.500  0.00  0.00    +0.000 N 
ATOM      2  H   UNL     1      45.768   5.291  13.333  0.00  0.00    +0.000 HD
ENDROOT
BRANCH   1   6
ATOM      3  C   UNL     1      48.830   4.866  16.899  0.00  0.00    +0.000 A 
ATOM      4  N   UNL     1      49.214   5.927  16.122  0.00  0.00    +0.000 NA
ATOM      5  C   UNL     1      48.460   6.187  15.024  0.00  0.00    +0.000 A 
ATOM      6  C   UNL     1      47.350   5.448  14.609  0.00  0.00    +0.000 A 
ATOM      7  C   UNL     1      46.984   4.394  15.450  0.00  0.00    +0.000 A 
ATOM      8  C   UNL     1      47.720   4.080  16.601  0.00  0.00    +0.000 A 
ATOM      9 CL   UNL     1      47.165   2.745  17.541  0.00  0.00    +0.000 Cl
BRANCH   3  11
ATOM     10  N   UNL     1      50.388   3.439  18.095  0.00  0.00    +0.000 N 
ATOM     11  C   UNL     1      49.711   4.629  18.103  0.00  0.00    +0.000 C 
ATOM     12  O   UNL     1      49.841   5.402  19.045  0.00  0.00    +0.000 OA
ATOM     13  H   UNL     1      50.991   3.210  18.873  0.00  0.00    +0.000 HD
ATOM     14  H   UNL     1      50.280   2.797  17.318  0.00  0.00    +0.000 HD
ENDBRANCH   3  11
ENDBRANCH   1   6
BRANCH   1  15
ATOM     15  C   UNL     1      46.448   7.281  13.213  0.00  0.00    +0.000 C 
BRANCH  15  16
ATOM     16  C   UNL     1      45.772   7.515  11.856  0.00  0.00    +0.000 C 
BRANCH  16  17
ATOM     17  C   UNL     1      45.032   6.272  11.420  0.00  0.00    +0.000 A 
ATOM     18  C   UNL     1      43.724   6.025  11.842  0.00  0.00    +0.000 A 
ATOM     19  C   UNL     1      43.033   4.918  11.355  0.00  0.00    +0.000 A 
ATOM     20  C   UNL     1      43.635   4.063  10.427  0.00  0.00    +0.000 A 
ATOM     21  C   UNL     1      44.937   4.297   9.952  0.00  0.00    +0.000 A 
ATOM     22  C   UNL     1      45.626   5.401  10.489  0.00  0.00    +0.000 A 
BRANCH  21  23
ATOM     23  C   UNL     1      45.536   3.481   8.868  0.00  0.00    +0.000 A 
ATOM     24  C   UNL     1      46.136   4.091   7.749  0.00  0.00    +0.000 A 
ATOM     25  C   UNL     1      46.786   3.339   6.765  0.00  0.00    +0.000 A 
ATOM     26  C   UNL     1      46.860   1.955   6.881  0.00  0.00    +0.000 A 
ATOM     27  C   UNL     1      46.261   1.323   7.966  0.00  0.00    +0.000 A 
ATOM     28  C   UNL     1      45.598   2.078   8.941  0.00  0.00    +0.000 A 
ENDBRANCH  21  23
ENDBRANCH  16  17
ENDBRANCH  15  16
ENDBRANCH   1  15
TORSDOF 6
ENDMDL
MODEL 7
REMARK VINA RESULT:    -6.833      4.971      7.217
REMARK INTER + INTRA:         -10.215
REMARK INTER:                  -9.292
REMARK INTRA:                  -0.923
REMARK UNBOUND:                -0.986
REMARK  Name = 
REMARK  6 active torsions:
REMARK  status: ('A' for Active; 'I' for Inactive)
REMARK    1  A    between atoms: C_2  and  C_4
REMARK    2  A    between atoms: C_7  and  N_8
REMARK    3  A    between atoms: N_8  and  C_9
REMARK    4  A    between atoms: C_9  and  C_10
REMARK    5  A    between atoms: C_10  and  C_11
REMARK    6  A    between atoms: C_15  and  C_16
REMARK                            x       y       z     vdW  Elec       q    Type
REMARK                         _______ _______ _______ _____ _____    ______ ____
ROOT
ATOM      1  N   UNL     1      47.293   7.140  14.013  0.00  0.00    +0.000 N 
ATOM      2  H   UNL     1      46.792   7.824  14.573  0.00  0.00    +0.000 HD
ENDROOT
BRANCH   1   6
ATOM      3  C   UNL     1      44.810   4.292  12.215  0.00  0.00    +0.000 A 
ATOM      4  N   UNL     1      45.965   3.890  12.832  0.00  0.00    +0.000 NA
ATOM      5  C   UNL     1      46.737   4.862  13.381  0.00  0.00    +0.000 A 
ATOM      6  C   UNL     1      46.465   6.230  13.344  0.00  0.00    +0.000 A 
ATOM      7  C   UNL     1      45.262   6.586  12.729  0.00  0.00    +0.000 A 
ATOM      8  C   UNL     1      44.421   5.627  12.148  0.00  0.00    +0.000 A 
ATOM      9 CL   UNL     1      42.973   6.205  11.410  0.00  0.00    +0.000 Cl
BRANCH   3  11
ATOM     10  N   UNL     1      43.618   2.198  12.514  0.00  0.00    +0.000 N 
ATOM     11  C   UNL     1      43.998   3.165  11.622  0.00  0.00    +0.000 C 
ATOM     12  O   UNL     1      43.681   3.069  10.443  0.00  0.00    +0.000 OA
ATOM     13  H   UNL     1      43.078   1.409  12.185  0.00  0.00    +0.000 HD
ATOM     14  H   UNL     1      43.882   2.274  13.490  0.00  0.00    +0.000 HD
ENDBRANCH   3  11
ENDBRANCH   1   6
BRANCH   1  15
ATOM     15  C   UNL     1      48.558   6.677  14.586  0.00  0.00    +0.000 C 
BRANCH  15  16
ATOM     16  C   UNL     1      48.555   6.777  16.116  0.00  0.00    +0.000 C 
BRANCH  16  17
ATOM     17  C   UNL     1      48.576   5.396  16.730  0.00  0.00    +0.000 A 
ATOM     18  C   UNL     1      47.402   4.655  16.878  0.00  0.00    +0.000 A 
ATOM     19  C   UNL     1      47.460   3.350  17.364  0.00  0.00    +0.000 A 
ATOM     20  C   UNL     1      48.692   2.771  17.684  0.00  0.00    +0.000 A 
ATOM     21  C   UNL     1      49.898   3.473  17.516  0.00  0.00    +0.000 A 
ATOM     22  C   UNL     1      49.807   4.802  17.059  0.00  0.00    +0.000 A 
BRANCH  21  23
ATOM     23  C   UNL     1      51.218   2.827  17.718  0.00  0.00    +0.000 A 
ATOM     24  C   UNL     1      51.419   1.472  17.389  0.00  0.00    +0.000 A 
ATOM     25  C   UNL     1      52.680   0.875  17.486  0.00  0.00    +0.000 A 
ATOM     26  C   UNL     1      53.775   1.622  17.908  0.00  0.00    +0.000 A 
ATOM     27  C   UNL     1      53.603   2.957  18.258  0.00  0.00    +0.000 A 
ATOM     28  C   UNL     1      52.336   3.548  18.173  0.00  0.00    +0.000 A 
ENDBRANCH  21  23
ENDBRANCH  16  17
ENDBRANCH  15  16
ENDBRANCH   1  15
TORSDOF 6
ENDMDL
MODEL 8
REMARK VINA RESULT:    -6.811      4.000      7.219
REMARK INTER + INTRA:         -10.186
REMARK INTER:                  -9.192
REMARK INTRA:                  -0.994
REMARK UNBOUND:                -0.986
REMARK  Name = 
REMARK  6 active torsions:
REMARK  status: ('A' for Active; 'I' for Inactive)
REMARK    1  A    between atoms: C_2  and  C_4
REMARK    2  A    between atoms: C_7  and  N_8
REMARK    3  A    between atoms: N_8  and  C_9
REMARK    4  A    between atoms: C_9  and  C_10
REMARK    5  A    between atoms: C_10  and  C_11
REMARK    6  A    between atoms: C_15  and  C_16
REMARK                            x       y       z     vdW  Elec       q    Type
REMARK                         _______ _______ _______ _____ _____    ______ ____
ROOT
ATOM      1  N   UNL     1      46.209   6.443  12.917  0.00  0.00    +0.000 N 
ATOM      2  H   UNL     1      46.515   5.965  13.760  0.00  0.00    +0.000 HD
ENDROOT
BRANCH   1   6
ATOM      3  C   UNL     1      48.830   9.497  11.775  0.00  0.00    +0.000 A 
ATOM      4  N   UNL     1      47.593   9.817  12.267  0.00  0.00    +0.000 NA
ATOM      5  C   UNL     1      46.781   8.783  12.604  0.00  0.00    +0.000 A 
ATOM      6  C   UNL     1      47.093   7.429  12.464  0.00  0.00    +0.000 A 
ATOM      7  C   UNL     1      48.377   7.156  11.984  0.00  0.00    +0.000 A 
ATOM      8  C   UNL     1      49.262   8.182  11.624  0.00  0.00    +0.000 A 
ATOM      9 CL   UNL     1      50.810   7.704  11.033  0.00  0.00    +0.000 Cl
BRANCH   3  11
ATOM     10  N   UNL     1      50.316  11.286  12.475  0.00  0.00    +0.000 N 
ATOM     11  C   UNL     1      49.683  10.691  11.416  0.00  0.00    +0.000 C 
ATOM     12  O   UNL     1      49.828  11.140  10.285  0.00  0.00    +0.000 OA
ATOM     13  H   UNL     1      50.898  12.095  12.310  0.00  0.00    +0.000 HD
ATOM     14  H   UNL     1      50.195  10.918  13.412  0.00  0.00    +0.000 HD
ENDBRANCH   3  11
ENDBRANCH   1   6
BRANCH   1  15
ATOM     15  C   UNL     1      44.765   6.672  12.826  0.00  0.00    +0.000 C 
BRANCH  15  16
ATOM     16  C   UNL     1      44.249   6.460  11.398  0.00  0.00    +0.000 C 
BRANCH  16  17
ATOM     17  C   UNL     1      44.289   4.992  11.040  0.00  0.00    +0.000 A 
ATOM     18  C   UNL     1      43.437   4.076  11.660  0.00  0.00    +0.000 A 
ATOM     19  C   UNL     1      43.431   2.744  11.250  0.00  0.00    +0.000 A 
ATOM     20  C   UNL     1      44.259   2.324  10.204  0.00  0.00    +0.000 A 
ATOM     21  C   UNL     1      45.105   3.224   9.533  0.00  0.00    +0.000 A 
ATOM     22  C   UNL     1      45.119   4.555   9.993  0.00  0.00    +0.000 A 
BRANCH  21  23
ATOM     23  C   UNL     1      45.884   2.825   8.336  0.00  0.00    +0.000 A 
ATOM     24  C   UNL     1      46.324   1.498   8.167  0.00  0.00    +0.000 A 
ATOM     25  C   UNL     1      46.977   1.086   7.000  0.00  0.00    +0.000 A 
ATOM     26  C   UNL     1      47.200   1.992   5.969  0.00  0.00    +0.000 A 
ATOM     27  C   UNL     1      46.793   3.314   6.115  0.00  0.00    +0.000 A 
ATOM     28  C   UNL     1      46.152   3.727   7.289  0.00  0.00    +0.000 A 
ENDBRANCH  21  23
ENDBRANCH  16  17
ENDBRANCH  15  16
ENDBRANCH   1  15
TORSDOF 6
ENDMDL
MODEL 9
REMARK VINA RESULT:    -6.575      4.827      7.939
REMARK INTER + INTRA:          -9.868
REMARK INTER:                  -9.041
REMARK INTRA:                  -0.827
REMARK UNBOUND:                -0.986
REMARK  Name = 
REMARK  6 active torsions:
REMARK  status: ('A' for Active; 'I' for Inactive)
REMARK    1  A    between atoms: C_2  and  C_4
REMARK    2  A    between atoms: C_7  and  N_8
REMARK    3  A    between atoms: N_8  and  C_9
REMARK    4  A    between atoms: C_9  and  C_10
REMARK    5  A    between atoms: C_10  and  C_11
REMARK    6  A    between atoms: C_15  and  C_16
REMARK                            x       y       z     vdW  Elec       q    Type
REMARK                         _______ _______ _______ _____ _____    ______ ____
ROOT
ATOM      1  N   UNL     1      49.226   7.925  14.261  0.00  0.00    +0.000 N 
ATOM      2  H   UNL     1      49.772   8.649  14.720  0.00  0.00    +0.000 HD
ENDROOT
BRANCH   1   6
ATOM      3  C   UNL     1      48.025   4.709  16.652  0.00  0.00    +0.000 A 
ATOM      4  N   UNL     1      47.621   4.768  15.345  0.00  0.00    +0.000 NA
ATOM      5  C   UNL     1      48.028   5.844  14.625  0.00  0.00    +0.000 A 
ATOM      6  C   UNL     1      48.797   6.902  15.114  0.00  0.00    +0.000 A 
ATOM      7  C   UNL     1      49.206   6.781  16.444  0.00  0.00    +0.000 A 
ATOM      8  C   UNL     1      48.821   5.690  17.237  0.00  0.00    +0.000 A 
ATOM      9 CL   UNL     1      49.385   5.673  18.866  0.00  0.00    +0.000 Cl
BRANCH   3  11
ATOM     10  N   UNL     1      48.511   2.787  18.054  0.00  0.00    +0.000 N 
ATOM     11  C   UNL     1      47.536   3.490  17.398  0.00  0.00    +0.000 C 
ATOM     12  O   UNL     1      46.372   3.110  17.443  0.00  0.00    +0.000 OA
ATOM     13  H   UNL     1      48.257   1.955  18.568  0.00  0.00    +0.000 HD
ATOM     14  H   UNL     1      49.475   3.098  18.017  0.00  0.00    +0.000 HD
ENDBRANCH   3  11
ENDBRANCH   1   6
BRANCH   1  15
ATOM     15  C   UNL     1      49.656   7.597  12.900  0.00  0.00    +0.000 C 
BRANCH  15  16
ATOM     16  C   UNL     1      48.918   8.442  11.855  0.00  0.00    +0.000 C 
BRANCH  16  17
ATOM     17  C   UNL     1      47.453   8.071  11.824  0.00  0.00    +0.000 A 
ATOM     18  C   UNL     1      46.471   8.979  12.224  0.00  0.00    +0.000 A 
ATOM     19  C   UNL     1      45.124   8.644  12.101  0.00  0.00    +0.000 A 
ATOM     20  C   UNL     1      44.749   7.411  11.559  0.00  0.00    +0.000 A 
ATOM     21  C   UNL     1      45.709   6.485  11.114  0.00  0.00    +0.000 A 
ATOM     22  C   UNL     1      47.062   6.833  11.284  0.00  0.00    +0.000 A 
BRANCH  21  23
ATOM     23  C   UNL     1      45.327   5.236  10.412  0.00  0.00    +0.000 A 
ATOM     24  C   UNL     1      45.639   5.045   9.051  0.00  0.00    +0.000 A 
ATOM     25  C   UNL     1      45.369   3.836   8.401  0.00  0.00    +0.000 A 
ATOM     26  C   UNL     1      44.786   2.784   9.098  0.00  0.00    +0.000 A 
ATOM     27  C   UNL     1      44.450   2.950  10.438  0.00  0.00    +0.000 A 
ATOM     28  C   UNL     1      44.708   4.165  11.082  0.00  0.00    +0.000 A 
ENDBRANCH  21  23
ENDBRANCH  16  17
ENDBRANCH  15  16
ENDBRANCH   1  15
TORSDOF 6
ENDMDL
