MODEL 1
REMARK VINA RESULT:    -8.263      0.000      0.000
REMARK INTER + INTRA:         -11.197
REMARK INTER:                 -10.679
REMARK INTRA:                  -0.518
REMARK UNBOUND:                -0.518
REMARK  Name = 
REMARK  6 active torsions:
REMARK  status: ('A' for Active; 'I' for Inactive)
REMARK    1  A    between atoms: C_1  and  C_2
REMARK    2  A    between atoms: C_6  and  C_7
REMARK    3  A    between atoms: C_7  and  C_8
REMARK    4  A    between atoms: C_11  and  C_12
REMARK    5  A    between atoms: C_12  and  N_13
REMARK    6  A    between atoms: C_14  and  C_16
REMARK                            x       y       z     vdW  Elec       q    Type
REMARK                         _______ _______ _______ _____ _____    ______ ____
ROOT
ATOM      1  C   UNL     1      46.390   7.742  12.930  0.00  0.00    +0.000 C 
ENDROOT
BRANCH   1   5
ATOM      2  C   UNL     1      44.821   4.521  10.502  0.00  0.00    +0.000 A 
ATOM      3  C   UNL     1      45.778   5.403   9.980  0.00  0.00    +0.000 A 
ATOM      4  C   UNL     1      46.274   6.456  10.755  0.00  0.00    +0.000 A 
ATOM      5  C   UNL     1      45.816   6.652  12.064  0.00  0.00    +0.000 A 
ATOM      6  C   UNL     1      44.805   5.816  12.557  0.00  0.00    +0.000 A 
ATOM      7  C   UNL     1      44.322   4.753  11.789  0.00  0.00    +0.000 A 
BRANCH   2   8
ATOM      8  C   UNL     1      44.371   3.314   9.708  0.00  0.00    +0.000 C 
BRANCH   8  14
ATOM      9  C   UNL     1      46.906  -0.342   7.703  0.00  0.00    +0.000 C 
ATOM     10  C   UNL     1      46.522   1.106   7.654  0.00  0.00    +0.000 A 
ATOM     11  C   UNL     1      47.006   1.936   6.649  0.00  0.00    +0.000 A 
ATOM     12  C   UNL     1      46.644   3.276   6.661  0.00  0.00    +0.000 A 
ATOM     13  C   UNL     1      45.804   3.748   7.664  0.00  0.00    +0.000 A 
ATOM     14  C   UNL     1      45.344   2.862   8.636  0.00  0.00    +0.000 A 
ATOM     15  N   UNL     1      45.696   1.550   8.635  0.00  0.00    +0.000 NA
ENDBRANCH   8  14
ENDBRANCH   2   8
ENDBRANCH   1   5
BRANCH   1  16
ATOM     16  N   UNL     1      46.976   7.212  14.133  0.00  0.00    +0.000 N 
ATOM     17  C   UNL     1      48.303   6.870  14.177  0.00  0.00    +0.000 C 
ATOM     18  O   UNL     1      49.056   7.050  13.224  0.00  0.00    +0.000 OA
ATOM     19  H   UNL     1      46.339   6.841  14.831  0.00  0.00    +0.000 HD
BRANCH  17  20
ATOM     20  C   UNL     1      48.799   6.329  15.450  0.00  0.00    +0.000 A 
ATOM     21  C   UNL     1      49.871   6.941  16.085  0.00  0.00    +0.000 A 
ATOM     22  S   UNL     1      50.302   6.206  17.562  0.00  0.00    +0.000 S 
ATOM     23  C   UNL     1      49.099   5.016  17.384  0.00  0.00    +0.000 A 
ATOM     24  N   UNL     1      48.947   4.031  18.308  0.00  0.00    +0.000 NA
ATOM     25  C   UNL     1      48.015   3.180  18.033  0.00  0.00    +0.000 A 
ATOM     26  N   UNL     1      47.215   3.231  16.921  0.00  0.00    +0.000 N 
ATOM     27  C   UNL     1      47.315   4.222  15.975  0.00  0.00    +0.000 A 
ATOM     28  O   UNL     1      46.551   4.263  15.013  0.00  0.00    +0.000 OA
ATOM     29  C   UNL     1      48.361   5.192  16.224  0.00  0.00    +0.000 A 
ATOM     30  H   UNL     1      46.492   2.543  16.773  0.00  0.00    +0.000 HD
ENDBRANCH  17  20
ENDBRANCH   1  16
TORSDOF 5
ENDMDL
MODEL 2
REMARK VINA RESULT:    -8.177      1.264      1.932
REMARK INTER + INTRA:         -11.086
REMARK INTER:                 -10.107
REMARK INTRA:                  -0.979
REMARK UNBOUND:                -0.518
REMARK  Name = 
REMARK  6 active torsions:
REMARK  status: ('A' for Active; 'I' for Inactive)
REMARK    1  A    between atoms: C_1  and  C_2
REMARK    2  A    between atoms: C_6  and  C_7
REMARK    3  A    between atoms: C_7  and  C_8
REMARK    4  A    between atoms: C_11  and  C_12
REMARK    5  A    between atoms: C_12  and  N_13
REMARK    6  A    between atoms: C_14  and  C_16
REMARK                            x       y       z     vdW  Elec       q    Type
REMARK                         _______ _______ _______ _____ _____    ______ ____
ROOT
ATOM      1  C   UNL     1      47.542   8.404  13.674  0.00  0.00    +0.000 C 
ENDROOT
BRANCH   1   5
ATOM      2  C   UNL     1      44.836   6.185  11.128  0.00  0.00    +0.000 A 
ATOM      3  C   UNL     1      46.060   5.626  11.522  0.00  0.00    +0.000 A 
ATOM      4  C   UNL     1      46.945   6.347  12.329  0.00  0.00    +0.000 A 
ATOM      5  C   UNL     1      46.626   7.644  12.751  0.00  0.00    +0.000 A 
ATOM      6  C   UNL     1      45.437   8.228  12.295  0.00  0.00    +0.000 A 
ATOM      7  C   UNL     1      44.544   7.502  11.502  0.00  0.00    +0.000 A 
BRANCH   2   8
ATOM      8  C   UNL     1      43.827   5.364  10.353  0.00  0.00    +0.000 C 
BRANCH   8  14
ATOM      9  C   UNL     1      46.689   3.807   6.721  0.00  0.00    +0.000 C 
ATOM     10  C   UNL     1      45.816   3.448   7.885  0.00  0.00    +0.000 A 
ATOM     11  C   UNL     1      45.623   2.119   8.245  0.00  0.00    +0.000 A 
ATOM     12  C   UNL     1      44.784   1.834   9.314  0.00  0.00    +0.000 A 
ATOM     13  C   UNL     1      44.171   2.878   9.998  0.00  0.00    +0.000 A 
ATOM     14  C   UNL     1      44.416   4.190   9.594  0.00  0.00    +0.000 A 
ATOM     15  N   UNL     1      45.232   4.478   8.547  0.00  0.00    +0.000 NA
ENDBRANCH   8  14
ENDBRANCH   2   8
ENDBRANCH   1   5
BRANCH   1  16
ATOM     16  N   UNL     1      47.820   7.663  14.875  0.00  0.00    +0.000 N 
ATOM     17  C   UNL     1      49.012   7.004  15.035  0.00  0.00    +0.000 C 
ATOM     18  O   UNL     1      49.907   7.062  14.197  0.00  0.00    +0.000 OA
ATOM     19  H   UNL     1      47.026   7.411  15.456  0.00  0.00    +0.000 HD
BRANCH  17  20
ATOM     20  C   UNL     1      49.192   6.270  16.294  0.00  0.00    +0.000 A 
ATOM     21  C   UNL     1      50.154   6.691  17.203  0.00  0.00    +0.000 A 
ATOM     22  S   UNL     1      50.214   5.747  18.622  0.00  0.00    +0.000 S 
ATOM     23  C   UNL     1      48.987   4.715  18.053  0.00  0.00    +0.000 A 
ATOM     24  N   UNL     1      48.573   3.648  18.788  0.00  0.00    +0.000 NA
ATOM     25  C   UNL     1      47.657   2.935  18.223  0.00  0.00    +0.000 A 
ATOM     26  N   UNL     1      47.109   3.197  16.994  0.00  0.00    +0.000 N 
ATOM     27  C   UNL     1      47.477   4.277  16.229  0.00  0.00    +0.000 A 
ATOM     28  O   UNL     1      46.933   4.509  15.152  0.00  0.00    +0.000 OA
ATOM     29  C   UNL     1      48.519   5.100  16.807  0.00  0.00    +0.000 A 
ATOM     30  H   UNL     1      46.382   2.608  16.615  0.00  0.00    +0.000 HD
ENDBRANCH  17  20
ENDBRANCH   1  16
TORSDOF 5
ENDMDL
MODEL 3
REMARK VINA RESULT:    -7.789      2.315      4.007
REMARK INTER + INTRA:         -10.584
REMARK INTER:                  -9.547
REMARK INTRA:                  -1.038
REMARK UNBOUND:                -0.518
REMARK  Name = 
REMARK  6 active torsions:
REMARK  status: ('A' for Active; 'I' for Inactive)
REMARK    1  A    between atoms: C_1  and  C_2
REMARK    2  A    between atoms: C_6  and  C_7
REMARK    3  A    between atoms: C_7  and  C_8
REMARK    4  A    between atoms: C_11  and  C_12
REMARK    5  A    between atoms: C_12  and  N_13
REMARK    6  A    between atoms: C_14  and  C_16
REMARK                            x       y       z     vdW  Elec       q    Type
REMARK                         _______ _______ _______ _____ _____    ______ ____
ROOT
ATOM      1  C   UNL     1      46.358   5.127  13.947  0.00  0.00    +0.000 C 
ENDROOT
BRANCH   1   5
ATOM      2  C   UNL     1      44.991   4.102   9.971  0.00  0.00    +0.000 A 
ATOM      3  C   UNL     1      45.481   5.387  10.245  0.00  0.00    +0.000 A 
ATOM      4  C   UNL     1      45.907   5.728  11.532  0.00  0.00    +0.000 A 
ATOM      5  C   UNL     1      45.842   4.792  12.573  0.00  0.00    +0.000 A 
ATOM      6  C   UNL     1      45.282   3.534  12.314  0.00  0.00    +0.000 A 
ATOM      7  C   UNL     1      44.872   3.187  11.024  0.00  0.00    +0.000 A 
BRANCH   2   8
ATOM      8  C   UNL     1      44.640   3.696   8.556  0.00  0.00    +0.000 C 
BRANCH   8  14
ATOM      9  C   UNL     1      46.886  -0.553   7.710  0.00  0.00    +0.000 C 
ATOM     10  C   UNL     1      46.780   0.907   7.389  0.00  0.00    +0.000 A 
ATOM     11  C   UNL     1      47.614   1.487   6.440  0.00  0.00    +0.000 A 
ATOM     12  C   UNL     1      47.497   2.849   6.195  0.00  0.00    +0.000 A 
ATOM     13  C   UNL     1      46.549   3.589   6.892  0.00  0.00    +0.000 A 
ATOM     14  C   UNL     1      45.735   2.945   7.823  0.00  0.00    +0.000 A 
ATOM     15  N   UNL     1      45.845   1.614   8.072  0.00  0.00    +0.000 NA
ENDBRANCH   8  14
ENDBRANCH   2   8
ENDBRANCH   1   5
BRANCH   1  16
ATOM     16  N   UNL     1      46.916   6.453  13.998  0.00  0.00    +0.000 N 
ATOM     17  C   UNL     1      48.105   6.692  14.637  0.00  0.00    +0.000 C 
ATOM     18  O   UNL     1      48.768   5.790  15.141  0.00  0.00    +0.000 OA
ATOM     19  H   UNL     1      46.286   7.225  13.804  0.00  0.00    +0.000 HD
BRANCH  17  20
ATOM     20  C   UNL     1      48.581   8.081  14.638  0.00  0.00    +0.000 A 
ATOM     21  C   UNL     1      48.702   8.765  15.842  0.00  0.00    +0.000 A 
ATOM     22  S   UNL     1      49.292  10.356  15.668  0.00  0.00    +0.000 S 
ATOM     23  C   UNL     1      49.365  10.203  13.975  0.00  0.00    +0.000 A 
ATOM     24  N   UNL     1      49.765  11.242  13.196  0.00  0.00    +0.000 NA
ATOM     25  C   UNL     1      49.746  10.997  11.928  0.00  0.00    +0.000 A 
ATOM     26  N   UNL     1      49.371   9.802  11.370  0.00  0.00    +0.000 N 
ATOM     27  C   UNL     1      48.984   8.718  12.119  0.00  0.00    +0.000 A 
ATOM     28  O   UNL     1      48.698   7.647  11.588  0.00  0.00    +0.000 OA
ATOM     29  C   UNL     1      48.967   8.946  13.549  0.00  0.00    +0.000 A 
ATOM     30  H   UNL     1      49.394   9.669  10.369  0.00  0.00    +0.000 HD
ENDBRANCH  17  20
ENDBRANCH   1  16
TORSDOF 5
ENDMDL
MODEL 4
REMARK VINA RESULT:    -7.652      2.159      2.886
REMARK INTER + INTRA:         -10.408
REMARK INTER:                  -9.660
REMARK INTRA:                  -0.747
REMARK UNBOUND:                -0.518
REMARK  Name = 
REMARK  6 active torsions:
REMARK  status: ('A' for Active; 'I' for Inactive)
REMARK    1  A    between atoms: C_1  and  C_2
REMARK    2  A    between atoms: C_6  and  C_7
REMARK    3  A    between atoms: C_7  and  C_8
REMARK    4  A    between atoms: C_11  and  C_12
REMARK    5  A    between atoms: C_12  and  N_13
REMARK    6  A    between atoms: C_14  and  C_16
REMARK                            x       y       z     vdW  Elec       q    Type
REMARK                         _______ _______ _______ _____ _____    ______ ____
ROOT
ATOM      1  C   UNL     1      48.746   6.893  14.042  0.00  0.00    +0.000 C 
ENDROOT
BRANCH   1   5
ATOM      2  C   UNL     1      45.352   5.720  11.626  0.00  0.00    +0.000 A 
ATOM      3  C   UNL     1      45.997   6.944  11.399  0.00  0.00    +0.000 A 
ATOM      4  C   UNL     1      47.082   7.335  12.189  0.00  0.00    +0.000 A 
ATOM      5  C   UNL     1      47.538   6.513  13.227  0.00  0.00    +0.000 A 
ATOM      6  C   UNL     1      46.846   5.326  13.501  0.00  0.00    +0.000 A 
ATOM      7  C   UNL     1      45.772   4.927  12.700  0.00  0.00    +0.000 A 
BRANCH   2   8
ATOM      8  C   UNL     1      44.255   5.243  10.699  0.00  0.00    +0.000 C 
BRANCH   8  14
ATOM      9  C   UNL     1      46.755   3.861   6.744  0.00  0.00    +0.000 C 
ATOM     10  C   UNL     1      45.889   3.455   7.898  0.00  0.00    +0.000 A 
ATOM     11  C   UNL     1      45.543   2.122   8.092  0.00  0.00    +0.000 A 
ATOM     12  C   UNL     1      44.716   1.798   9.159  0.00  0.00    +0.000 A 
ATOM     13  C   UNL     1      44.268   2.805  10.006  0.00  0.00    +0.000 A 
ATOM     14  C   UNL     1      44.660   4.120   9.763  0.00  0.00    +0.000 A 
ATOM     15  N   UNL     1      45.465   4.448   8.719  0.00  0.00    +0.000 NA
ENDBRANCH   8  14
ENDBRANCH   2   8
ENDBRANCH   1   5
BRANCH   1  16
ATOM     16  N   UNL     1      48.414   7.081  15.430  0.00  0.00    +0.000 N 
ATOM     17  C   UNL     1      49.220   6.579  16.420  0.00  0.00    +0.000 C 
ATOM     18  O   UNL     1      50.276   6.003  16.172  0.00  0.00    +0.000 OA
ATOM     19  H   UNL     1      47.455   7.334  15.644  0.00  0.00    +0.000 HD
BRANCH  17  20
ATOM     20  C   UNL     1      48.785   6.817  17.802  0.00  0.00    +0.000 A 
ATOM     21  C   UNL     1      48.462   8.105  18.207  0.00  0.00    +0.000 A 
ATOM     22  S   UNL     1      47.952   8.204  19.832  0.00  0.00    +0.000 S 
ATOM     23  C   UNL     1      48.188   6.535  20.065  0.00  0.00    +0.000 A 
ATOM     24  N   UNL     1      47.963   5.958  21.275  0.00  0.00    +0.000 NA
ATOM     25  C   UNL     1      48.209   4.691  21.316  0.00  0.00    +0.000 A 
ATOM     26  N   UNL     1      48.651   3.946  20.254  0.00  0.00    +0.000 N 
ATOM     27  C   UNL     1      48.867   4.481  19.007  0.00  0.00    +0.000 A 
ATOM     28  O   UNL     1      49.219   3.775  18.064  0.00  0.00    +0.000 OA
ATOM     29  C   UNL     1      48.626   5.905  18.911  0.00  0.00    +0.000 A 
ATOM     30  H   UNL     1      48.809   2.954  20.348  0.00  0.00    +0.000 HD
ENDBRANCH  17  20
ENDBRANCH   1  16
TORSDOF 5
ENDMDL
MODEL 5
REMARK VINA RESULT:    -7.630      2.304      2.718
REMARK INTER + INTRA:         -10.379
REMARK INTER:                  -9.629
REMARK INTRA:                  -0.750
REMARK UNBOUND:                -0.518
REMARK  Name = 
REMARK  6 active torsions:
REMARK  status: ('A' for Active; 'I' for Inactive)
REMARK    1  A    between atoms: C_1  and  C_2
REMARK    2  A    between atoms: C_6  and  C_7
REMARK    3  A    between atoms: C_7  and  C_8
REMARK    4  A    between atoms: C_11  and  C_12
REMARK    5  A    between atoms: C_12  and  N_13
REMARK    6  A    between atoms: C_14  and  C_16
REMARK                            x       y       z     vdW  Elec       q    Type
REMARK                         _______ _______ _______ _____ _____    ______ ____
ROOT
ATOM      1  C   UNL     1      47.987   7.022  13.864  0.00  0.00    +0.000 C 
ENDROOT
BRANCH   1   5
ATOM      2  C   UNL     1      45.444   4.536  11.397  0.00  0.00    +0.000 A 
ATOM      3  C   UNL     1      45.752   5.847  11.006  0.00  0.00    +0.000 A 
ATOM      4  C   UNL     1      46.558   6.659  11.809  0.00  0.00    +0.000 A 
ATOM      5  C   UNL     1      47.064   6.179  13.023  0.00  0.00    +0.000 A 
ATOM      6  C   UNL     1      46.693   4.897  13.448  0.00  0.00    +0.000 A 
ATOM      7  C   UNL     1      45.902   4.078  12.638  0.00  0.00    +0.000 A 
BRANCH   2   8
ATOM      8  C   UNL     1      44.670   3.617  10.476  0.00  0.00    +0.000 C 
BRANCH   8  14
ATOM      9  C   UNL     1      46.664   0.070   7.784  0.00  0.00    +0.000 C 
ATOM     10  C   UNL     1      46.320   1.524   7.905  0.00  0.00    +0.000 A 
ATOM     11  C   UNL     1      46.625   2.413   6.882  0.00  0.00    +0.000 A 
ATOM     12  C   UNL     1      46.312   3.755   7.050  0.00  0.00    +0.000 A 
ATOM     13  C   UNL     1      45.695   4.169   8.225  0.00  0.00    +0.000 A 
ATOM     14  C   UNL     1      45.405   3.226   9.209  0.00  0.00    +0.000 A 
ATOM     15  N   UNL     1      45.712   1.911   9.055  0.00  0.00    +0.000 NA
ENDBRANCH   8  14
ENDBRANCH   2   8
ENDBRANCH   1   5
BRANCH   1  16
ATOM     16  N   UNL     1      47.897   6.679  15.258  0.00  0.00    +0.000 N 
ATOM     17  C   UNL     1      49.024   6.397  15.987  0.00  0.00    +0.000 C 
ATOM     18  O   UNL     1      50.150   6.479  15.505  0.00  0.00    +0.000 OA
ATOM     19  H   UNL     1      46.989   6.380  15.602  0.00  0.00    +0.000 HD
BRANCH  17  20
ATOM     20  C   UNL     1      48.821   6.049  17.400  0.00  0.00    +0.000 A 
ATOM     21  C   UNL     1      49.117   4.766  17.840  0.00  0.00    +0.000 A 
ATOM     22  S   UNL     1      48.851   4.537  19.509  0.00  0.00    +0.000 S 
ATOM     23  C   UNL     1      48.288   6.132  19.694  0.00  0.00    +0.000 A 
ATOM     24  N   UNL     1      47.857   6.586  20.901  0.00  0.00    +0.000 NA
ATOM     25  C   UNL     1      47.432   7.805  20.891  0.00  0.00    +0.000 A 
ATOM     26  N   UNL     1      47.408   8.615  19.785  0.00  0.00    +0.000 N 
ATOM     27  C   UNL     1      47.858   8.208  18.553  0.00  0.00    +0.000 A 
ATOM     28  O   UNL     1      47.865   8.975  17.592  0.00  0.00    +0.000 OA
ATOM     29  C   UNL     1      48.327   6.839  18.503  0.00  0.00    +0.000 A 
ATOM     30  H   UNL     1      47.078   9.567  19.848  0.00  0.00    +0.000 HD
ENDBRANCH  17  20
ENDBRANCH   1  16
TORSDOF 5
ENDMDL
MODEL 6
REMARK VINA RESULT:    -7.592      4.209      8.883
REMARK INTER + INTRA:         -10.330
REMARK INTER:                  -9.588
REMARK INTRA:                  -0.742
REMARK UNBOUND:                -0.518
REMARK  Name = 
REMARK  6 active torsions:
REMARK  status: ('A' for Active; 'I' for Inactive)
REMARK    1  A    between atoms: C_1  and  C_2
REMARK    2  A    between atoms: C_6  and  C_7
REMARK    3  A    between atoms: C_7  and  C_8
REMARK    4  A    between atoms: C_11  and  C_12
REMARK    5  A    between atoms: C_12  and  N_13
REMARK    6  A    between atoms: C_14  and  C_16
REMARK                            x       y       z     vdW  Elec       q    Type
REMARK                         _______ _______ _______ _____ _____    ______ ____
ROOT
ATOM      1  C   UNL     1      47.553   3.442  16.961  0.00  0.00    +0.000 C 
ENDROOT
BRANCH   1   5
ATOM      2  C   UNL     1      51.749   3.031  17.939  0.00  0.00    +0.000 A 
ATOM      3  C   UNL     1      51.091   4.254  18.132  0.00  0.00    +0.000 A 
ATOM      4  C   UNL     1      49.740   4.396  17.799  0.00  0.00    +0.000 A 
ATOM      5  C   UNL     1      49.024   3.320  17.261  0.00  0.00    +0.000 A 
ATOM      6  C   UNL     1      49.702   2.122  16.999  0.00  0.00    +0.000 A 
ATOM      7  C   UNL     1      51.048   1.975  17.346  0.00  0.00    +0.000 A 
BRANCH   2   8
ATOM      8  C   UNL     1      53.177   2.842  18.405  0.00  0.00    +0.000 C 
BRANCH   8  14
ATOM      9  C   UNL     1      53.822  -1.936  19.159  0.00  0.00    +0.000 C 
ATOM     10  C   UNL     1      54.096  -0.744  18.292  0.00  0.00    +0.000 A 
ATOM     11  C   UNL     1      54.856  -0.868  17.135  0.00  0.00    +0.000 A 
ATOM     12  C   UNL     1      55.106   0.269  16.378  0.00  0.00    +0.000 A 
ATOM     13  C   UNL     1      54.587   1.491  16.790  0.00  0.00    +0.000 A 
ATOM     14  C   UNL     1      53.823   1.546  17.954  0.00  0.00    +0.000 A 
ATOM     15  N   UNL     1      53.577   0.440  18.703  0.00  0.00    +0.000 NA
ENDBRANCH   8  14
ENDBRANCH   2   8
ENDBRANCH   1   5
BRANCH   1  16
ATOM     16  N   UNL     1      47.288   4.501  16.023  0.00  0.00    +0.000 N 
ATOM     17  C   UNL     1      47.222   4.248  14.677  0.00  0.00    +0.000 C 
ATOM     18  O   UNL     1      47.329   3.113  14.220  0.00  0.00    +0.000 OA
ATOM     19  H   UNL     1      47.432   5.452  16.348  0.00  0.00    +0.000 HD
BRANCH  17  20
ATOM     20  C   UNL     1      46.956   5.399  13.805  0.00  0.00    +0.000 A 
ATOM     21  C   UNL     1      47.944   6.356  13.610  0.00  0.00    +0.000 A 
ATOM     22  S   UNL     1      47.482   7.610  12.551  0.00  0.00    +0.000 S 
ATOM     23  C   UNL     1      45.929   6.944  12.351  0.00  0.00    +0.000 A 
ATOM     24  N   UNL     1      44.998   7.560  11.575  0.00  0.00    +0.000 NA
ATOM     25  C   UNL     1      43.855   6.960  11.535  0.00  0.00    +0.000 A 
ATOM     26  N   UNL     1      43.562   5.793  12.193  0.00  0.00    +0.000 N 
ATOM     27  C   UNL     1      44.479   5.123  12.966  0.00  0.00    +0.000 A 
ATOM     28  O   UNL     1      44.197   4.055  13.506  0.00  0.00    +0.000 OA
ATOM     29  C   UNL     1      45.773   5.766  13.063  0.00  0.00    +0.000 A 
ATOM     30  H   UNL     1      42.652   5.365  12.107  0.00  0.00    +0.000 HD
ENDBRANCH  17  20
ENDBRANCH   1  16
TORSDOF 5
ENDMDL
MODEL 7
REMARK VINA RESULT:    -7.283      2.813      3.833
REMARK INTER + INTRA:          -9.931
REMARK INTER:                  -9.112
REMARK INTRA:                  -0.819
REMARK UNBOUND:                -0.518
REMARK  Name = 
REMARK  6 active torsions:
REMARK  status: ('A' for Active; 'I' for Inactive)
REMARK    1  A    between atoms: C_1  and  C_2
REMARK    2  A    between atoms: C_6  and  C_7
REMARK    3  A    between atoms: C_7  and  C_8
REMARK    4  A    between atoms: C_11  and  C_12
REMARK    5  A    between atoms: C_12  and  N_13
REMARK    6  A    between atoms: C_14  and  C_16
REMARK                            x       y       z     vdW  Elec       q    Type
REMARK                         _______ _______ _______ _____ _____    ______ ____
ROOT
ATOM      1  C   UNL     1      47.251   5.197  14.529  0.00  0.00    +0.000 C 
ENDROOT
BRANCH   1   5
ATOM      2  C   UNL     1      45.021   3.975  11.026  0.00  0.00    +0.000 A 
ATOM      3  C   UNL     1      45.419   5.310  11.186  0.00  0.00    +0.000 A 
ATOM      4  C   UNL     1      46.124   5.712  12.325  0.00  0.00    +0.000 A 
ATOM      5  C   UNL     1      46.436   4.789  13.330  0.00  0.00    +0.000 A 
ATOM      6  C   UNL     1      45.972   3.473  13.204  0.00  0.00    +0.000 A 
ATOM      7  C   UNL     1      45.283   3.066  12.059  0.00  0.00    +0.000 A 
BRANCH   2   8
ATOM      8  C   UNL     1      44.363   3.514   9.744  0.00  0.00    +0.000 C 
BRANCH   8  14
ATOM      9  C   UNL     1      46.800  -0.176   7.681  0.00  0.00    +0.000 C 
ATOM     10  C   UNL     1      46.457   1.283   7.657  0.00  0.00    +0.000 A 
ATOM     11  C   UNL     1      46.969   2.117   6.669  0.00  0.00    +0.000 A 
ATOM     12  C   UNL     1      46.646   3.467   6.704  0.00  0.00    +0.000 A 
ATOM     13  C   UNL     1      45.816   3.944   7.713  0.00  0.00    +0.000 A 
ATOM     14  C   UNL     1      45.327   3.054   8.667  0.00  0.00    +0.000 A 
ATOM     15  N   UNL     1      45.641   1.733   8.643  0.00  0.00    +0.000 NA
ENDBRANCH   8  14
ENDBRANCH   2   8
ENDBRANCH   1   5
BRANCH   1  16
ATOM     16  N   UNL     1      47.640   6.581  14.462  0.00  0.00    +0.000 N 
ATOM     17  C   UNL     1      48.721   7.043  15.168  0.00  0.00    +0.000 C 
ATOM     18  O   UNL     1      49.431   6.296  15.836  0.00  0.00    +0.000 OA
ATOM     19  H   UNL     1      46.946   7.238  14.120  0.00  0.00    +0.000 HD
BRANCH  17  20
ATOM     20  C   UNL     1      49.026   8.473  15.037  0.00  0.00    +0.000 A 
ATOM     21  C   UNL     1      49.670   8.936  13.897  0.00  0.00    +0.000 A 
ATOM     22  S   UNL     1      49.925  10.622  13.893  0.00  0.00    +0.000 S 
ATOM     23  C   UNL     1      49.225  10.788  15.434  0.00  0.00    +0.000 A 
ATOM     24  N   UNL     1      49.157  12.000  16.045  0.00  0.00    +0.000 NA
ATOM     25  C   UNL     1      48.627  11.976  17.223  0.00  0.00    +0.000 A 
ATOM     26  N   UNL     1      48.150  10.849  17.841  0.00  0.00    +0.000 N 
ATOM     27  C   UNL     1      48.174   9.608  17.251  0.00  0.00    +0.000 A 
ATOM     28  O   UNL     1      47.696   8.626  17.815  0.00  0.00    +0.000 OA
ATOM     29  C   UNL     1      48.779   9.576  15.936  0.00  0.00    +0.000 A 
ATOM     30  H   UNL     1      47.731  10.900  18.757  0.00  0.00    +0.000 HD
ENDBRANCH  17  20
ENDBRANCH   1  16
TORSDOF 5
ENDMDL
MODEL 8
REMARK VINA RESULT:    -7.230      3.903      8.967
REMARK INTER + INTRA:          -9.862
REMARK INTER:                  -8.979
REMARK INTRA:                  -0.883
REMARK UNBOUND:                -0.518
REMARK  Name = 
REMARK  6 active torsions:
REMARK  status: ('A' for Active; 'I' for Inactive)
REMARK    1  A    between atoms: C_1  and  C_2
REMARK    2  A    between atoms: C_6  and  C_7
REMARK    3  A    between atoms: C_7  and  C_8
REMARK    4  A    between atoms: C_11  and  C_12
REMARK    5  A    between atoms: C_12  and  N_13
REMARK    6  A    between atoms: C_14  and  C_16
REMARK                            x       y       z     vdW  Elec       q    Type
REMARK                         _______ _______ _______ _____ _____    ______ ____
ROOT
ATOM      1  C   UNL     1      47.287   3.408  16.817  0.00  0.00    +0.000 C 
ENDROOT
BRANCH   1   5
ATOM      2  C   UNL     1      51.493   3.758  17.777  0.00  0.00    +0.000 A 
ATOM      3  C   UNL     1      50.674   4.896  17.744  0.00  0.00    +0.000 A 
ATOM      4  C   UNL     1      49.319   4.790  17.416  0.00  0.00    +0.000 A 
ATOM      5  C   UNL     1      48.759   3.544  17.107  0.00  0.00    +0.000 A 
ATOM      6  C   UNL     1      49.595   2.420  17.068  0.00  0.00    +0.000 A 
ATOM      7  C   UNL     1      50.945   2.523  17.412  0.00  0.00    +0.000 A 
BRANCH   2   8
ATOM      8  C   UNL     1      52.929   3.855  18.244  0.00  0.00    +0.000 C 
BRANCH   8  14
ATOM      9  C   UNL     1      54.811   6.677  14.737  0.00  0.00    +0.000 C 
ATOM     10  C   UNL     1      54.491   6.513  16.192  0.00  0.00    +0.000 A 
ATOM     11  C   UNL     1      54.786   7.522  17.102  0.00  0.00    +0.000 A 
ATOM     12  C   UNL     1      54.495   7.314  18.443  0.00  0.00    +0.000 A 
ATOM     13  C   UNL     1      53.911   6.115  18.837  0.00  0.00    +0.000 A 
ATOM     14  C   UNL     1      53.630   5.148  17.874  0.00  0.00    +0.000 A 
ATOM     15  N   UNL     1      53.915   5.341  16.559  0.00  0.00    +0.000 NA
ENDBRANCH   8  14
ENDBRANCH   2   8
ENDBRANCH   1   5
BRANCH   1  16
ATOM     16  N   UNL     1      46.837   4.399  15.876  0.00  0.00    +0.000 N 
ATOM     17  C   UNL     1      46.873   4.156  14.527  0.00  0.00    +0.000 C 
ATOM     18  O   UNL     1      47.232   3.076  14.068  0.00  0.00    +0.000 OA
ATOM     19  H   UNL     1      46.767   5.355  16.212  0.00  0.00    +0.000 HD
BRANCH  17  20
ATOM     20  C   UNL     1      46.399   5.238  13.654  0.00  0.00    +0.000 A 
ATOM     21  C   UNL     1      47.204   6.350  13.441  0.00  0.00    +0.000 A 
ATOM     22  S   UNL     1      46.518   7.497  12.381  0.00  0.00    +0.000 S 
ATOM     23  C   UNL     1      45.102   6.570  12.205  0.00  0.00    +0.000 A 
ATOM     24  N   UNL     1      44.069   7.008  11.438  0.00  0.00    +0.000 NA
ATOM     25  C   UNL     1      43.048   6.219  11.416  0.00  0.00    +0.000 A 
ATOM     26  N   UNL     1      42.970   5.024  12.084  0.00  0.00    +0.000 N 
ATOM     27  C   UNL     1      43.998   4.529  12.848  0.00  0.00    +0.000 A 
ATOM     28  O   UNL     1      43.913   3.432  13.397  0.00  0.00    +0.000 OA
ATOM     29  C   UNL     1      45.162   5.387  12.925  0.00  0.00    +0.000 A 
ATOM     30  H   UNL     1      42.148   4.444  12.011  0.00  0.00    +0.000 HD
ENDBRANCH  17  20
ENDBRANCH   1  16
TORSDOF 5
ENDMDL
MODEL 9
REMARK VINA RESULT:    -7.132      4.698      7.340
REMARK INTER + INTRA:          -9.735
REMARK INTER:                  -8.804
REMARK INTRA:                  -0.932
REMARK UNBOUND:                -0.518
REMARK  Name = 
REMARK  6 active torsions:
REMARK  status: ('A' for Active; 'I' for Inactive)
REMARK    1  A    between atoms: C_1  and  C_2
REMARK    2  A    between atoms: C_6  and  C_7
REMARK    3  A    between atoms: C_7  and  C_8
REMARK    4  A    between atoms: C_11  and  C_12
REMARK    5  A    between atoms: C_12  and  N_13
REMARK    6  A    between atoms: C_14  and  C_16
REMARK                            x       y       z     vdW  Elec       q    Type
REMARK                         _______ _______ _______ _____ _____    ______ ____
ROOT
ATOM      1  C   UNL     1      46.715   8.368  12.651  0.00  0.00    +0.000 C 
ENDROOT
BRANCH   1   5
ATOM      2  C   UNL     1      50.787   8.783  11.243  0.00  0.00    +0.000 A 
ATOM      3  C   UNL     1      49.945   9.902  11.324  0.00  0.00    +0.000 A 
ATOM      4  C   UNL     1      48.624   9.769  11.761  0.00  0.00    +0.000 A 
ATOM      5  C   UNL     1      48.116   8.513  12.117  0.00  0.00    +0.000 A 
ATOM      6  C   UNL     1      48.934   7.387  11.964  0.00  0.00    +0.000 A 
ATOM      7  C   UNL     1      50.261   7.521  11.544  0.00  0.00    +0.000 A 
BRANCH   2   8
ATOM      8  C   UNL     1      52.248   8.941  10.883  0.00  0.00    +0.000 C 
BRANCH   8  14
ATOM      9  C   UNL     1      54.890   4.839  10.865  0.00  0.00    +0.000 C 
ATOM     10  C   UNL     1      54.059   5.811  10.084  0.00  0.00    +0.000 A 
ATOM     11  C   UNL     1      53.819   5.612   8.729  0.00  0.00    +0.000 A 
ATOM     12  C   UNL     1      53.066   6.553   8.041  0.00  0.00    +0.000 A 
ATOM     13  C   UNL     1      52.566   7.657   8.722  0.00  0.00    +0.000 A 
ATOM     14  C   UNL     1      52.832   7.793  10.083  0.00  0.00    +0.000 A 
ATOM     15  N   UNL     1      53.571   6.879  10.764  0.00  0.00    +0.000 NA
ENDBRANCH   8  14
ENDBRANCH   2   8
ENDBRANCH   1   5
BRANCH   1  16
ATOM     16  N   UNL     1      46.203   7.039  12.447  0.00  0.00    +0.000 N 
ATOM     17  C   UNL     1      45.095   6.824  11.669  0.00  0.00    +0.000 C 
ATOM     18  O   UNL     1      44.529   7.736  11.072  0.00  0.00    +0.000 OA
ATOM     19  H   UNL     1      46.501   6.324  13.104  0.00  0.00    +0.000 HD
BRANCH  17  20
ATOM     20  C   UNL     1      44.649   5.431  11.533  0.00  0.00    +0.000 A 
ATOM     21  C   UNL     1      43.923   4.839  12.558  0.00  0.00    +0.000 A 
ATOM     22  S   UNL     1      43.462   3.231  12.229  0.00  0.00    +0.000 S 
ATOM     23  C   UNL     1      44.255   3.252  10.724  0.00  0.00    +0.000 A 
ATOM     24  N   UNL     1      44.276   2.151   9.928  0.00  0.00    +0.000 NA
ATOM     25  C   UNL     1      44.937   2.299   8.829  0.00  0.00    +0.000 A 
ATOM     26  N   UNL     1      45.571   3.453   8.448  0.00  0.00    +0.000 N 
ATOM     27  C   UNL     1      45.554   4.598   9.208  0.00  0.00    +0.000 A 
ATOM     28  O   UNL     1      46.094   5.630   8.816  0.00  0.00    +0.000 OA
ATOM     29  C   UNL     1      44.843   4.480  10.464  0.00  0.00    +0.000 A 
ATOM     30  H   UNL     1      46.057   3.510   7.566  0.00  0.00    +0.000 HD
ENDBRANCH  17  20
ENDBRANCH   1  16
TORSDOF 5
ENDMDL
