MODEL 1
REMARK VINA RESULT:    -7.799      0.000      0.000
REMARK INTER + INTRA:         -10.892
REMARK INTER:                 -10.078
REMARK INTRA:                  -0.813
REMARK UNBOUND:                -0.813
REMARK  Name = 
REMARK  6 active torsions:
REMARK  status: ('A' for Active; 'I' for Inactive)
REMARK    1  A    between atoms: C_1  and  O_2
REMARK    2  A    between atoms: O_2  and  C_3
REMARK    3  A    between atoms: C_5  and  C_6
REMARK    4  A    between atoms: C_6  and  O_7
REMARK    5  A    between atoms: O_7  and  C_8
REMARK    6  A    between atoms: C_16  and  C_17
REMARK                            x       y       z     vdW  Elec       q    Type
REMARK                         _______ _______ _______ _____ _____    ______ ____
ROOT
ATOM      1  C   UNL     1      46.835   4.147  13.565  0.00  0.00    +0.000 A 
ATOM      2  C   UNL     1      45.875   3.383  12.948  0.00  0.00    +0.000 A 
ATOM      3  C   UNL     1      45.040   4.051  12.077  0.00  0.00    +0.000 A 
ATOM      4  N   UNL     1      45.139   5.384  11.865  0.00  0.00    +0.000 NA
ATOM      5  C   UNL     1      46.100   6.046  12.538  0.00  0.00    +0.000 A 
ATOM      6  N   UNL     1      46.969   5.467  13.377  0.00  0.00    +0.000 NA
ENDROOT
BRANCH   5   7
ATOM      7  C   UNL     1      46.230   7.501  12.333  0.00  0.00    +0.000 A 
ATOM      8  C   UNL     1      47.488   8.127  12.240  0.00  0.00    +0.000 A 
ATOM      9  C   UNL     1      47.607   9.509  12.051  0.00  0.00    +0.000 A 
ATOM     10  C   UNL     1      46.462  10.296  11.952  0.00  0.00    +0.000 A 
ATOM     11  C   UNL     1      45.215   9.696  12.039  0.00  0.00    +0.000 A 
ATOM     12  F   UNL     1      44.112  10.449  11.942  0.00  0.00    +0.000 F 
ATOM     13  C   UNL     1      45.091   8.322  12.225  0.00  0.00    +0.000 A 
ENDBRANCH   5   7
BRANCH   1  15
ATOM     14  C   UNL     1      47.479   3.809  15.786  0.00  0.00    +0.000 C 
ATOM     15  O   UNL     1      47.708   3.494  14.413  0.00  0.00    +0.000 OA
ENDBRANCH   1  15
BRANCH   3  16
ATOM     16  C   UNL     1      43.983   3.303  11.297  0.00  0.00    +0.000 C 
BRANCH  16  17
ATOM     17  O   UNL     1      43.941   3.785   9.954  0.00  0.00    +0.000 OA
BRANCH  17  18
ATOM     18  C   UNL     1      44.924   3.344   9.113  0.00  0.00    +0.000 A 
ATOM     19  C   UNL     1      45.595   4.325   8.384  0.00  0.00    +0.000 A 
ATOM     20  N   UNL     1      46.580   4.076   7.485  0.00  0.00    +0.000 NA
ATOM     21  C   UNL     1      46.913   2.780   7.305  0.00  0.00    +0.000 A 
ATOM     22  C   UNL     1      46.313   1.733   7.984  0.00  0.00    +0.000 A 
ATOM     23 CL   UNL     1      46.788   0.108   7.696  0.00  0.00    +0.000 Cl
ATOM     24  C   UNL     1      45.305   2.019   8.906  0.00  0.00    +0.000 A 
ENDBRANCH  17  18
ENDBRANCH  16  17
ENDBRANCH   3  16
TORSDOF 5
ENDMDL
MODEL 2
REMARK VINA RESULT:    -7.572      1.168      1.428
REMARK INTER + INTRA:         -10.599
REMARK INTER:                  -9.989
REMARK INTRA:                  -0.610
REMARK UNBOUND:                -0.813
REMARK  Name = 
REMARK  6 active torsions:
REMARK  status: ('A' for Active; 'I' for Inactive)
REMARK    1  A    between atoms: C_1  and  O_2
REMARK    2  A    between atoms: O_2  and  C_3
REMARK    3  A    between atoms: C_5  and  C_6
REMARK    4  A    between atoms: C_6  and  O_7
REMARK    5  A    between atoms: O_7  and  C_8
REMARK    6  A    between atoms: C_16  and  C_17
REMARK                            x       y       z     vdW  Elec       q    Type
REMARK                         _______ _______ _______ _____ _____    ______ ____
ROOT
ATOM      1  C   UNL     1      46.123   4.710  13.649  0.00  0.00    +0.000 A 
ATOM      2  C   UNL     1      45.063   4.367  12.845  0.00  0.00    +0.000 A 
ATOM      3  C   UNL     1      44.849   5.180  11.751  0.00  0.00    +0.000 A 
ATOM      4  N   UNL     1      45.614   6.269  11.503  0.00  0.00    +0.000 NA
ATOM      5  C   UNL     1      46.614   6.531  12.367  0.00  0.00    +0.000 A 
ATOM      6  N   UNL     1      46.907   5.775  13.434  0.00  0.00    +0.000 NA
ENDROOT
BRANCH   5   7
ATOM      7  C   UNL     1      47.462   7.713  12.126  0.00  0.00    +0.000 A 
ATOM      8  C   UNL     1      48.827   7.592  11.798  0.00  0.00    +0.000 A 
ATOM      9  C   UNL     1      49.629   8.717  11.576  0.00  0.00    +0.000 A 
ATOM     10  C   UNL     1      49.080   9.992  11.679  0.00  0.00    +0.000 A 
ATOM     11  C   UNL     1      47.738  10.130  11.998  0.00  0.00    +0.000 A 
ATOM     12  F   UNL     1      47.204  11.355  12.096  0.00  0.00    +0.000 F 
ATOM     13  C   UNL     1      46.934   9.015  12.219  0.00  0.00    +0.000 A 
ENDBRANCH   5   7
BRANCH   1  15
ATOM     14  C   UNL     1      47.343   4.447  15.626  0.00  0.00    +0.000 C 
ATOM     15  O   UNL     1      46.382   3.889  14.729  0.00  0.00    +0.000 OA
ENDBRANCH   1  15
BRANCH   3  16
ATOM     16  C   UNL     1      43.748   4.868  10.764  0.00  0.00    +0.000 C 
BRANCH  16  17
ATOM     17  O   UNL     1      43.832   3.500  10.363  0.00  0.00    +0.000 OA
BRANCH  17  18
ATOM     18  C   UNL     1      44.729   3.204   9.375  0.00  0.00    +0.000 A 
ATOM     19  C   UNL     1      45.126   4.269   8.567  0.00  0.00    +0.000 A 
ATOM     20  N   UNL     1      45.988   4.163   7.524  0.00  0.00    +0.000 NA
ATOM     21  C   UNL     1      46.477   2.929   7.275  0.00  0.00    +0.000 A 
ATOM     22  C   UNL     1      46.151   1.809   8.022  0.00  0.00    +0.000 A 
ATOM     23 CL   UNL     1      46.811   0.271   7.639  0.00  0.00    +0.000 Cl
ATOM     24  C   UNL     1      45.265   1.949   9.091  0.00  0.00    +0.000 A 
ENDBRANCH  17  18
ENDBRANCH  16  17
ENDBRANCH   3  16
TORSDOF 5
ENDMDL
MODEL 3
REMARK VINA RESULT:    -7.141      2.465      4.646
REMARK INTER + INTRA:         -10.041
REMARK INTER:                  -9.492
REMARK INTRA:                  -0.549
REMARK UNBOUND:                -0.813
REMARK  Name = 
REMARK  6 active torsions:
REMARK  status: ('A' for Active; 'I' for Inactive)
REMARK    1  A    between atoms: C_1  and  O_2
REMARK    2  A    between atoms: O_2  and  C_3
REMARK    3  A    between atoms: C_5  and  C_6
REMARK    4  A    between atoms: C_6  and  O_7
REMARK    5  A    between atoms: O_7  and  C_8
REMARK    6  A    between atoms: C_16  and  C_17
REMARK                            x       y       z     vdW  Elec       q    Type
REMARK                         _______ _______ _______ _____ _____    ______ ____
ROOT
ATOM      1  C   UNL     1      46.476   6.223  12.859  0.00  0.00    +0.000 A 
ATOM      2  C   UNL     1      45.690   5.431  12.058  0.00  0.00    +0.000 A 
ATOM      3  C   UNL     1      45.464   4.149  12.515  0.00  0.00    +0.000 A 
ATOM      4  N   UNL     1      46.009   3.688  13.665  0.00  0.00    +0.000 NA
ATOM      5  C   UNL     1      46.784   4.539  14.365  0.00  0.00    +0.000 A 
ATOM      6  N   UNL     1      47.028   5.807  14.007  0.00  0.00    +0.000 NA
ENDROOT
BRANCH   5   7
ATOM      7  C   UNL     1      47.397   4.064  15.619  0.00  0.00    +0.000 A 
ATOM      8  C   UNL     1      48.089   2.839  15.689  0.00  0.00    +0.000 A 
ATOM      9  C   UNL     1      48.665   2.389  16.883  0.00  0.00    +0.000 A 
ATOM     10  C   UNL     1      48.558   3.161  18.038  0.00  0.00    +0.000 A 
ATOM     11  C   UNL     1      47.884   4.371  17.986  0.00  0.00    +0.000 A 
ATOM     12  F   UNL     1      47.781   5.117  19.094  0.00  0.00    +0.000 F 
ATOM     13  C   UNL     1      47.311   4.824  16.802  0.00  0.00    +0.000 A 
ENDBRANCH   5   7
BRANCH   1  15
ATOM     14  C   UNL     1      45.525   8.105  11.849  0.00  0.00    +0.000 C 
ATOM     15  O   UNL     1      46.686   7.523  12.443  0.00  0.00    +0.000 OA
ENDBRANCH   1  15
BRANCH   3  16
ATOM     16  C   UNL     1      44.567   3.205  11.747  0.00  0.00    +0.000 C 
BRANCH  16  17
ATOM     17  O   UNL     1      44.254   3.767  10.472  0.00  0.00    +0.000 OA
BRANCH  17  18
ATOM     18  C   UNL     1      45.044   3.386   9.423  0.00  0.00    +0.000 A 
ATOM     19  C   UNL     1      45.455   4.402   8.562  0.00  0.00    +0.000 A 
ATOM     20  N   UNL     1      46.219   4.213   7.457  0.00  0.00    +0.000 NA
ATOM     21  C   UNL     1      46.592   2.941   7.199  0.00  0.00    +0.000 A 
ATOM     22  C   UNL     1      46.243   1.863   7.995  0.00  0.00    +0.000 A 
ATOM     23 CL   UNL     1      46.753   0.272   7.596  0.00  0.00    +0.000 Cl
ATOM     24  C   UNL     1      45.460   2.088   9.127  0.00  0.00    +0.000 A 
ENDBRANCH  17  18
ENDBRANCH  16  17
ENDBRANCH   3  16
TORSDOF 5
ENDMDL
MODEL 4
REMARK VINA RESULT:    -6.765      3.174      5.135
REMARK INTER + INTRA:          -9.555
REMARK INTER:                  -8.865
REMARK INTRA:                  -0.690
REMARK UNBOUND:                -0.813
REMARK  Name = 
REMARK  6 active torsions:
REMARK  status: ('A' for Active; 'I' for Inactive)
REMARK    1  A    between atoms: C_1  and  O_2
REMARK    2  A    between atoms: O_2  and  C_3
REMARK    3  A    between atoms: C_5  and  C_6
REMARK    4  A    between atoms: C_6  and  O_7
REMARK    5  A    between atoms: O_7  and  C_8
REMARK    6  A    between atoms: C_16  and  C_17
REMARK                            x       y       z     vdW  Elec       q    Type
REMARK                         _______ _______ _______ _____ _____    ______ ____
ROOT
ATOM      1  C   UNL     1      48.740   7.196  13.134  0.00  0.00    +0.000 A 
ATOM      2  C   UNL     1      47.619   7.060  12.351  0.00  0.00    +0.000 A 
ATOM      3  C   UNL     1      46.631   6.237  12.852  0.00  0.00    +0.000 A 
ATOM      4  N   UNL     1      46.770   5.578  14.026  0.00  0.00    +0.000 NA
ATOM      5  C   UNL     1      47.919   5.761  14.705  0.00  0.00    +0.000 A 
ATOM      6  N   UNL     1      48.913   6.566  14.303  0.00  0.00    +0.000 NA
ENDROOT
BRANCH   5   7
ATOM      7  C   UNL     1      48.103   5.052  15.984  0.00  0.00    +0.000 A 
ATOM      8  C   UNL     1      49.091   5.440  16.912  0.00  0.00    +0.000 A 
ATOM      9  C   UNL     1      49.266   4.761  18.123  0.00  0.00    +0.000 A 
ATOM     10  C   UNL     1      48.452   3.674  18.432  0.00  0.00    +0.000 A 
ATOM     11  C   UNL     1      47.473   3.280  17.533  0.00  0.00    +0.000 A 
ATOM     12  F   UNL     1      46.687   2.236  17.827  0.00  0.00    +0.000 F 
ATOM     13  C   UNL     1      47.294   3.953  16.327  0.00  0.00    +0.000 A 
ENDBRANCH   5   7
BRANCH   1  15
ATOM     14  C   UNL     1      50.247   7.646  11.404  0.00  0.00    +0.000 C 
ATOM     15  O   UNL     1      49.727   8.045  12.672  0.00  0.00    +0.000 OA
ENDBRANCH   1  15
BRANCH   3  16
ATOM     16  C   UNL     1      45.329   6.057  12.107  0.00  0.00    +0.000 C 
BRANCH  16  17
ATOM     17  O   UNL     1      45.557   6.167  10.702  0.00  0.00    +0.000 OA
BRANCH  17  18
ATOM     18  C   UNL     1      45.310   5.052   9.950  0.00  0.00    +0.000 A 
ATOM     19  C   UNL     1      44.433   4.120  10.503  0.00  0.00    +0.000 A 
ATOM     20  N   UNL     1      44.088   2.947   9.917  0.00  0.00    +0.000 NA
ATOM     21  C   UNL     1      44.649   2.690   8.715  0.00  0.00    +0.000 A 
ATOM     22  C   UNL     1      45.525   3.553   8.079  0.00  0.00    +0.000 A 
ATOM     23 CL   UNL     1      46.202   3.153   6.552  0.00  0.00    +0.000 Cl
ATOM     24  C   UNL     1      45.859   4.755   8.703  0.00  0.00    +0.000 A 
ENDBRANCH  17  18
ENDBRANCH  16  17
ENDBRANCH   3  16
TORSDOF 5
ENDMDL
MODEL 5
REMARK VINA RESULT:    -6.763      2.653      3.328
REMARK INTER + INTRA:          -9.552
REMARK INTER:                  -8.918
REMARK INTRA:                  -0.635
REMARK UNBOUND:                -0.813
REMARK  Name = 
REMARK  6 active torsions:
REMARK  status: ('A' for Active; 'I' for Inactive)
REMARK    1  A    between atoms: C_1  and  O_2
REMARK    2  A    between atoms: O_2  and  C_3
REMARK    3  A    between atoms: C_5  and  C_6
REMARK    4  A    between atoms: C_6  and  O_7
REMARK    5  A    between atoms: O_7  and  C_8
REMARK    6  A    between atoms: C_16  and  C_17
REMARK                            x       y       z     vdW  Elec       q    Type
REMARK                         _______ _______ _______ _____ _____    ______ ____
ROOT
ATOM      1  C   UNL     1      44.784   4.723  12.663  0.00  0.00    +0.000 A 
ATOM      2  C   UNL     1      44.755   4.655  11.291  0.00  0.00    +0.000 A 
ATOM      3  C   UNL     1      45.687   5.427  10.630  0.00  0.00    +0.000 A 
ATOM      4  N   UNL     1      46.556   6.229  11.290  0.00  0.00    +0.000 NA
ATOM      5  C   UNL     1      46.486   6.240  12.635  0.00  0.00    +0.000 A 
ATOM      6  N   UNL     1      45.632   5.498  13.352  0.00  0.00    +0.000 NA
ENDROOT
BRANCH   5   7
ATOM      7  C   UNL     1      47.416   7.107  13.382  0.00  0.00    +0.000 A 
ATOM      8  C   UNL     1      47.179   8.487  13.539  0.00  0.00    +0.000 A 
ATOM      9  C   UNL     1      48.067   9.308  14.244  0.00  0.00    +0.000 A 
ATOM     10  C   UNL     1      49.215   8.761  14.810  0.00  0.00    +0.000 A 
ATOM     11  C   UNL     1      49.463   7.404  14.669  0.00  0.00    +0.000 A 
ATOM     12  F   UNL     1      50.566   6.874  15.213  0.00  0.00    +0.000 F 
ATOM     13  C   UNL     1      48.583   6.583  13.969  0.00  0.00    +0.000 A 
ENDBRANCH   5   7
BRANCH   1  15
ATOM     14  C   UNL     1      43.444   2.809  12.581  0.00  0.00    +0.000 C 
ATOM     15  O   UNL     1      43.886   3.929  13.349  0.00  0.00    +0.000 OA
ENDBRANCH   1  15
BRANCH   3  16
ATOM     16  C   UNL     1      45.788   5.390   9.122  0.00  0.00    +0.000 C 
BRANCH  16  17
ATOM     17  O   UNL     1      44.991   4.322   8.611  0.00  0.00    +0.000 OA
BRANCH  17  18
ATOM     18  C   UNL     1      45.658   3.293   8.007  0.00  0.00    +0.000 A 
ATOM     19  C   UNL     1      45.646   2.073   8.682  0.00  0.00    +0.000 A 
ATOM     20  N   UNL     1      46.271   0.949   8.250  0.00  0.00    +0.000 NA
ATOM     21  C   UNL     1      46.944   1.049   7.084  0.00  0.00    +0.000 A 
ATOM     22  C   UNL     1      47.011   2.212   6.335  0.00  0.00    +0.000 A 
ATOM     23 CL   UNL     1      47.893   2.261   4.862  0.00  0.00    +0.000 Cl
ATOM     24  C   UNL     1      46.355   3.351   6.801  0.00  0.00    +0.000 A 
ENDBRANCH  17  18
ENDBRANCH  16  17
ENDBRANCH   3  16
TORSDOF 5
ENDMDL
MODEL 6
REMARK VINA RESULT:    -6.758      3.915      7.266
REMARK INTER + INTRA:          -9.547
REMARK INTER:                  -8.808
REMARK INTRA:                  -0.739
REMARK UNBOUND:                -0.813
REMARK  Name = 
REMARK  6 active torsions:
REMARK  status: ('A' for Active; 'I' for Inactive)
REMARK    1  A    between atoms: C_1  and  O_2
REMARK    2  A    between atoms: O_2  and  C_3
REMARK    3  A    between atoms: C_5  and  C_6
REMARK    4  A    between atoms: C_6  and  O_7
REMARK    5  A    between atoms: O_7  and  C_8
REMARK    6  A    between atoms: C_16  and  C_17
REMARK                            x       y       z     vdW  Elec       q    Type
REMARK                         _______ _______ _______ _____ _____    ______ ____
ROOT
ATOM      1  C   UNL     1      45.222   8.615  12.111  0.00  0.00    +0.000 A 
ATOM      2  C   UNL     1      46.248   8.614  13.024  0.00  0.00    +0.000 A 
ATOM      3  C   UNL     1      46.951   7.433  13.139  0.00  0.00    +0.000 A 
ATOM      4  N   UNL     1      46.630   6.331  12.421  0.00  0.00    +0.000 NA
ATOM      5  C   UNL     1      45.591   6.430  11.570  0.00  0.00    +0.000 A 
ATOM      6  N   UNL     1      44.877   7.548  11.377  0.00  0.00    +0.000 NA
ENDROOT
BRANCH   5   7
ATOM      7  C   UNL     1      45.213   5.246  10.777  0.00  0.00    +0.000 A 
ATOM      8  C   UNL     1      45.583   5.109   9.425  0.00  0.00    +0.000 A 
ATOM      9  C   UNL     1      45.218   3.985   8.675  0.00  0.00    +0.000 A 
ATOM     10  C   UNL     1      44.470   2.970   9.266  0.00  0.00    +0.000 A 
ATOM     11  C   UNL     1      44.099   3.086  10.597  0.00  0.00    +0.000 A 
ATOM     12  F   UNL     1      43.381   2.111  11.170  0.00  0.00    +0.000 F 
ATOM     13  C   UNL     1      44.461   4.201  11.348  0.00  0.00    +0.000 A 
ENDBRANCH   5   7
BRANCH   1  15
ATOM     14  C   UNL     1      43.685   9.787  10.795  0.00  0.00    +0.000 C 
ATOM     15  O   UNL     1      44.527   9.797  11.949  0.00  0.00    +0.000 OA
ENDBRANCH   1  15
BRANCH   3  16
ATOM     16  C   UNL     1      48.137   7.331  14.070  0.00  0.00    +0.000 C 
BRANCH  16  17
ATOM     17  O   UNL     1      48.448   5.958  14.308  0.00  0.00    +0.000 OA
BRANCH  17  18
ATOM     18  C   UNL     1      48.124   5.460  15.539  0.00  0.00    +0.000 A 
ATOM     19  C   UNL     1      47.253   4.371  15.552  0.00  0.00    +0.000 A 
ATOM     20  N   UNL     1      46.801   3.760  16.677  0.00  0.00    +0.000 NA
ATOM     21  C   UNL     1      47.242   4.264  17.849  0.00  0.00    +0.000 A 
ATOM     22  C   UNL     1      48.113   5.337  17.944  0.00  0.00    +0.000 A 
ATOM     23 CL   UNL     1      48.625   5.923  19.475  0.00  0.00    +0.000 Cl
ATOM     24  C   UNL     1      48.564   5.942  16.771  0.00  0.00    +0.000 A 
ENDBRANCH  17  18
ENDBRANCH  16  17
ENDBRANCH   3  16
TORSDOF 5
ENDMDL
MODEL 7
REMARK VINA RESULT:    -6.442      4.418      7.496
REMARK INTER + INTRA:          -9.139
REMARK INTER:                  -8.488
REMARK INTRA:                  -0.650
REMARK UNBOUND:                -0.813
REMARK  Name = 
REMARK  6 active torsions:
REMARK  status: ('A' for Active; 'I' for Inactive)
REMARK    1  A    between atoms: C_1  and  O_2
REMARK    2  A    between atoms: O_2  and  C_3
REMARK    3  A    between atoms: C_5  and  C_6
REMARK    4  A    between atoms: C_6  and  O_7
REMARK    5  A    between atoms: O_7  and  C_8
REMARK    6  A    between atoms: C_16  and  C_17
REMARK                            x       y       z     vdW  Elec       q    Type
REMARK                         _______ _______ _______ _____ _____    ______ ____
ROOT
ATOM      1  C   UNL     1      48.013   6.452  14.432  0.00  0.00    +0.000 A 
ATOM      2  C   UNL     1      48.358   5.735  15.551  0.00  0.00    +0.000 A 
ATOM      3  C   UNL     1      47.630   4.585  15.778  0.00  0.00    +0.000 A 
ATOM      4  N   UNL     1      46.615   4.204  14.968  0.00  0.00    +0.000 NA
ATOM      5  C   UNL     1      46.342   4.991  13.909  0.00  0.00    +0.000 A 
ATOM      6  N   UNL     1      47.020   6.105  13.601  0.00  0.00    +0.000 NA
ENDROOT
BRANCH   5   7
ATOM      7  C   UNL     1      45.239   4.606  13.010  0.00  0.00    +0.000 A 
ATOM      8  C   UNL     1      45.289   3.429  12.237  0.00  0.00    +0.000 A 
ATOM      9  C   UNL     1      44.241   3.069  11.381  0.00  0.00    +0.000 A 
ATOM     10  C   UNL     1      43.117   3.885  11.280  0.00  0.00    +0.000 A 
ATOM     11  C   UNL     1      43.049   5.045  12.036  0.00  0.00    +0.000 A 
ATOM     12  F   UNL     1      41.969   5.831  11.943  0.00  0.00    +0.000 F 
ATOM     13  C   UNL     1      44.087   5.407  12.890  0.00  0.00    +0.000 A 
ENDBRANCH   5   7
BRANCH   1  15
ATOM     14  C   UNL     1      49.547   7.457  12.981  0.00  0.00    +0.000 C 
ATOM     15  O   UNL     1      48.753   7.587  14.161  0.00  0.00    +0.000 OA
ENDBRANCH   1  15
BRANCH   3  16
ATOM     16  C   UNL     1      47.958   3.685  16.947  0.00  0.00    +0.000 C 
BRANCH  16  17
ATOM     17  O   UNL     1      49.102   4.186  17.638  0.00  0.00    +0.000 OA
BRANCH  17  18
ATOM     18  C   UNL     1      50.219   3.399  17.628  0.00  0.00    +0.000 A 
ATOM     19  C   UNL     1      50.037   2.079  17.218  0.00  0.00    +0.000 A 
ATOM     20  N   UNL     1      51.021   1.146  17.167  0.00  0.00    +0.000 NA
ATOM     21  C   UNL     1      52.252   1.554  17.545  0.00  0.00    +0.000 A 
ATOM     22  C   UNL     1      52.538   2.843  17.960  0.00  0.00    +0.000 A 
ATOM     23 CL   UNL     1      54.130   3.284  18.431  0.00  0.00    +0.000 Cl
ATOM     24  C   UNL     1      51.507   3.782  17.999  0.00  0.00    +0.000 A 
ENDBRANCH  17  18
ENDBRANCH  16  17
ENDBRANCH   3  16
TORSDOF 5
ENDMDL
MODEL 8
REMARK VINA RESULT:    -6.147      3.338      6.084
REMARK INTER + INTRA:          -8.758
REMARK INTER:                  -8.197
REMARK INTRA:                  -0.561
REMARK UNBOUND:                -0.813
REMARK  Name = 
REMARK  6 active torsions:
REMARK  status: ('A' for Active; 'I' for Inactive)
REMARK    1  A    between atoms: C_1  and  O_2
REMARK    2  A    between atoms: O_2  and  C_3
REMARK    3  A    between atoms: C_5  and  C_6
REMARK    4  A    between atoms: C_6  and  O_7
REMARK    5  A    between atoms: O_7  and  C_8
REMARK    6  A    between atoms: C_16  and  C_17
REMARK                            x       y       z     vdW  Elec       q    Type
REMARK                         _______ _______ _______ _____ _____    ______ ____
ROOT
ATOM      1  C   UNL     1      44.071   4.941  12.022  0.00  0.00    +0.000 A 
ATOM      2  C   UNL     1      45.001   4.247  12.757  0.00  0.00    +0.000 A 
ATOM      3  C   UNL     1      46.057   4.988  13.246  0.00  0.00    +0.000 A 
ATOM      4  N   UNL     1      46.188   6.310  12.990  0.00  0.00    +0.000 NA
ATOM      5  C   UNL     1      45.232   6.891  12.239  0.00  0.00    +0.000 A 
ATOM      6  N   UNL     1      44.160   6.250  11.753  0.00  0.00    +0.000 NA
ENDROOT
BRANCH   5   7
ATOM      7  C   UNL     1      45.349   8.330  11.938  0.00  0.00    +0.000 A 
ATOM      8  C   UNL     1      44.314   9.040  11.299  0.00  0.00    +0.000 A 
ATOM      9  C   UNL     1      44.431  10.405  11.010  0.00  0.00    +0.000 A 
ATOM     10  C   UNL     1      45.593  11.089  11.356  0.00  0.00    +0.000 A 
ATOM     11  C   UNL     1      46.621  10.407  11.989  0.00  0.00    +0.000 A 
ATOM     12  F   UNL     1      47.740  11.062  12.325  0.00  0.00    +0.000 F 
ATOM     13  C   UNL     1      46.510   9.050  12.279  0.00  0.00    +0.000 A 
ENDBRANCH   5   7
BRANCH   1  15
ATOM     14  C   UNL     1      43.223   2.822  11.516  0.00  0.00    +0.000 C 
ATOM     15  O   UNL     1      42.983   4.229  11.555  0.00  0.00    +0.000 OA
ENDBRANCH   1  15
BRANCH   3  16
ATOM     16  C   UNL     1      47.112   4.343  14.116  0.00  0.00    +0.000 C 
BRANCH  16  17
ATOM     17  O   UNL     1      46.574   4.081  15.413  0.00  0.00    +0.000 OA
BRANCH  17  18
ATOM     18  C   UNL     1      47.474   3.825  16.410  0.00  0.00    +0.000 A 
ATOM     19  C   UNL     1      47.329   4.575  17.576  0.00  0.00    +0.000 A 
ATOM     20  N   UNL     1      48.140   4.477  18.659  0.00  0.00    +0.000 NA
ATOM     21  C   UNL     1      49.148   3.583  18.573  0.00  0.00    +0.000 A 
ATOM     22  C   UNL     1      49.373   2.785  17.463  0.00  0.00    +0.000 A 
ATOM     23 CL   UNL     1      50.682   1.674  17.427  0.00  0.00    +0.000 Cl
ATOM     24  C   UNL     1      48.520   2.905  16.365  0.00  0.00    +0.000 A 
ENDBRANCH  17  18
ENDBRANCH  16  17
ENDBRANCH   3  16
TORSDOF 5
ENDMDL
MODEL 9
REMARK VINA RESULT:    -6.027      4.619      7.197
REMARK INTER + INTRA:          -8.602
REMARK INTER:                  -7.987
REMARK INTRA:                  -0.615
REMARK UNBOUND:                -0.813
REMARK  Name = 
REMARK  6 active torsions:
REMARK  status: ('A' for Active; 'I' for Inactive)
REMARK    1  A    between atoms: C_1  and  O_2
REMARK    2  A    between atoms: O_2  and  C_3
REMARK    3  A    between atoms: C_5  and  C_6
REMARK    4  A    between atoms: C_6  and  O_7
REMARK    5  A    between atoms: O_7  and  C_8
REMARK    6  A    between atoms: C_16  and  C_17
REMARK                            x       y       z     vdW  Elec       q    Type
REMARK                         _______ _______ _______ _____ _____    ______ ____
ROOT
ATOM      1  C   UNL     1      46.782   7.534  13.099  0.00  0.00    +0.000 A 
ATOM      2  C   UNL     1      46.170   8.745  12.887  0.00  0.00    +0.000 A 
ATOM      3  C   UNL     1      45.141   8.749  11.970  0.00  0.00    +0.000 A 
ATOM      4  N   UNL     1      44.776   7.634  11.293  0.00  0.00    +0.000 NA
ATOM      5  C   UNL     1      45.456   6.502  11.557  0.00  0.00    +0.000 A 
ATOM      6  N   UNL     1      46.446   6.408  12.455  0.00  0.00    +0.000 NA
ENDROOT
BRANCH   5   7
ATOM      7  C   UNL     1      45.086   5.272  10.832  0.00  0.00    +0.000 A 
ATOM      8  C   UNL     1      45.482   5.050   9.499  0.00  0.00    +0.000 A 
ATOM      9  C   UNL     1      45.124   3.883   8.812  0.00  0.00    +0.000 A 
ATOM     10  C   UNL     1      44.358   2.911   9.450  0.00  0.00    +0.000 A 
ATOM     11  C   UNL     1      43.962   3.112  10.764  0.00  0.00    +0.000 A 
ATOM     12  F   UNL     1      43.226   2.178  11.381  0.00  0.00    +0.000 F 
ATOM     13  C   UNL     1      44.316   4.269  11.451  0.00  0.00    +0.000 A 
ENDBRANCH   5   7
BRANCH   1  15
ATOM     14  C   UNL     1      49.048   7.112  13.487  0.00  0.00    +0.000 C 
ATOM     15  O   UNL     1      47.790   7.496  14.042  0.00  0.00    +0.000 OA
ENDBRANCH   1  15
BRANCH   3  16
ATOM     16  C   UNL     1      44.356  10.012  11.697  0.00  0.00    +0.000 C 
BRANCH  16  17
ATOM     17  O   UNL     1      43.511   9.820  10.562  0.00  0.00    +0.000 OA
BRANCH  17  18
ATOM     18  C   UNL     1      42.291  10.436  10.595  0.00  0.00    +0.000 A 
ATOM     19  C   UNL     1      42.242  11.730  10.077  0.00  0.00    +0.000 A 
ATOM     20  N   UNL     1      41.129  12.504  10.046  0.00  0.00    +0.000 NA
ATOM     21  C   UNL     1      40.005  11.958  10.560  0.00  0.00    +0.000 A 
ATOM     22  C   UNL     1      39.947  10.680  11.091  0.00  0.00    +0.000 A 
ATOM     23 CL   UNL     1      38.481  10.057  11.731  0.00  0.00    +0.000 Cl
ATOM     24  C   UNL     1      41.107   9.905  11.105  0.00  0.00    +0.000 A 
ENDBRANCH  17  18
ENDBRANCH  16  17
ENDBRANCH   3  16
TORSDOF 5
ENDMDL
