MODEL 1
REMARK VINA RESULT:    -8.256      0.000      0.000
REMARK INTER + INTRA:         -12.277
REMARK INTER:                 -11.152
REMARK INTRA:                  -1.125
REMARK UNBOUND:                -1.125
REMARK  Name = 
REMARK  6 active torsions:
REMARK  status: ('A' for Active; 'I' for Inactive)
REMARK    1  A    between atoms: C_2  and  C_4
REMARK    2  A    between atoms: C_7  and  C_8
REMARK    3  A    between atoms: C_8  and  C_9
REMARK    4  A    between atoms: C_9  and  N_10
REMARK    5  A    between atoms: N_10  and  C_11
REMARK    6  A    between atoms: C_15  and  C_16
REMARK                            x       y       z     vdW  Elec       q    Type
REMARK                         _______ _______ _______ _____ _____    ______ ____
ROOT
ATOM      1  N   UNL     1      43.597   5.634  12.370  0.00  0.00    +0.000 N 
ATOM      2  H   UNL     1      43.060   6.446  12.663  0.00  0.00    +0.000 HD
ENDROOT
BRANCH   1   3
ATOM      3  C   UNL     1      44.966   5.767  12.632  0.00  0.00    +0.000 A 
ATOM      4  C   UNL     1      45.819   6.543  11.845  0.00  0.00    +0.000 A 
ATOM      5  C   UNL     1      47.177   6.645  12.152  0.00  0.00    +0.000 A 
ATOM      6  C   UNL     1      47.699   5.955  13.248  0.00  0.00    +0.000 A 
ATOM      7  C   UNL     1      46.884   5.129  14.039  0.00  0.00    +0.000 A 
ATOM      8  C   UNL     1      45.523   5.034  13.689  0.00  0.00    +0.000 A 
BRANCH   7   9
ATOM      9  C   UNL     1      47.424   4.440  15.228  0.00  0.00    +0.000 A 
ATOM     10  C   UNL     1      47.720   5.101  16.421  0.00  0.00    +0.000 A 
ATOM     11  C   UNL     1      48.305   4.392  17.468  0.00  0.00    +0.000 A 
ATOM     12  C   UNL     1      48.574   3.040  17.307  0.00  0.00    +0.000 A 
ATOM     13  C   UNL     1      48.234   2.448  16.105  0.00  0.00    +0.000 A 
ATOM     14  N   UNL     1      47.666   3.112  15.075  0.00  0.00    +0.000 NA
ENDBRANCH   7   9
ENDBRANCH   1   3
BRANCH   1  15
ATOM     15  C   UNL     1      43.191   5.105  11.067  0.00  0.00    +0.000 C 
BRANCH  15  16
ATOM     16  C   UNL     1      43.618   3.638  10.905  0.00  0.00    +0.000 C 
BRANCH  16  20
ATOM     17  C   UNL     1      46.412   2.881   7.695  0.00  0.00    +0.000 A 
ATOM     18  C   UNL     1      46.070   4.195   8.033  0.00  0.00    +0.000 A 
ATOM     19  C   UNL     1      45.160   4.435   9.068  0.00  0.00    +0.000 A 
ATOM     20  C   UNL     1      44.577   3.369   9.771  0.00  0.00    +0.000 A 
ATOM     21  C   UNL     1      44.919   2.057   9.417  0.00  0.00    +0.000 A 
ATOM     22  C   UNL     1      45.823   1.815   8.380  0.00  0.00    +0.000 A 
BRANCH  17  24
ATOM     23  N   UNL     1      47.152   3.148   5.390  0.00  0.00    +0.000 N 
ATOM     24  C   UNL     1      47.381   2.575   6.611  0.00  0.00    +0.000 C 
ATOM     25  O   UNL     1      48.370   1.881   6.806  0.00  0.00    +0.000 OA
ATOM     26  H   UNL     1      47.886   3.031   4.703  0.00  0.00    +0.000 HD
ATOM     27  H   UNL     1      46.521   3.927   5.273  0.00  0.00    +0.000 HD
ENDBRANCH  17  24
ENDBRANCH  16  20
ENDBRANCH  15  16
ENDBRANCH   1  15
TORSDOF 6
ENDMDL
MODEL 2
REMARK VINA RESULT:    -7.917      2.173      4.309
REMARK INTER + INTRA:         -11.819
REMARK INTER:                 -10.900
REMARK INTRA:                  -0.919
REMARK UNBOUND:                -1.125
REMARK  Name = 
REMARK  6 active torsions:
REMARK  status: ('A' for Active; 'I' for Inactive)
REMARK    1  A    between atoms: C_2  and  C_4
REMARK    2  A    between atoms: C_7  and  C_8
REMARK    3  A    between atoms: C_8  and  C_9
REMARK    4  A    between atoms: C_9  and  N_10
REMARK    5  A    between atoms: N_10  and  C_11
REMARK    6  A    between atoms: C_15  and  C_16
REMARK                            x       y       z     vdW  Elec       q    Type
REMARK                         _______ _______ _______ _____ _____    ______ ____
ROOT
ATOM      1  N   UNL     1      43.476   4.626  12.754  0.00  0.00    +0.000 N 
ATOM      2  H   UNL     1      42.702   5.271  12.885  0.00  0.00    +0.000 HD
ENDROOT
BRANCH   1   3
ATOM      3  C   UNL     1      44.724   5.234  12.932  0.00  0.00    +0.000 A 
ATOM      4  C   UNL     1      45.840   4.553  13.423  0.00  0.00    +0.000 A 
ATOM      5  C   UNL     1      47.063   5.206  13.578  0.00  0.00    +0.000 A 
ATOM      6  C   UNL     1      47.179   6.559  13.255  0.00  0.00    +0.000 A 
ATOM      7  C   UNL     1      46.071   7.293  12.800  0.00  0.00    +0.000 A 
ATOM      8  C   UNL     1      44.847   6.607  12.675  0.00  0.00    +0.000 A 
BRANCH   7   9
ATOM      9  C   UNL     1      46.204   8.711  12.410  0.00  0.00    +0.000 A 
ATOM     10  C   UNL     1      45.106   9.539  12.174  0.00  0.00    +0.000 A 
ATOM     11  C   UNL     1      45.317  10.842  11.728  0.00  0.00    +0.000 A 
ATOM     12  C   UNL     1      46.615  11.293  11.536  0.00  0.00    +0.000 A 
ATOM     13  C   UNL     1      47.654  10.422  11.811  0.00  0.00    +0.000 A 
ATOM     14  N   UNL     1      47.477   9.156  12.244  0.00  0.00    +0.000 NA
ENDBRANCH   7   9
ENDBRANCH   1   3
BRANCH   1  15
ATOM     15  C   UNL     1      43.302   3.731  11.609  0.00  0.00    +0.000 C 
BRANCH  15  16
ATOM     16  C   UNL     1      43.622   4.449  10.288  0.00  0.00    +0.000 C 
BRANCH  16  20
ATOM     17  C   UNL     1      46.434   2.418   7.709  0.00  0.00    +0.000 A 
ATOM     18  C   UNL     1      45.663   1.688   8.621  0.00  0.00    +0.000 A 
ATOM     19  C   UNL     1      44.760   2.350   9.458  0.00  0.00    +0.000 A 
ATOM     20  C   UNL     1      44.620   3.745   9.400  0.00  0.00    +0.000 A 
ATOM     21  C   UNL     1      45.404   4.467   8.491  0.00  0.00    +0.000 A 
ATOM     22  C   UNL     1      46.311   3.809   7.658  0.00  0.00    +0.000 A 
BRANCH  17  24
ATOM     23  N   UNL     1      48.519   2.467   6.453  0.00  0.00    +0.000 N 
ATOM     24  C   UNL     1      47.399   1.760   6.791  0.00  0.00    +0.000 C 
ATOM     25  O   UNL     1      47.231   0.616   6.388  0.00  0.00    +0.000 OA
ATOM     26  H   UNL     1      49.222   1.958   5.932  0.00  0.00    +0.000 HD
ATOM     27  H   UNL     1      48.819   3.278   6.974  0.00  0.00    +0.000 HD
ENDBRANCH  17  24
ENDBRANCH  16  20
ENDBRANCH  15  16
ENDBRANCH   1  15
TORSDOF 6
ENDMDL
MODEL 3
REMARK VINA RESULT:    -7.755      2.499      7.409
REMARK INTER + INTRA:         -11.600
REMARK INTER:                 -10.458
REMARK INTRA:                  -1.142
REMARK UNBOUND:                -1.125
REMARK  Name = 
REMARK  6 active torsions:
REMARK  status: ('A' for Active; 'I' for Inactive)
REMARK    1  A    between atoms: C_2  and  C_4
REMARK    2  A    between atoms: C_7  and  C_8
REMARK    3  A    between atoms: C_8  and  C_9
REMARK    4  A    between atoms: C_9  and  N_10
REMARK    5  A    between atoms: N_10  and  C_11
REMARK    6  A    between atoms: C_15  and  C_16
REMARK                            x       y       z     vdW  Elec       q    Type
REMARK                         _______ _______ _______ _____ _____    ______ ____
ROOT
ATOM      1  N   UNL     1      44.456   6.571  10.668  0.00  0.00    +0.000 N 
ATOM      2  H   UNL     1      43.572   7.032  10.473  0.00  0.00    +0.000 HD
ENDROOT
BRANCH   1   3
ATOM      3  C   UNL     1      44.398   5.186  10.476  0.00  0.00    +0.000 A 
ATOM      4  C   UNL     1      43.615   4.340  11.265  0.00  0.00    +0.000 A 
ATOM      5  C   UNL     1      43.590   2.965  11.028  0.00  0.00    +0.000 A 
ATOM      6  C   UNL     1      44.364   2.418  10.003  0.00  0.00    +0.000 A 
ATOM      7  C   UNL     1      45.198   3.227   9.215  0.00  0.00    +0.000 A 
ATOM      8  C   UNL     1      45.215   4.607   9.494  0.00  0.00    +0.000 A 
BRANCH   7   9
ATOM      9  C   UNL     1      45.979   2.657   8.097  0.00  0.00    +0.000 A 
ATOM     10  C   UNL     1      46.289   3.377   6.943  0.00  0.00    +0.000 A 
ATOM     11  C   UNL     1      46.956   2.740   5.900  0.00  0.00    +0.000 A 
ATOM     12  C   UNL     1      47.308   1.404   6.032  0.00  0.00    +0.000 A 
ATOM     13  C   UNL     1      46.986   0.761   7.214  0.00  0.00    +0.000 A 
ATOM     14  N   UNL     1      46.340   1.355   8.240  0.00  0.00    +0.000 NA
ENDBRANCH   7   9
ENDBRANCH   1   3
BRANCH   1  15
ATOM     15  C   UNL     1      45.125   7.074  11.869  0.00  0.00    +0.000 C 
BRANCH  15  16
ATOM     16  C   UNL     1      46.594   6.626  11.917  0.00  0.00    +0.000 C 
BRANCH  16  20
ATOM     17  C   UNL     1      47.676   4.424  15.477  0.00  0.00    +0.000 A 
ATOM     18  C   UNL     1      48.119   5.739  15.303  0.00  0.00    +0.000 A 
ATOM     19  C   UNL     1      47.773   6.446  14.146  0.00  0.00    +0.000 A 
ATOM     20  C   UNL     1      46.987   5.847  13.150  0.00  0.00    +0.000 A 
ATOM     21  C   UNL     1      46.557   4.525  13.330  0.00  0.00    +0.000 A 
ATOM     22  C   UNL     1      46.906   3.816  14.480  0.00  0.00    +0.000 A 
BRANCH  17  24
ATOM     23  N   UNL     1      46.962   3.107  17.396  0.00  0.00    +0.000 N 
ATOM     24  C   UNL     1      48.008   3.636  16.692  0.00  0.00    +0.000 C 
ATOM     25  O   UNL     1      49.166   3.424  17.028  0.00  0.00    +0.000 OA
ATOM     26  H   UNL     1      47.211   2.472  18.144  0.00  0.00    +0.000 HD
ATOM     27  H   UNL     1      46.036   3.027  17.003  0.00  0.00    +0.000 HD
ENDBRANCH  17  24
ENDBRANCH  16  20
ENDBRANCH  15  16
ENDBRANCH   1  15
TORSDOF 6
ENDMDL
MODEL 4
REMARK VINA RESULT:    -7.234      2.606      4.862
REMARK INTER + INTRA:         -10.897
REMARK INTER:                  -9.916
REMARK INTRA:                  -0.981
REMARK UNBOUND:                -1.125
REMARK  Name = 
REMARK  6 active torsions:
REMARK  status: ('A' for Active; 'I' for Inactive)
REMARK    1  A    between atoms: C_2  and  C_4
REMARK    2  A    between atoms: C_7  and  C_8
REMARK    3  A    between atoms: C_8  and  C_9
REMARK    4  A    between atoms: C_9  and  N_10
REMARK    5  A    between atoms: N_10  and  C_11
REMARK    6  A    between atoms: C_15  and  C_16
REMARK                            x       y       z     vdW  Elec       q    Type
REMARK                         _______ _______ _______ _____ _____    ______ ____
ROOT
ATOM      1  N   UNL     1      44.267   4.850  12.669  0.00  0.00    +0.000 N 
ATOM      2  H   UNL     1      43.348   5.210  12.429  0.00  0.00    +0.000 HD
ENDROOT
BRANCH   1   3
ATOM      3  C   UNL     1      45.278   5.807  12.525  0.00  0.00    +0.000 A 
ATOM      4  C   UNL     1      46.637   5.502  12.635  0.00  0.00    +0.000 A 
ATOM      5  C   UNL     1      47.605   6.495  12.479  0.00  0.00    +0.000 A 
ATOM      6  C   UNL     1      47.220   7.813  12.225  0.00  0.00    +0.000 A 
ATOM      7  C   UNL     1      45.865   8.170  12.150  0.00  0.00    +0.000 A 
ATOM      8  C   UNL     1      44.914   7.147  12.332  0.00  0.00    +0.000 A 
BRANCH   7   9
ATOM      9  C   UNL     1      45.457   9.553  11.830  0.00  0.00    +0.000 A 
ATOM     10  C   UNL     1      44.209   9.872  11.293  0.00  0.00    +0.000 A 
ATOM     11  C   UNL     1      43.935  11.192  10.942  0.00  0.00    +0.000 A 
ATOM     12  C   UNL     1      44.904  12.165  11.140  0.00  0.00    +0.000 A 
ATOM     13  C   UNL     1      46.110  11.778  11.696  0.00  0.00    +0.000 A 
ATOM     14  N   UNL     1      46.402  10.506  12.046  0.00  0.00    +0.000 NA
ENDBRANCH   7   9
ENDBRANCH   1   3
BRANCH   1  15
ATOM     15  C   UNL     1      44.516   3.501  12.157  0.00  0.00    +0.000 C 
BRANCH  15  16
ATOM     16  C   UNL     1      43.787   3.268  10.825  0.00  0.00    +0.000 C 
BRANCH  16  20
ATOM     17  C   UNL     1      46.401   2.899   7.402  0.00  0.00    +0.000 A 
ATOM     18  C   UNL     1      45.995   4.163   7.843  0.00  0.00    +0.000 A 
ATOM     19  C   UNL     1      45.144   4.278   8.946  0.00  0.00    +0.000 A 
ATOM     20  C   UNL     1      44.683   3.134   9.617  0.00  0.00    +0.000 A 
ATOM     21  C   UNL     1      45.088   1.873   9.161  0.00  0.00    +0.000 A 
ATOM     22  C   UNL     1      45.933   1.755   8.056  0.00  0.00    +0.000 A 
BRANCH  17  24
ATOM     23  N   UNL     1      48.641   2.548   6.514  0.00  0.00    +0.000 N 
ATOM     24  C   UNL     1      47.312   2.726   6.242  0.00  0.00    +0.000 C 
ATOM     25  O   UNL     1      46.896   2.693   5.091  0.00  0.00    +0.000 OA
ATOM     26  H   UNL     1      49.225   2.307   5.723  0.00  0.00    +0.000 HD
ATOM     27  H   UNL     1      48.971   2.296   7.434  0.00  0.00    +0.000 HD
ENDBRANCH  17  24
ENDBRANCH  16  20
ENDBRANCH  15  16
ENDBRANCH   1  15
TORSDOF 6
ENDMDL
MODEL 5
REMARK VINA RESULT:    -7.048      1.656      1.973
REMARK INTER + INTRA:         -10.645
REMARK INTER:                  -9.959
REMARK INTRA:                  -0.686
REMARK UNBOUND:                -1.125
REMARK  Name = 
REMARK  6 active torsions:
REMARK  status: ('A' for Active; 'I' for Inactive)
REMARK    1  A    between atoms: C_2  and  C_4
REMARK    2  A    between atoms: C_7  and  C_8
REMARK    3  A    between atoms: C_8  and  C_9
REMARK    4  A    between atoms: C_9  and  N_10
REMARK    5  A    between atoms: N_10  and  C_11
REMARK    6  A    between atoms: C_15  and  C_16
REMARK                            x       y       z     vdW  Elec       q    Type
REMARK                         _______ _______ _______ _____ _____    ______ ____
ROOT
ATOM      1  N   UNL     1      45.444   3.869  12.085  0.00  0.00    +0.000 N 
ATOM      2  H   UNL     1      45.812   3.109  12.652  0.00  0.00    +0.000 HD
ENDROOT
BRANCH   1   3
ATOM      3  C   UNL     1      45.977   5.114  12.439  0.00  0.00    +0.000 A 
ATOM      4  C   UNL     1      45.570   6.312  11.847  0.00  0.00    +0.000 A 
ATOM      5  C   UNL     1      46.132   7.528  12.240  0.00  0.00    +0.000 A 
ATOM      6  C   UNL     1      47.122   7.555  13.223  0.00  0.00    +0.000 A 
ATOM      7  C   UNL     1      47.590   6.371  13.813  0.00  0.00    +0.000 A 
ATOM      8  C   UNL     1      47.016   5.160  13.379  0.00  0.00    +0.000 A 
BRANCH   7   9
ATOM      9  C   UNL     1      48.601   6.402  14.890  0.00  0.00    +0.000 A 
ATOM     10  C   UNL     1      49.707   7.253  14.869  0.00  0.00    +0.000 A 
ATOM     11  C   UNL     1      50.658   7.161  15.882  0.00  0.00    +0.000 A 
ATOM     12  C   UNL     1      50.482   6.232  16.898  0.00  0.00    +0.000 A 
ATOM     13  C   UNL     1      49.351   5.437  16.864  0.00  0.00    +0.000 A 
ATOM     14  N   UNL     1      48.414   5.506  15.893  0.00  0.00    +0.000 NA
ENDBRANCH   7   9
ENDBRANCH   1   3
BRANCH   1  15
ATOM     15  C   UNL     1      44.003   3.777  11.850  0.00  0.00    +0.000 C 
BRANCH  15  16
ATOM     16  C   UNL     1      43.666   3.995  10.367  0.00  0.00    +0.000 C 
BRANCH  16  20
ATOM     17  C   UNL     1      46.578   2.374   7.613  0.00  0.00    +0.000 A 
ATOM     18  C   UNL     1      46.376   3.756   7.689  0.00  0.00    +0.000 A 
ATOM     19  C   UNL     1      45.428   4.276   8.576  0.00  0.00    +0.000 A 
ATOM     20  C   UNL     1      44.668   3.424   9.391  0.00  0.00    +0.000 A 
ATOM     21  C   UNL     1      44.870   2.040   9.300  0.00  0.00    +0.000 A 
ATOM     22  C   UNL     1      45.812   1.519   8.410  0.00  0.00    +0.000 A 
BRANCH  17  24
ATOM     23  N   UNL     1      47.191   0.677   5.978  0.00  0.00    +0.000 N 
ATOM     24  C   UNL     1      47.580   1.775   6.695  0.00  0.00    +0.000 C 
ATOM     25  O   UNL     1      48.692   2.263   6.543  0.00  0.00    +0.000 OA
ATOM     26  H   UNL     1      47.840   0.360   5.268  0.00  0.00    +0.000 HD
ATOM     27  H   UNL     1      46.220   0.423   5.870  0.00  0.00    +0.000 HD
ENDBRANCH  17  24
ENDBRANCH  16  20
ENDBRANCH  15  16
ENDBRANCH   1  15
TORSDOF 6
ENDMDL
MODEL 6
REMARK VINA RESULT:    -6.883      2.904      7.073
REMARK INTER + INTRA:         -10.423
REMARK INTER:                  -9.308
REMARK INTRA:                  -1.115
REMARK UNBOUND:                -1.125
REMARK  Name = 
REMARK  6 active torsions:
REMARK  status: ('A' for Active; 'I' for Inactive)
REMARK    1  A    between atoms: C_2  and  C_4
REMARK    2  A    between atoms: C_7  and  C_8
REMARK    3  A    between atoms: C_8  and  C_9
REMARK    4  A    between atoms: C_9  and  N_10
REMARK    5  A    between atoms: N_10  and  C_11
REMARK    6  A    between atoms: C_15  and  C_16
REMARK                            x       y       z     vdW  Elec       q    Type
REMARK                         _______ _______ _______ _____ _____    ______ ____
ROOT
ATOM      1  N   UNL     1      45.110   3.089  12.863  0.00  0.00    +0.000 N 
ATOM      2  H   UNL     1      44.767   2.155  13.072  0.00  0.00    +0.000 HD
ENDROOT
BRANCH   1   3
ATOM      3  C   UNL     1      44.803   3.499  11.561  0.00  0.00    +0.000 A 
ATOM      4  C   UNL     1      43.833   4.463  11.274  0.00  0.00    +0.000 A 
ATOM      5  C   UNL     1      43.568   4.839   9.957  0.00  0.00    +0.000 A 
ATOM      6  C   UNL     1      44.266   4.241   8.906  0.00  0.00    +0.000 A 
ATOM      7  C   UNL     1      45.218   3.238   9.146  0.00  0.00    +0.000 A 
ATOM      8  C   UNL     1      45.446   2.868  10.486  0.00  0.00    +0.000 A 
BRANCH   7   9
ATOM      9  C   UNL     1      45.994   2.641   8.040  0.00  0.00    +0.000 A 
ATOM     10  C   UNL     1      46.280   3.326   6.858  0.00  0.00    +0.000 A 
ATOM     11  C   UNL     1      46.945   2.662   5.829  0.00  0.00    +0.000 A 
ATOM     12  C   UNL     1      47.317   1.336   6.004  0.00  0.00    +0.000 A 
ATOM     13  C   UNL     1      47.018   0.730   7.210  0.00  0.00    +0.000 A 
ATOM     14  N   UNL     1      46.375   1.350   8.223  0.00  0.00    +0.000 NA
ENDBRANCH   7   9
ENDBRANCH   1   3
BRANCH   1  15
ATOM     15  C   UNL     1      46.461   3.340  13.366  0.00  0.00    +0.000 C 
BRANCH  15  16
ATOM     16  C   UNL     1      46.516   4.635  14.191  0.00  0.00    +0.000 C 
BRANCH  16  20
ATOM     17  C   UNL     1      48.630   7.894  12.295  0.00  0.00    +0.000 A 
ATOM     18  C   UNL     1      48.922   7.542  13.617  0.00  0.00    +0.000 A 
ATOM     19  C   UNL     1      48.231   6.491  14.229  0.00  0.00    +0.000 A 
ATOM     20  C   UNL     1      47.238   5.786  13.533  0.00  0.00    +0.000 A 
ATOM     21  C   UNL     1      46.946   6.153  12.212  0.00  0.00    +0.000 A 
ATOM     22  C   UNL     1      47.631   7.206  11.601  0.00  0.00    +0.000 A 
BRANCH  17  24
ATOM     23  N   UNL     1      50.682   8.824  11.371  0.00  0.00    +0.000 N 
ATOM     24  C   UNL     1      49.344   8.994  11.598  0.00  0.00    +0.000 C 
ATOM     25  O   UNL     1      48.760   9.992  11.197  0.00  0.00    +0.000 OA
ATOM     26  H   UNL     1      51.123   9.523  10.787  0.00  0.00    +0.000 HD
ATOM     27  H   UNL     1      51.126   7.920  11.435  0.00  0.00    +0.000 HD
ENDBRANCH  17  24
ENDBRANCH  16  20
ENDBRANCH  15  16
ENDBRANCH   1  15
TORSDOF 6
ENDMDL
MODEL 7
REMARK VINA RESULT:    -6.686      3.552      7.464
REMARK INTER + INTRA:         -10.156
REMARK INTER:                  -9.310
REMARK INTRA:                  -0.846
REMARK UNBOUND:                -1.125
REMARK  Name = 
REMARK  6 active torsions:
REMARK  status: ('A' for Active; 'I' for Inactive)
REMARK    1  A    between atoms: C_2  and  C_4
REMARK    2  A    between atoms: C_7  and  C_8
REMARK    3  A    between atoms: C_8  and  C_9
REMARK    4  A    between atoms: C_9  and  N_10
REMARK    5  A    between atoms: N_10  and  C_11
REMARK    6  A    between atoms: C_15  and  C_16
REMARK                            x       y       z     vdW  Elec       q    Type
REMARK                         _______ _______ _______ _____ _____    ______ ____
ROOT
ATOM      1  N   UNL     1      44.375   6.531  11.187  0.00  0.00    +0.000 N 
ATOM      2  H   UNL     1      43.537   7.044  10.930  0.00  0.00    +0.000 HD
ENDROOT
BRANCH   1   3
ATOM      3  C   UNL     1      44.294   5.170  10.871  0.00  0.00    +0.000 A 
ATOM      4  C   UNL     1      43.511   4.266  11.594  0.00  0.00    +0.000 A 
ATOM      5  C   UNL     1      43.462   2.918  11.234  0.00  0.00    +0.000 A 
ATOM      6  C   UNL     1      44.211   2.457  10.150  0.00  0.00    +0.000 A 
ATOM      7  C   UNL     1      45.044   3.323   9.424  0.00  0.00    +0.000 A 
ATOM      8  C   UNL     1      45.085   4.672   9.826  0.00  0.00    +0.000 A 
BRANCH   7   9
ATOM      9  C   UNL     1      45.798   2.847   8.246  0.00  0.00    +0.000 A 
ATOM     10  C   UNL     1      46.322   1.557   8.150  0.00  0.00    +0.000 A 
ATOM     11  C   UNL     1      47.092   1.214   7.041  0.00  0.00    +0.000 A 
ATOM     12  C   UNL     1      47.316   2.159   6.050  0.00  0.00    +0.000 A 
ATOM     13  C   UNL     1      46.746   3.409   6.203  0.00  0.00    +0.000 A 
ATOM     14  N   UNL     1      45.996   3.768   7.267  0.00  0.00    +0.000 NA
ENDBRANCH   7   9
ENDBRANCH   1   3
BRANCH   1  15
ATOM     15  C   UNL     1      44.911   6.905  12.496  0.00  0.00    +0.000 C 
BRANCH  15  16
ATOM     16  C   UNL     1      46.402   6.552  12.609  0.00  0.00    +0.000 C 
BRANCH  16  20
ATOM     17  C   UNL     1      49.119   9.739  11.534  0.00  0.00    +0.000 A 
ATOM     18  C   UNL     1      49.568   8.414  11.565  0.00  0.00    +0.000 A 
ATOM     19  C   UNL     1      48.687   7.387  11.920  0.00  0.00    +0.000 A 
ATOM     20  C   UNL     1      47.354   7.670  12.254  0.00  0.00    +0.000 A 
ATOM     21  C   UNL     1      46.918   9.001  12.229  0.00  0.00    +0.000 A 
ATOM     22  C   UNL     1      47.796  10.029  11.880  0.00  0.00    +0.000 A 
BRANCH  17  24
ATOM     23  N   UNL     1      49.493  12.126  11.231  0.00  0.00    +0.000 N 
ATOM     24  C   UNL     1      50.012  10.863  11.153  0.00  0.00    +0.000 C 
ATOM     25  O   UNL     1      51.179  10.680  10.828  0.00  0.00    +0.000 OA
ATOM     26  H   UNL     1      50.151  12.882  11.090  0.00  0.00    +0.000 HD
ATOM     27  H   UNL     1      48.651  12.328  11.748  0.00  0.00    +0.000 HD
ENDBRANCH  17  24
ENDBRANCH  16  20
ENDBRANCH  15  16
ENDBRANCH   1  15
TORSDOF 6
ENDMDL
MODEL 8
REMARK VINA RESULT:    -6.597      2.826      5.108
REMARK INTER + INTRA:         -10.037
REMARK INTER:                  -9.221
REMARK INTRA:                  -0.815
REMARK UNBOUND:                -1.125
REMARK  Name = 
REMARK  6 active torsions:
REMARK  status: ('A' for Active; 'I' for Inactive)
REMARK    1  A    between atoms: C_2  and  C_4
REMARK    2  A    between atoms: C_7  and  C_8
REMARK    3  A    between atoms: C_8  and  C_9
REMARK    4  A    between atoms: C_9  and  N_10
REMARK    5  A    between atoms: N_10  and  C_11
REMARK    6  A    between atoms: C_15  and  C_16
REMARK                            x       y       z     vdW  Elec       q    Type
REMARK                         _______ _______ _______ _____ _____    ______ ____
ROOT
ATOM      1  N   UNL     1      48.110   6.370  15.897  0.00  0.00    +0.000 N 
ATOM      2  H   UNL     1      48.490   7.110  16.481  0.00  0.00    +0.000 HD
ENDROOT
BRANCH   1   3
ATOM      3  C   UNL     1      48.191   5.109  16.499  0.00  0.00    +0.000 A 
ATOM      4  C   UNL     1      47.067   4.364  16.861  0.00  0.00    +0.000 A 
ATOM      5  C   UNL     1      47.204   3.109  17.455  0.00  0.00    +0.000 A 
ATOM      6  C   UNL     1      48.475   2.591  17.708  0.00  0.00    +0.000 A 
ATOM      7  C   UNL     1      49.631   3.325  17.401  0.00  0.00    +0.000 A 
ATOM      8  C   UNL     1      49.456   4.596  16.820  0.00  0.00    +0.000 A 
BRANCH   7   9
ATOM      9  C   UNL     1      50.977   2.757  17.621  0.00  0.00    +0.000 A 
ATOM     10  C   UNL     1      52.072   3.529  18.011  0.00  0.00    +0.000 A 
ATOM     11  C   UNL     1      53.326   2.930  18.115  0.00  0.00    +0.000 A 
ATOM     12  C   UNL     1      53.459   1.577  17.838  0.00  0.00    +0.000 A 
ATOM     13  C   UNL     1      52.325   0.872  17.479  0.00  0.00    +0.000 A 
ATOM     14  N   UNL     1      51.099   1.427  17.370  0.00  0.00    +0.000 NA
ENDBRANCH   7   9
ENDBRANCH   1   3
BRANCH   1  15
ATOM     15  C   UNL     1      48.487   6.487  14.488  0.00  0.00    +0.000 C 
BRANCH  15  16
ATOM     16  C   UNL     1      47.429   7.268  13.692  0.00  0.00    +0.000 C 
BRANCH  16  20
ATOM     17  C   UNL     1      45.014   4.840  11.053  0.00  0.00    +0.000 A 
ATOM     18  C   UNL     1      45.780   5.890  10.536  0.00  0.00    +0.000 A 
ATOM     19  C   UNL     1      46.555   6.678  11.394  0.00  0.00    +0.000 A 
ATOM     20  C   UNL     1      46.568   6.431  12.775  0.00  0.00    +0.000 A 
ATOM     21  C   UNL     1      45.790   5.383  13.284  0.00  0.00    +0.000 A 
ATOM     22  C   UNL     1      45.011   4.599  12.430  0.00  0.00    +0.000 A 
BRANCH  17  24
ATOM     23  N   UNL     1      44.107   4.304   8.858  0.00  0.00    +0.000 N 
ATOM     24  C   UNL     1      44.184   3.969  10.182  0.00  0.00    +0.000 C 
ATOM     25  O   UNL     1      43.629   2.966  10.611  0.00  0.00    +0.000 OA
ATOM     26  H   UNL     1      43.643   3.632   8.260  0.00  0.00    +0.000 HD
ATOM     27  H   UNL     1      44.759   4.943   8.427  0.00  0.00    +0.000 HD
ENDBRANCH  17  24
ENDBRANCH  16  20
ENDBRANCH  15  16
ENDBRANCH   1  15
TORSDOF 6
ENDMDL
MODEL 9
REMARK VINA RESULT:    -6.498      2.954      7.716
REMARK INTER + INTRA:          -9.902
REMARK INTER:                  -8.748
REMARK INTRA:                  -1.154
REMARK UNBOUND:                -1.125
REMARK  Name = 
REMARK  6 active torsions:
REMARK  status: ('A' for Active; 'I' for Inactive)
REMARK    1  A    between atoms: C_2  and  C_4
REMARK    2  A    between atoms: C_7  and  C_8
REMARK    3  A    between atoms: C_8  and  C_9
REMARK    4  A    between atoms: C_9  and  N_10
REMARK    5  A    between atoms: N_10  and  C_11
REMARK    6  A    between atoms: C_15  and  C_16
REMARK                            x       y       z     vdW  Elec       q    Type
REMARK                         _______ _______ _______ _____ _____    ______ ____
ROOT
ATOM      1  N   UNL     1      47.953   8.054  11.982  0.00  0.00    +0.000 N 
ATOM      2  H   UNL     1      47.853   9.034  12.230  0.00  0.00    +0.000 HD
ENDROOT
BRANCH   1   3
ATOM      3  C   UNL     1      46.723   7.396  11.869  0.00  0.00    +0.000 A 
ATOM      4  C   UNL     1      45.604   7.735  12.634  0.00  0.00    +0.000 A 
ATOM      5  C   UNL     1      44.399   7.049  12.478  0.00  0.00    +0.000 A 
ATOM      6  C   UNL     1      44.305   6.002  11.560  0.00  0.00    +0.000 A 
ATOM      7  C   UNL     1      45.416   5.601  10.802  0.00  0.00    +0.000 A 
ATOM      8  C   UNL     1      46.622   6.302  10.998  0.00  0.00    +0.000 A 
BRANCH   7   9
ATOM      9  C   UNL     1      45.304   4.527   9.793  0.00  0.00    +0.000 A 
ATOM     10  C   UNL     1      44.720   3.289  10.064  0.00  0.00    +0.000 A 
ATOM     11  C   UNL     1      44.730   2.301   9.082  0.00  0.00    +0.000 A 
ATOM     12  C   UNL     1      45.312   2.570   7.851  0.00  0.00    +0.000 A 
ATOM     13  C   UNL     1      45.852   3.827   7.648  0.00  0.00    +0.000 A 
ATOM     14  N   UNL     1      45.856   4.802   8.583  0.00  0.00    +0.000 NA
ENDBRANCH   7   9
ENDBRANCH   1   3
BRANCH   1  15
ATOM     15  C   UNL     1      49.033   7.378  12.701  0.00  0.00    +0.000 C 
BRANCH  15  16
ATOM     16  C   UNL     1      49.006   7.723  14.199  0.00  0.00    +0.000 C 
BRANCH  16  20
ATOM     17  C   UNL     1      47.978   4.471  16.855  0.00  0.00    +0.000 A 
ATOM     18  C   UNL     1      48.926   5.423  17.245  0.00  0.00    +0.000 A 
ATOM     19  C   UNL     1      49.261   6.470  16.379  0.00  0.00    +0.000 A 
ATOM     20  C   UNL     1      48.660   6.574  15.116  0.00  0.00    +0.000 A 
ATOM     21  C   UNL     1      47.719   5.609  14.732  0.00  0.00    +0.000 A 
ATOM     22  C   UNL     1      47.388   4.560  15.591  0.00  0.00    +0.000 A 
BRANCH  17  24
ATOM     23  N   UNL     1      48.366   3.111  18.837  0.00  0.00    +0.000 N 
ATOM     24  C   UNL     1      47.581   3.348  17.743  0.00  0.00    +0.000 C 
ATOM     25  O   UNL     1      46.570   2.688  17.538  0.00  0.00    +0.000 OA
ATOM     26  H   UNL     1      48.011   2.428  19.495  0.00  0.00    +0.000 HD
ATOM     27  H   UNL     1      49.027   3.792  19.181  0.00  0.00    +0.000 HD
ENDBRANCH  17  24
ENDBRANCH  16  20
ENDBRANCH  15  16
ENDBRANCH   1  15
TORSDOF 6
ENDMDL
