MODEL 1
REMARK VINA RESULT:    -7.082      0.000      0.000
REMARK INTER + INTRA:          -9.823
REMARK INTER:                  -9.151
REMARK INTRA:                  -0.671
REMARK UNBOUND:                -0.671
REMARK  Name = 
REMARK  6 active torsions:
REMARK  status: ('A' for Active; 'I' for Inactive)
REMARK    1  A    between atoms: C_1  and  O_2
REMARK    2  A    between atoms: O_2  and  C_3
REMARK    3  A    between atoms: C_6  and  O_7
REMARK    4  A    between atoms: O_7  and  C_8
REMARK    5  A    between atoms: C_8  and  C_9
REMARK    6  A    between atoms: C_13  and  C_14
REMARK                            x       y       z     vdW  Elec       q    Type
REMARK                         _______ _______ _______ _____ _____    ______ ____
ROOT
ATOM      1  C   UNL     1      45.013   4.825  12.207  0.00  0.00    +0.000 A 
ATOM      2  C   UNL     1      45.363   3.703  12.958  0.00  0.00    +0.000 A 
ATOM      3  C   UNL     1      46.576   3.673  13.634  0.00  0.00    +0.000 A 
ATOM      4  C   UNL     1      47.431   4.762  13.536  0.00  0.00    +0.000 A 
ATOM      5  C   UNL     1      47.047   5.855  12.765  0.00  0.00    +0.000 A 
ATOM      6  N   UNL     1      45.854   5.898  12.129  0.00  0.00    +0.000 NA
ENDROOT
BRANCH   5   7
ATOM      7  C   UNL     1      48.025   6.997  12.539  0.00  0.00    +0.000 C 
ATOM      8  C   UNL     1      48.946   7.259  13.740  0.00  0.00    +0.000 C 
ATOM      9  C   UNL     1      48.355   8.215  14.773  0.00  0.00    +0.000 C 
ATOM     10  N   UNL     1      47.907   9.462  14.151  0.00  0.00    +0.000 NA
ATOM     11  C   UNL     1      46.830   9.176  13.204  0.00  0.00    +0.000 C 
ATOM     12  C   UNL     1      47.301   8.272  12.066  0.00  0.00    +0.000 C 
ATOM     13  H   UNL     1      48.687   9.897  13.659  0.00  0.00    +0.000 HD
ENDBRANCH   5   7
BRANCH   1  14
ATOM     14  C   UNL     1      43.721   4.850  11.398  0.00  0.00    +0.000 C 
ATOM     15  C   UNL     1      42.452   5.289  12.127  0.00  0.00    +0.000 C 
ATOM     16  C   UNL     1      43.060   6.182  11.099  0.00  0.00    +0.000 C 
BRANCH  14  17
ATOM     17  O   UNL     1      43.449   3.708  10.554  0.00  0.00    +0.000 OA
BRANCH  17  21
ATOM     18  C   UNL     1      46.231   3.004   7.682  0.00  0.00    +0.000 A 
ATOM     19  C   UNL     1      45.773   1.953   8.474  0.00  0.00    +0.000 A 
ATOM     20  N   UNL     1      44.829   2.105   9.448  0.00  0.00    +0.000 NA
ATOM     21  C   UNL     1      44.369   3.369   9.583  0.00  0.00    +0.000 A 
ATOM     22  C   UNL     1      44.820   4.414   8.784  0.00  0.00    +0.000 A 
ATOM     23  N   UNL     1      45.759   4.261   7.819  0.00  0.00    +0.000 NA
BRANCH  18  25
ATOM     24  C   UNL     1      47.697   1.395   6.833  0.00  0.00    +0.000 C 
ATOM     25  O   UNL     1      47.208   2.733   6.749  0.00  0.00    +0.000 OA
ENDBRANCH  18  25
ENDBRANCH  17  21
ENDBRANCH  14  17
ENDBRANCH   1  14
TORSDOF 5
ENDMDL
MODEL 2
REMARK VINA RESULT:    -6.383      1.639      2.721
REMARK INTER + INTRA:          -8.920
REMARK INTER:                  -8.414
REMARK INTRA:                  -0.506
REMARK UNBOUND:                -0.671
REMARK  Name = 
REMARK  6 active torsions:
REMARK  status: ('A' for Active; 'I' for Inactive)
REMARK    1  A    between atoms: C_1  and  O_2
REMARK    2  A    between atoms: O_2  and  C_3
REMARK    3  A    between atoms: C_6  and  O_7
REMARK    4  A    between atoms: O_7  and  C_8
REMARK    5  A    between atoms: C_8  and  C_9
REMARK    6  A    between atoms: C_13  and  C_14
REMARK                            x       y       z     vdW  Elec       q    Type
REMARK                         _______ _______ _______ _____ _____    ______ ____
ROOT
ATOM      1  C   UNL     1      44.530   7.046  11.750  0.00  0.00    +0.000 A 
ATOM      2  C   UNL     1      43.792   8.087  11.187  0.00  0.00    +0.000 A 
ATOM      3  C   UNL     1      44.294   9.382  11.208  0.00  0.00    +0.000 A 
ATOM      4  C   UNL     1      45.523   9.621  11.808  0.00  0.00    +0.000 A 
ATOM      5  C   UNL     1      46.219   8.554  12.371  0.00  0.00    +0.000 A 
ATOM      6  N   UNL     1      45.745   7.288  12.326  0.00  0.00    +0.000 NA
ENDROOT
BRANCH   5   7
ATOM      7  C   UNL     1      47.499   8.816  13.147  0.00  0.00    +0.000 C 
ATOM      8  C   UNL     1      48.632   9.389  12.281  0.00  0.00    +0.000 C 
ATOM      9  C   UNL     1      49.484   8.321  11.597  0.00  0.00    +0.000 C 
ATOM     10  N   UNL     1      49.981   7.338  12.561  0.00  0.00    +0.000 NA
ATOM     11  C   UNL     1      48.852   6.629  13.162  0.00  0.00    +0.000 C 
ATOM     12  C   UNL     1      47.939   7.574  13.942  0.00  0.00    +0.000 C 
ATOM     13  H   UNL     1      50.512   7.814  13.290  0.00  0.00    +0.000 HD
ENDBRANCH   5   7
BRANCH   1  14
ATOM     14  C   UNL     1      43.965   5.631  11.805  0.00  0.00    +0.000 C 
ATOM     15  C   UNL     1      42.985   5.317  12.934  0.00  0.00    +0.000 C 
ATOM     16  C   UNL     1      42.490   5.412  11.531  0.00  0.00    +0.000 C 
BRANCH  14  17
ATOM     17  O   UNL     1      44.899   4.541  11.629  0.00  0.00    +0.000 OA
BRANCH  17  21
ATOM     18  C   UNL     1      45.747   3.388   7.829  0.00  0.00    +0.000 A 
ATOM     19  C   UNL     1      45.261   2.456   8.743  0.00  0.00    +0.000 A 
ATOM     20  N   UNL     1      44.938   2.767  10.032  0.00  0.00    +0.000 NA
ATOM     21  C   UNL     1      45.128   4.067  10.352  0.00  0.00    +0.000 A 
ATOM     22  C   UNL     1      45.603   4.998   9.436  0.00  0.00    +0.000 A 
ATOM     23  N   UNL     1      45.924   4.686   8.157  0.00  0.00    +0.000 NA
BRANCH  18  25
ATOM     24  C   UNL     1      47.436   2.571   6.437  0.00  0.00    +0.000 C 
ATOM     25  O   UNL     1      46.065   2.949   6.562  0.00  0.00    +0.000 OA
ENDBRANCH  18  25
ENDBRANCH  17  21
ENDBRANCH  14  17
ENDBRANCH   1  14
TORSDOF 5
ENDMDL
MODEL 3
REMARK VINA RESULT:    -6.284      2.590      3.443
REMARK INTER + INTRA:          -8.793
REMARK INTER:                  -9.268
REMARK INTRA:                   0.476
REMARK UNBOUND:                -0.671
REMARK  Name = 
REMARK  6 active torsions:
REMARK  status: ('A' for Active; 'I' for Inactive)
REMARK    1  A    between atoms: C_1  and  O_2
REMARK    2  A    between atoms: O_2  and  C_3
REMARK    3  A    between atoms: C_6  and  O_7
REMARK    4  A    between atoms: O_7  and  C_8
REMARK    5  A    between atoms: C_8  and  C_9
REMARK    6  A    between atoms: C_13  and  C_14
REMARK                            x       y       z     vdW  Elec       q    Type
REMARK                         _______ _______ _______ _____ _____    ______ ____
ROOT
ATOM      1  C   UNL     1      45.841   5.001  13.262  0.00  0.00    +0.000 A 
ATOM      2  C   UNL     1      46.749   6.008  12.934  0.00  0.00    +0.000 A 
ATOM      3  C   UNL     1      47.816   6.280  13.781  0.00  0.00    +0.000 A 
ATOM      4  C   UNL     1      47.951   5.552  14.955  0.00  0.00    +0.000 A 
ATOM      5  C   UNL     1      47.013   4.566  15.249  0.00  0.00    +0.000 A 
ATOM      6  N   UNL     1      45.989   4.279  14.411  0.00  0.00    +0.000 NA
ENDROOT
BRANCH   5   7
ATOM      7  C   UNL     1      47.068   3.850  16.589  0.00  0.00    +0.000 C 
ATOM      8  C   UNL     1      47.209   4.804  17.785  0.00  0.00    +0.000 C 
ATOM      9  C   UNL     1      48.655   5.157  18.124  0.00  0.00    +0.000 C 
ATOM     10  N   UNL     1      49.473   3.955  18.289  0.00  0.00    +0.000 NA
ATOM     11  C   UNL     1      49.523   3.220  17.026  0.00  0.00    +0.000 C 
ATOM     12  C   UNL     1      48.138   2.743  16.592  0.00  0.00    +0.000 C 
ATOM     13  H   UNL     1      49.066   3.362  19.012  0.00  0.00    +0.000 HD
ENDBRANCH   5   7
BRANCH   1  14
ATOM     14  C   UNL     1      44.623   4.735  12.385  0.00  0.00    +0.000 C 
ATOM     15  C   UNL     1      43.252   5.019  12.996  0.00  0.00    +0.000 C 
ATOM     16  C   UNL     1      43.778   5.904  11.917  0.00  0.00    +0.000 C 
BRANCH  14  17
ATOM     17  O   UNL     1      44.599   3.490  11.649  0.00  0.00    +0.000 OA
BRANCH  17  21
ATOM     18  C   UNL     1      45.880   3.776   7.807  0.00  0.00    +0.000 A 
ATOM     19  C   UNL     1      45.459   2.546   8.306  0.00  0.00    +0.000 A 
ATOM     20  N   UNL     1      45.000   2.371   9.580  0.00  0.00    +0.000 NA
ATOM     21  C   UNL     1      44.986   3.499  10.324  0.00  0.00    +0.000 A 
ATOM     22  C   UNL     1      45.396   4.728   9.820  0.00  0.00    +0.000 A 
ATOM     23  N   UNL     1      45.852   4.899   8.556  0.00  0.00    +0.000 NA
BRANCH  18  25
ATOM     24  C   UNL     1      47.209   2.729   6.196  0.00  0.00    +0.000 C 
ATOM     25  O   UNL     1      46.350   3.824   6.512  0.00  0.00    +0.000 OA
ENDBRANCH  18  25
ENDBRANCH  17  21
ENDBRANCH  14  17
ENDBRANCH   1  14
TORSDOF 5
ENDMDL
MODEL 4
REMARK VINA RESULT:    -6.228      3.104      7.007
REMARK INTER + INTRA:          -8.720
REMARK INTER:                  -8.233
REMARK INTRA:                  -0.486
REMARK UNBOUND:                -0.671
REMARK  Name = 
REMARK  6 active torsions:
REMARK  status: ('A' for Active; 'I' for Inactive)
REMARK    1  A    between atoms: C_1  and  O_2
REMARK    2  A    between atoms: O_2  and  C_3
REMARK    3  A    between atoms: C_6  and  O_7
REMARK    4  A    between atoms: O_7  and  C_8
REMARK    5  A    between atoms: C_8  and  C_9
REMARK    6  A    between atoms: C_13  and  C_14
REMARK                            x       y       z     vdW  Elec       q    Type
REMARK                         _______ _______ _______ _____ _____    ______ ____
ROOT
ATOM      1  C   UNL     1      46.734   7.490  12.204  0.00  0.00    +0.000 A 
ATOM      2  C   UNL     1      46.233   8.788  12.105  0.00  0.00    +0.000 A 
ATOM      3  C   UNL     1      44.921   8.994  11.696  0.00  0.00    +0.000 A 
ATOM      4  C   UNL     1      44.133   7.898  11.374  0.00  0.00    +0.000 A 
ATOM      5  C   UNL     1      44.679   6.621  11.473  0.00  0.00    +0.000 A 
ATOM      6  N   UNL     1      45.947   6.416  11.899  0.00  0.00    +0.000 NA
ENDROOT
BRANCH   5   7
ATOM      7  C   UNL     1      43.876   5.421  10.999  0.00  0.00    +0.000 C 
ATOM      8  C   UNL     1      42.765   5.005  11.975  0.00  0.00    +0.000 C 
ATOM      9  C   UNL     1      43.228   4.034  13.058  0.00  0.00    +0.000 C 
ATOM     10  N   UNL     1      43.904   2.872  12.479  0.00  0.00    +0.000 NA
ATOM     11  C   UNL     1      45.115   3.307  11.784  0.00  0.00    +0.000 C 
ATOM     12  C   UNL     1      44.794   4.244  10.620  0.00  0.00    +0.000 C 
ATOM     13  H   UNL     1      43.280   2.409  11.819  0.00  0.00    +0.000 HD
ENDBRANCH   5   7
BRANCH   1  14
ATOM     14  C   UNL     1      48.190   7.244  12.579  0.00  0.00    +0.000 C 
ATOM     15  C   UNL     1      49.255   7.766  11.615  0.00  0.00    +0.000 C 
ATOM     16  C   UNL     1      49.072   8.423  12.941  0.00  0.00    +0.000 C 
BRANCH  14  17
ATOM     17  O   UNL     1      48.537   5.919  13.044  0.00  0.00    +0.000 OA
BRANCH  17  21
ATOM     18  C   UNL     1      47.564   4.667  16.781  0.00  0.00    +0.000 A 
ATOM     19  C   UNL     1      48.529   5.657  16.613  0.00  0.00    +0.000 A 
ATOM     20  N   UNL     1      48.900   6.143  15.393  0.00  0.00    +0.000 NA
ATOM     21  C   UNL     1      48.248   5.580  14.351  0.00  0.00    +0.000 A 
ATOM     22  C   UNL     1      47.278   4.599  14.522  0.00  0.00    +0.000 A 
ATOM     23  N   UNL     1      46.912   4.118  15.735  0.00  0.00    +0.000 NA
BRANCH  18  25
ATOM     24  C   UNL     1      48.476   3.971  18.817  0.00  0.00    +0.000 C 
ATOM     25  O   UNL     1      47.294   4.237  18.063  0.00  0.00    +0.000 OA
ENDBRANCH  18  25
ENDBRANCH  17  21
ENDBRANCH  14  17
ENDBRANCH   1  14
TORSDOF 5
ENDMDL
MODEL 5
REMARK VINA RESULT:    -6.042      3.008      6.772
REMARK INTER + INTRA:          -8.479
REMARK INTER:                  -7.869
REMARK INTRA:                  -0.609
REMARK UNBOUND:                -0.671
REMARK  Name = 
REMARK  6 active torsions:
REMARK  status: ('A' for Active; 'I' for Inactive)
REMARK    1  A    between atoms: C_1  and  O_2
REMARK    2  A    between atoms: O_2  and  C_3
REMARK    3  A    between atoms: C_6  and  O_7
REMARK    4  A    between atoms: O_7  and  C_8
REMARK    5  A    between atoms: C_8  and  C_9
REMARK    6  A    between atoms: C_13  and  C_14
REMARK                            x       y       z     vdW  Elec       q    Type
REMARK                         _______ _______ _______ _____ _____    ______ ____
ROOT
ATOM      1  C   UNL     1      45.352   5.300  11.988  0.00  0.00    +0.000 A 
ATOM      2  C   UNL     1      44.634   4.671  13.005  0.00  0.00    +0.000 A 
ATOM      3  C   UNL     1      43.850   3.561  12.713  0.00  0.00    +0.000 A 
ATOM      4  C   UNL     1      43.782   3.106  11.404  0.00  0.00    +0.000 A 
ATOM      5  C   UNL     1      44.505   3.774  10.419  0.00  0.00    +0.000 A 
ATOM      6  N   UNL     1      45.292   4.837  10.705  0.00  0.00    +0.000 NA
ENDROOT
BRANCH   5   7
ATOM      7  C   UNL     1      44.339   3.373   8.962  0.00  0.00    +0.000 C 
ATOM      8  C   UNL     1      44.576   1.876   8.710  0.00  0.00    +0.000 C 
ATOM      9  C   UNL     1      46.038   1.519   8.449  0.00  0.00    +0.000 C 
ATOM     10  N   UNL     1      46.607   2.345   7.383  0.00  0.00    +0.000 NA
ATOM     11  C   UNL     1      46.602   3.748   7.797  0.00  0.00    +0.000 C 
ATOM     12  C   UNL     1      45.183   4.265   8.033  0.00  0.00    +0.000 C 
ATOM     13  H   UNL     1      46.050   2.239   6.536  0.00  0.00    +0.000 HD
ENDBRANCH   5   7
BRANCH   1  14
ATOM     14  C   UNL     1      46.160   6.562  12.271  0.00  0.00    +0.000 C 
ATOM     15  C   UNL     1      47.534   6.378  12.914  0.00  0.00    +0.000 C 
ATOM     16  C   UNL     1      47.436   6.814  11.491  0.00  0.00    +0.000 C 
BRANCH  14  17
ATOM     17  O   UNL     1      45.461   7.670  12.882  0.00  0.00    +0.000 OA
BRANCH  17  21
ATOM     18  C   UNL     1      44.624  10.951  10.643  0.00  0.00    +0.000 A 
ATOM     19  C   UNL     1      45.670  10.990  11.561  0.00  0.00    +0.000 A 
ATOM     20  N   UNL     1      46.024   9.925  12.339  0.00  0.00    +0.000 NA
ATOM     21  C   UNL     1      45.271   8.820  12.142  0.00  0.00    +0.000 A 
ATOM     22  C   UNL     1      44.234   8.781  11.217  0.00  0.00    +0.000 A 
ATOM     23  N   UNL     1      43.884   9.840  10.447  0.00  0.00    +0.000 NA
BRANCH  18  25
ATOM     24  C   UNL     1      44.259  11.873   8.527  0.00  0.00    +0.000 C 
ATOM     25  O   UNL     1      44.343  12.100   9.933  0.00  0.00    +0.000 OA
ENDBRANCH  18  25
ENDBRANCH  17  21
ENDBRANCH  14  17
ENDBRANCH   1  14
TORSDOF 5
ENDMDL
MODEL 6
REMARK VINA RESULT:    -5.935      3.466      5.831
REMARK INTER + INTRA:          -8.341
REMARK INTER:                  -7.816
REMARK INTRA:                  -0.525
REMARK UNBOUND:                -0.671
REMARK  Name = 
REMARK  6 active torsions:
REMARK  status: ('A' for Active; 'I' for Inactive)
REMARK    1  A    between atoms: C_1  and  O_2
REMARK    2  A    between atoms: O_2  and  C_3
REMARK    3  A    between atoms: C_6  and  O_7
REMARK    4  A    between atoms: O_7  and  C_8
REMARK    5  A    between atoms: C_8  and  C_9
REMARK    6  A    between atoms: C_13  and  C_14
REMARK                            x       y       z     vdW  Elec       q    Type
REMARK                         _______ _______ _______ _____ _____    ______ ____
ROOT
ATOM      1  C   UNL     1      48.635   7.281  15.082  0.00  0.00    +0.000 A 
ATOM      2  C   UNL     1      48.484   8.397  15.903  0.00  0.00    +0.000 A 
ATOM      3  C   UNL     1      48.865   8.332  17.238  0.00  0.00    +0.000 A 
ATOM      4  C   UNL     1      49.378   7.143  17.737  0.00  0.00    +0.000 A 
ATOM      5  C   UNL     1      49.499   6.049  16.884  0.00  0.00    +0.000 A 
ATOM      6  N   UNL     1      49.155   6.119  15.577  0.00  0.00    +0.000 NA
ENDROOT
BRANCH   5   7
ATOM      7  C   UNL     1      49.933   4.703  17.443  0.00  0.00    +0.000 C 
ATOM      8  C   UNL     1      49.033   3.539  17.002  0.00  0.00    +0.000 C 
ATOM      9  C   UNL     1      47.824   3.317  17.909  0.00  0.00    +0.000 C 
ATOM     10  N   UNL     1      48.226   3.192  19.311  0.00  0.00    +0.000 NA
ATOM     11  C   UNL     1      48.841   4.441  19.757  0.00  0.00    +0.000 C 
ATOM     12  C   UNL     1      50.112   4.760  18.971  0.00  0.00    +0.000 C 
ATOM     13  H   UNL     1      48.896   2.429  19.406  0.00  0.00    +0.000 HD
ENDBRANCH   5   7
BRANCH   1  14
ATOM     14  C   UNL     1      48.156   7.306  13.635  0.00  0.00    +0.000 C 
ATOM     15  C   UNL     1      48.830   8.306  12.697  0.00  0.00    +0.000 C 
ATOM     16  C   UNL     1      49.094   6.848  12.536  0.00  0.00    +0.000 C 
BRANCH  14  17
ATOM     17  O   UNL     1      46.727   7.291  13.413  0.00  0.00    +0.000 OA
BRANCH  17  21
ATOM     18  C   UNL     1      44.998   3.927  11.936  0.00  0.00    +0.000 A 
ATOM     19  C   UNL     1      45.199   5.024  11.102  0.00  0.00    +0.000 A 
ATOM     20  N   UNL     1      45.787   6.184  11.518  0.00  0.00    +0.000 NA
ATOM     21  C   UNL     1      46.163   6.180  12.817  0.00  0.00    +0.000 A 
ATOM     22  C   UNL     1      45.971   5.080  13.644  0.00  0.00    +0.000 A 
ATOM     23  N   UNL     1      45.385   3.930  13.229  0.00  0.00    +0.000 NA
BRANCH  18  25
ATOM     24  C   UNL     1      44.313   2.843   9.984  0.00  0.00    +0.000 C 
ATOM     25  O   UNL     1      44.367   2.820  11.409  0.00  0.00    +0.000 OA
ENDBRANCH  18  25
ENDBRANCH  17  21
ENDBRANCH  14  17
ENDBRANCH   1  14
TORSDOF 5
ENDMDL
MODEL 7
REMARK VINA RESULT:    -5.759      3.533      7.926
REMARK INTER + INTRA:          -8.113
REMARK INTER:                  -7.686
REMARK INTRA:                  -0.427
REMARK UNBOUND:                -0.671
REMARK  Name = 
REMARK  6 active torsions:
REMARK  status: ('A' for Active; 'I' for Inactive)
REMARK    1  A    between atoms: C_1  and  O_2
REMARK    2  A    between atoms: O_2  and  C_3
REMARK    3  A    between atoms: C_6  and  O_7
REMARK    4  A    between atoms: O_7  and  C_8
REMARK    5  A    between atoms: C_8  and  C_9
REMARK    6  A    between atoms: C_13  and  C_14
REMARK                            x       y       z     vdW  Elec       q    Type
REMARK                         _______ _______ _______ _____ _____    ______ ____
ROOT
ATOM      1  C   UNL     1      47.335   7.297  12.906  0.00  0.00    +0.000 A 
ATOM      2  C   UNL     1      46.627   8.312  12.264  0.00  0.00    +0.000 A 
ATOM      3  C   UNL     1      45.283   8.134  11.962  0.00  0.00    +0.000 A 
ATOM      4  C   UNL     1      44.668   6.935  12.294  0.00  0.00    +0.000 A 
ATOM      5  C   UNL     1      45.417   5.944  12.922  0.00  0.00    +0.000 A 
ATOM      6  N   UNL     1      46.719   6.125  13.243  0.00  0.00    +0.000 NA
ENDROOT
BRANCH   5   7
ATOM      7  C   UNL     1      44.797   4.578  13.173  0.00  0.00    +0.000 C 
ATOM      8  C   UNL     1      45.489   3.443  12.402  0.00  0.00    +0.000 C 
ATOM      9  C   UNL     1      44.936   3.230  10.994  0.00  0.00    +0.000 C 
ATOM     10  N   UNL     1      43.481   3.067  11.011  0.00  0.00    +0.000 NA
ATOM     11  C   UNL     1      42.858   4.294  11.507  0.00  0.00    +0.000 C 
ATOM     12  C   UNL     1      43.275   4.601  12.945  0.00  0.00    +0.000 C 
ATOM     13  H   UNL     1      43.233   2.289  11.621  0.00  0.00    +0.000 HD
ENDBRANCH   5   7
BRANCH   1  14
ATOM     14  C   UNL     1      48.828   7.440  13.180  0.00  0.00    +0.000 C 
ATOM     15  C   UNL     1      49.759   7.453  11.968  0.00  0.00    +0.000 C 
ATOM     16  C   UNL     1      49.542   8.706  12.747  0.00  0.00    +0.000 C 
BRANCH  14  17
ATOM     17  O   UNL     1      49.387   6.626  14.236  0.00  0.00    +0.000 OA
BRANCH  17  21
ATOM     18  C   UNL     1      48.395   7.133  18.140  0.00  0.00    +0.000 A 
ATOM     19  C   UNL     1      48.630   8.245  17.337  0.00  0.00    +0.000 A 
ATOM     20  N   UNL     1      48.952   8.159  16.013  0.00  0.00    +0.000 NA
ATOM     21  C   UNL     1      49.023   6.895  15.541  0.00  0.00    +0.000 A 
ATOM     22  C   UNL     1      48.777   5.786  16.342  0.00  0.00    +0.000 A 
ATOM     23  N   UNL     1      48.459   5.874  17.657  0.00  0.00    +0.000 NA
BRANCH  18  25
ATOM     24  C   UNL     1      47.361   6.273  20.051  0.00  0.00    +0.000 C 
ATOM     25  O   UNL     1      48.104   7.345  19.471  0.00  0.00    +0.000 OA
ENDBRANCH  18  25
ENDBRANCH  17  21
ENDBRANCH  14  17
ENDBRANCH   1  14
TORSDOF 5
ENDMDL
MODEL 8
REMARK VINA RESULT:    -5.261      3.835      6.096
REMARK INTER + INTRA:          -7.470
REMARK INTER:                  -6.724
REMARK INTRA:                  -0.745
REMARK UNBOUND:                -0.671
REMARK  Name = 
REMARK  6 active torsions:
REMARK  status: ('A' for Active; 'I' for Inactive)
REMARK    1  A    between atoms: C_1  and  O_2
REMARK    2  A    between atoms: O_2  and  C_3
REMARK    3  A    between atoms: C_6  and  O_7
REMARK    4  A    between atoms: O_7  and  C_8
REMARK    5  A    between atoms: C_8  and  C_9
REMARK    6  A    between atoms: C_13  and  C_14
REMARK                            x       y       z     vdW  Elec       q    Type
REMARK                         _______ _______ _______ _____ _____    ______ ____
ROOT
ATOM      1  C   UNL     1      47.989   5.584  17.568  0.00  0.00    +0.000 A 
ATOM      2  C   UNL     1      47.363   5.640  18.813  0.00  0.00    +0.000 A 
ATOM      3  C   UNL     1      47.470   6.787  19.590  0.00  0.00    +0.000 A 
ATOM      4  C   UNL     1      48.216   7.858  19.117  0.00  0.00    +0.000 A 
ATOM      5  C   UNL     1      48.835   7.753  17.875  0.00  0.00    +0.000 A 
ATOM      6  N   UNL     1      48.709   6.648  17.104  0.00  0.00    +0.000 NA
ENDROOT
BRANCH   5   7
ATOM      7  C   UNL     1      49.762   8.860  17.400  0.00  0.00    +0.000 C 
ATOM      8  C   UNL     1      49.418  10.238  17.986  0.00  0.00    +0.000 C 
ATOM      9  C   UNL     1      48.382  11.011  17.173  0.00  0.00    +0.000 C 
ATOM     10  N   UNL     1      48.768  11.101  15.764  0.00  0.00    +0.000 NA
ATOM     11  C   UNL     1      48.816   9.760  15.184  0.00  0.00    +0.000 C 
ATOM     12  C   UNL     1      49.868   8.885  15.864  0.00  0.00    +0.000 C 
ATOM     13  H   UNL     1      49.687  11.538  15.690  0.00  0.00    +0.000 HD
ENDBRANCH   5   7
BRANCH   1  14
ATOM     14  C   UNL     1      47.948   4.310  16.732  0.00  0.00    +0.000 C 
ATOM     15  C   UNL     1      48.691   3.093  17.282  0.00  0.00    +0.000 C 
ATOM     16  C   UNL     1      47.200   3.102  17.260  0.00  0.00    +0.000 C 
BRANCH  14  17
ATOM     17  O   UNL     1      48.184   4.445  15.312  0.00  0.00    +0.000 OA
BRANCH  17  21
ATOM     18  C   UNL     1      45.376   6.031  12.845  0.00  0.00    +0.000 A 
ATOM     19  C   UNL     1      45.165   4.779  13.419  0.00  0.00    +0.000 A 
ATOM     20  N   UNL     1      46.053   4.186  14.270  0.00  0.00    +0.000 NA
ATOM     21  C   UNL     1      47.162   4.918  14.514  0.00  0.00    +0.000 A 
ATOM     22  C   UNL     1      47.366   6.172  13.948  0.00  0.00    +0.000 A 
ATOM     23  N   UNL     1      46.484   6.758  13.102  0.00  0.00    +0.000 NA
BRANCH  18  25
ATOM     24  C   UNL     1      44.753   7.799  11.451  0.00  0.00    +0.000 C 
ATOM     25  O   UNL     1      44.420   6.515  11.978  0.00  0.00    +0.000 OA
ENDBRANCH  18  25
ENDBRANCH  17  21
ENDBRANCH  14  17
ENDBRANCH   1  14
TORSDOF 5
ENDMDL
MODEL 9
REMARK VINA RESULT:    -5.211      3.912      6.582
REMARK INTER + INTRA:          -7.405
REMARK INTER:                  -6.852
REMARK INTRA:                  -0.554
REMARK UNBOUND:                -0.671
REMARK  Name = 
REMARK  6 active torsions:
REMARK  status: ('A' for Active; 'I' for Inactive)
REMARK    1  A    between atoms: C_1  and  O_2
REMARK    2  A    between atoms: O_2  and  C_3
REMARK    3  A    between atoms: C_6  and  O_7
REMARK    4  A    between atoms: O_7  and  C_8
REMARK    5  A    between atoms: C_8  and  C_9
REMARK    6  A    between atoms: C_13  and  C_14
REMARK                            x       y       z     vdW  Elec       q    Type
REMARK                         _______ _______ _______ _____ _____    ______ ____
ROOT
ATOM      1  C   UNL     1      49.512   8.295  12.524  0.00  0.00    +0.000 A 
ATOM      2  C   UNL     1      48.879   9.501  12.223  0.00  0.00    +0.000 A 
ATOM      3  C   UNL     1      49.485  10.403  11.356  0.00  0.00    +0.000 A 
ATOM      4  C   UNL     1      50.725  10.092  10.815  0.00  0.00    +0.000 A 
ATOM      5  C   UNL     1      51.326   8.883  11.155  0.00  0.00    +0.000 A 
ATOM      6  N   UNL     1      50.725   7.991  11.975  0.00  0.00    +0.000 NA
ENDROOT
BRANCH   5   7
ATOM      7  C   UNL     1      52.738   8.584  10.678  0.00  0.00    +0.000 C 
ATOM      8  C   UNL     1      53.278   9.621   9.681  0.00  0.00    +0.000 C 
ATOM      9  C   UNL     1      52.923   9.319   8.226  0.00  0.00    +0.000 C 
ATOM     10  N   UNL     1      53.307   7.956   7.855  0.00  0.00    +0.000 NA
ATOM     11  C   UNL     1      52.552   6.998   8.661  0.00  0.00    +0.000 C 
ATOM     12  C   UNL     1      52.861   7.143  10.151  0.00  0.00    +0.000 C 
ATOM     13  H   UNL     1      54.305   7.828   8.019  0.00  0.00    +0.000 HD
ENDBRANCH   5   7
BRANCH   1  14
ATOM     14  C   UNL     1      48.901   7.325  13.529  0.00  0.00    +0.000 C 
ATOM     15  C   UNL     1      49.637   7.145  14.856  0.00  0.00    +0.000 C 
ATOM     16  C   UNL     1      48.331   7.865  14.826  0.00  0.00    +0.000 C 
BRANCH  14  17
ATOM     17  O   UNL     1      48.453   6.047  13.024  0.00  0.00    +0.000 OA
BRANCH  17  21
ATOM     18  C   UNL     1      44.486   5.183  13.009  0.00  0.00    +0.000 A 
ATOM     19  C   UNL     1      44.957   6.281  12.293  0.00  0.00    +0.000 A 
ATOM     20  N   UNL     1      46.276   6.628  12.235  0.00  0.00    +0.000 NA
ATOM     21  C   UNL     1      47.095   5.811  12.934  0.00  0.00    +0.000 A 
ATOM     22  C   UNL     1      46.624   4.710  13.640  0.00  0.00    +0.000 A 
ATOM     23  N   UNL     1      45.314   4.368  13.697  0.00  0.00    +0.000 NA
BRANCH  18  25
ATOM     24  C   UNL     1      42.470   5.481  11.867  0.00  0.00    +0.000 C 
ATOM     25  O   UNL     1      43.127   4.949  13.016  0.00  0.00    +0.000 OA
ENDBRANCH  18  25
ENDBRANCH  17  21
ENDBRANCH  14  17
ENDBRANCH   1  14
TORSDOF 5
ENDMDL
