MODEL 1
REMARK VINA RESULT:    -7.147      0.000      0.000
REMARK INTER + INTRA:         -10.717
REMARK INTER:                  -9.862
REMARK INTRA:                  -0.855
REMARK UNBOUND:                -0.855
REMARK  Name = 
REMARK  7 active torsions:
REMARK  status: ('A' for Active; 'I' for Inactive)
REMARK    1  A    between atoms: N_1  and  C_2
REMARK    2  A    between atoms: C_2  and  C_3
REMARK    3  A    between atoms: C_7  and  O_8
REMARK    4  A    between atoms: O_8  and  C_9
REMARK    5  A    between atoms: C_9  and  C_10
REMARK    6  A    between atoms: C_10  and  C_11
REMARK    7  A    between atoms: C_15  and  C_16
REMARK                            x       y       z     vdW  Elec       q    Type
REMARK                         _______ _______ _______ _____ _____    ______ ____
ROOT
ATOM      1  C   UNL     1      43.593   3.346  11.134  0.00  0.00    +0.000 C 
ENDROOT
BRANCH   1   2
ATOM      2  O   UNL     1      43.962   2.409  10.120  0.00  0.00    +0.000 OA
BRANCH   2   7
ATOM      3  C   UNL     1      46.600   2.177   7.607  0.00  0.00    +0.000 A 
ATOM      4  C   UNL     1      46.786   3.523   7.261  0.00  0.00    +0.000 A 
ATOM      5  C   UNL     1      46.035   4.522   7.875  0.00  0.00    +0.000 A 
ATOM      6  C   UNL     1      45.082   4.189   8.839  0.00  0.00    +0.000 A 
ATOM      7  C   UNL     1      44.874   2.855   9.197  0.00  0.00    +0.000 A 
ATOM      8  C   UNL     1      45.638   1.857   8.578  0.00  0.00    +0.000 A 
BRANCH   3   9
ATOM      9  C   UNL     1      47.394   1.100   6.912  0.00  0.00    +0.000 C 
BRANCH   9  10
ATOM     10  N   UNL     1      48.398   1.657   6.011  0.00  0.00    +0.000 NA
ATOM     11  H   UNL     1      48.858   0.896   5.516  0.00  0.00    +0.000 HD
ATOM     12  H   UNL     1      49.117   2.116   6.568  0.00  0.00    +0.000 HD
ENDBRANCH   9  10
ENDBRANCH   3   9
ENDBRANCH   2   7
ENDBRANCH   1   2
BRANCH   1  13
ATOM     13  C   UNL     1      44.555   3.232  12.316  0.00  0.00    +0.000 C 
BRANCH  13  14
ATOM     14  C   UNL     1      45.275   4.538  12.556  0.00  0.00    +0.000 A 
ATOM     15  C   UNL     1      46.523   4.556  13.194  0.00  0.00    +0.000 A 
ATOM     16  C   UNL     1      47.202   5.761  13.389  0.00  0.00    +0.000 A 
ATOM     17  C   UNL     1      46.650   6.957  12.928  0.00  0.00    +0.000 A 
ATOM     18  C   UNL     1      45.421   6.950  12.260  0.00  0.00    +0.000 A 
ATOM     19  C   UNL     1      44.727   5.744  12.092  0.00  0.00    +0.000 A 
BRANCH  18  20
ATOM     20  C   UNL     1      44.896   8.242  11.741  0.00  0.00    +0.000 C 
ATOM     21  N   UNL     1      43.718   8.207  11.047  0.00  0.00    +0.000 N 
ATOM     22  O   UNL     1      45.513   9.291  11.878  0.00  0.00    +0.000 OA
ATOM     23  H   UNL     1      43.307   7.350  10.710  0.00  0.00    +0.000 HD
ATOM     24  H   UNL     1      43.447   9.068  10.590  0.00  0.00    +0.000 HD
ENDBRANCH  18  20
ENDBRANCH  13  14
ENDBRANCH   1  13
TORSDOF 7
ENDMDL
MODEL 2
REMARK VINA RESULT:    -7.063      2.328      3.183
REMARK INTER + INTRA:         -10.601
REMARK INTER:                 -10.013
REMARK INTRA:                  -0.587
REMARK UNBOUND:                -0.855
REMARK  Name = 
REMARK  7 active torsions:
REMARK  status: ('A' for Active; 'I' for Inactive)
REMARK    1  A    between atoms: N_1  and  C_2
REMARK    2  A    between atoms: C_2  and  C_3
REMARK    3  A    between atoms: C_7  and  O_8
REMARK    4  A    between atoms: O_8  and  C_9
REMARK    5  A    between atoms: C_9  and  C_10
REMARK    6  A    between atoms: C_10  and  C_11
REMARK    7  A    between atoms: C_15  and  C_16
REMARK                            x       y       z     vdW  Elec       q    Type
REMARK                         _______ _______ _______ _____ _____    ______ ____
ROOT
ATOM      1  C   UNL     1      43.981   4.265  10.284  0.00  0.00    +0.000 C 
ENDROOT
BRANCH   1   2
ATOM      2  O   UNL     1      44.520   4.417   8.969  0.00  0.00    +0.000 OA
BRANCH   2   7
ATOM      3  C   UNL     1      46.618   2.523   6.658  0.00  0.00    +0.000 A 
ATOM      4  C   UNL     1      46.647   1.260   7.265  0.00  0.00    +0.000 A 
ATOM      5  C   UNL     1      45.955   1.030   8.452  0.00  0.00    +0.000 A 
ATOM      6  C   UNL     1      45.230   2.061   9.051  0.00  0.00    +0.000 A 
ATOM      7  C   UNL     1      45.189   3.329   8.469  0.00  0.00    +0.000 A 
ATOM      8  C   UNL     1      45.883   3.551   7.272  0.00  0.00    +0.000 A 
BRANCH   3   9
ATOM      9  C   UNL     1      47.399   2.774   5.392  0.00  0.00    +0.000 C 
BRANCH   9  10
ATOM     10  N   UNL     1      48.382   1.724   5.141  0.00  0.00    +0.000 NA
ATOM     11  H   UNL     1      49.177   1.859   5.762  0.00  0.00    +0.000 HD
ATOM     12  H   UNL     1      48.736   1.829   4.191  0.00  0.00    +0.000 HD
ENDBRANCH   9  10
ENDBRANCH   3   9
ENDBRANCH   2   7
ENDBRANCH   1   2
BRANCH   1  13
ATOM     13  C   UNL     1      44.053   5.598  11.028  0.00  0.00    +0.000 C 
BRANCH  13  14
ATOM     14  C   UNL     1      45.368   5.740  11.758  0.00  0.00    +0.000 A 
ATOM     15  C   UNL     1      46.281   6.740  11.393  0.00  0.00    +0.000 A 
ATOM     16  C   UNL     1      47.483   6.890  12.088  0.00  0.00    +0.000 A 
ATOM     17  C   UNL     1      47.775   6.056  13.168  0.00  0.00    +0.000 A 
ATOM     18  C   UNL     1      46.859   5.076  13.565  0.00  0.00    +0.000 A 
ATOM     19  C   UNL     1      45.666   4.908  12.848  0.00  0.00    +0.000 A 
BRANCH  18  20
ATOM     20  C   UNL     1      47.189   4.245  14.753  0.00  0.00    +0.000 C 
ATOM     21  N   UNL     1      47.234   4.875  15.967  0.00  0.00    +0.000 N 
ATOM     22  O   UNL     1      47.464   3.056  14.653  0.00  0.00    +0.000 OA
ATOM     23  H   UNL     1      47.251   5.879  16.061  0.00  0.00    +0.000 HD
ATOM     24  H   UNL     1      47.589   4.326  16.739  0.00  0.00    +0.000 HD
ENDBRANCH  18  20
ENDBRANCH  13  14
ENDBRANCH   1  13
TORSDOF 7
ENDMDL
MODEL 3
REMARK VINA RESULT:    -6.990      1.758      2.235
REMARK INTER + INTRA:         -10.501
REMARK INTER:                  -9.727
REMARK INTRA:                  -0.774
REMARK UNBOUND:                -0.855
REMARK  Name = 
REMARK  7 active torsions:
REMARK  status: ('A' for Active; 'I' for Inactive)
REMARK    1  A    between atoms: N_1  and  C_2
REMARK    2  A    between atoms: C_2  and  C_3
REMARK    3  A    between atoms: C_7  and  O_8
REMARK    4  A    between atoms: O_8  and  C_9
REMARK    5  A    between atoms: C_9  and  C_10
REMARK    6  A    between atoms: C_10  and  C_11
REMARK    7  A    between atoms: C_15  and  C_16
REMARK                            x       y       z     vdW  Elec       q    Type
REMARK                         _______ _______ _______ _____ _____    ______ ____
ROOT
ATOM      1  C   UNL     1      43.599   3.329  10.989  0.00  0.00    +0.000 C 
ENDROOT
BRANCH   1   2
ATOM      2  O   UNL     1      44.187   2.318  10.168  0.00  0.00    +0.000 OA
BRANCH   2   7
ATOM      3  C   UNL     1      46.689   2.091   7.519  0.00  0.00    +0.000 A 
ATOM      4  C   UNL     1      46.822   3.432   7.133  0.00  0.00    +0.000 A 
ATOM      5  C   UNL     1      46.079   4.427   7.765  0.00  0.00    +0.000 A 
ATOM      6  C   UNL     1      45.189   4.093   8.787  0.00  0.00    +0.000 A 
ATOM      7  C   UNL     1      45.035   2.764   9.186  0.00  0.00    +0.000 A 
ATOM      8  C   UNL     1      45.790   1.770   8.549  0.00  0.00    +0.000 A 
BRANCH   3   9
ATOM      9  C   UNL     1      47.471   1.016   6.805  0.00  0.00    +0.000 C 
BRANCH   9  10
ATOM     10  N   UNL     1      48.327   1.568   5.760  0.00  0.00    +0.000 NA
ATOM     11  H   UNL     1      49.122   0.949   5.621  0.00  0.00    +0.000 HD
ATOM     12  H   UNL     1      48.706   2.457   6.084  0.00  0.00    +0.000 HD
ENDBRANCH   9  10
ENDBRANCH   3   9
ENDBRANCH   2   7
ENDBRANCH   1   2
BRANCH   1  13
ATOM     13  C   UNL     1      44.442   3.525  12.248  0.00  0.00    +0.000 C 
BRANCH  13  14
ATOM     14  C   UNL     1      45.023   4.919  12.299  0.00  0.00    +0.000 A 
ATOM     15  C   UNL     1      44.324   6.002  11.749  0.00  0.00    +0.000 A 
ATOM     16  C   UNL     1      44.847   7.295  11.823  0.00  0.00    +0.000 A 
ATOM     17  C   UNL     1      46.064   7.520  12.467  0.00  0.00    +0.000 A 
ATOM     18  C   UNL     1      46.757   6.454  13.051  0.00  0.00    +0.000 A 
ATOM     19  C   UNL     1      46.244   5.153  12.949  0.00  0.00    +0.000 A 
BRANCH  18  20
ATOM     20  C   UNL     1      48.024   6.750  13.771  0.00  0.00    +0.000 C 
ATOM     21  N   UNL     1      47.933   7.471  14.930  0.00  0.00    +0.000 N 
ATOM     22  O   UNL     1      49.113   6.411  13.326  0.00  0.00    +0.000 OA
ATOM     23  H   UNL     1      47.098   7.967  15.201  0.00  0.00    +0.000 HD
ATOM     24  H   UNL     1      48.810   7.775  15.333  0.00  0.00    +0.000 HD
ENDBRANCH  18  20
ENDBRANCH  13  14
ENDBRANCH   1  13
TORSDOF 7
ENDMDL
MODEL 4
REMARK VINA RESULT:    -6.317      5.831      7.449
REMARK INTER + INTRA:          -9.573
REMARK INTER:                  -9.162
REMARK INTRA:                  -0.410
REMARK UNBOUND:                -0.855
REMARK  Name = 
REMARK  7 active torsions:
REMARK  status: ('A' for Active; 'I' for Inactive)
REMARK    1  A    between atoms: N_1  and  C_2
REMARK    2  A    between atoms: C_2  and  C_3
REMARK    3  A    between atoms: C_7  and  O_8
REMARK    4  A    between atoms: O_8  and  C_9
REMARK    5  A    between atoms: C_9  and  C_10
REMARK    6  A    between atoms: C_10  and  C_11
REMARK    7  A    between atoms: C_15  and  C_16
REMARK                            x       y       z     vdW  Elec       q    Type
REMARK                         _______ _______ _______ _____ _____    ______ ____
ROOT
ATOM      1  C   UNL     1      47.177   3.984  15.807  0.00  0.00    +0.000 C 
ENDROOT
BRANCH   1   2
ATOM      2  O   UNL     1      47.199   3.317  14.543  0.00  0.00    +0.000 OA
BRANCH   2   7
ATOM      3  C   UNL     1      45.032   3.863  11.657  0.00  0.00    +0.000 A 
ATOM      4  C   UNL     1      45.326   5.193  11.324  0.00  0.00    +0.000 A 
ATOM      5  C   UNL     1      46.262   5.916  12.059  0.00  0.00    +0.000 A 
ATOM      6  C   UNL     1      46.912   5.321  13.142  0.00  0.00    +0.000 A 
ATOM      7  C   UNL     1      46.632   4.001  13.497  0.00  0.00    +0.000 A 
ATOM      8  C   UNL     1      45.693   3.278  12.748  0.00  0.00    +0.000 A 
BRANCH   3   9
ATOM      9  C   UNL     1      43.991   3.099  10.877  0.00  0.00    +0.000 C 
BRANCH   9  10
ATOM     10  N   UNL     1      43.235   2.184  11.726  0.00  0.00    +0.000 NA
ATOM     11  H   UNL     1      43.380   2.440  12.700  0.00  0.00    +0.000 HD
ATOM     12  H   UNL     1      43.615   1.245  11.614  0.00  0.00    +0.000 HD
ENDBRANCH   9  10
ENDBRANCH   3   9
ENDBRANCH   2   7
ENDBRANCH   1   2
BRANCH   1  13
ATOM     13  C   UNL     1      47.686   3.041  16.896  0.00  0.00    +0.000 C 
BRANCH  13  14
ATOM     14  C   UNL     1      49.158   3.255  17.153  0.00  0.00    +0.000 A 
ATOM     15  C   UNL     1      49.665   4.546  17.360  0.00  0.00    +0.000 A 
ATOM     16  C   UNL     1      51.022   4.741  17.627  0.00  0.00    +0.000 A 
ATOM     17  C   UNL     1      51.882   3.646  17.712  0.00  0.00    +0.000 A 
ATOM     18  C   UNL     1      51.385   2.349  17.541  0.00  0.00    +0.000 A 
ATOM     19  C   UNL     1      50.028   2.158  17.244  0.00  0.00    +0.000 A 
BRANCH  18  20
ATOM     20  C   UNL     1      52.328   1.209  17.692  0.00  0.00    +0.000 C 
ATOM     21  N   UNL     1      51.816   0.027  18.150  0.00  0.00    +0.000 N 
ATOM     22  O   UNL     1      53.527   1.330  17.469  0.00  0.00    +0.000 OA
ATOM     23  H   UNL     1      50.901  -0.047  18.567  0.00  0.00    +0.000 HD
ATOM     24  H   UNL     1      52.492  -0.693  18.372  0.00  0.00    +0.000 HD
ENDBRANCH  18  20
ENDBRANCH  13  14
ENDBRANCH   1  13
TORSDOF 7
ENDMDL
MODEL 5
REMARK VINA RESULT:    -6.182      2.417      6.354
REMARK INTER + INTRA:          -9.386
REMARK INTER:                  -8.710
REMARK INTRA:                  -0.675
REMARK UNBOUND:                -0.855
REMARK  Name = 
REMARK  7 active torsions:
REMARK  status: ('A' for Active; 'I' for Inactive)
REMARK    1  A    between atoms: N_1  and  C_2
REMARK    2  A    between atoms: C_2  and  C_3
REMARK    3  A    between atoms: C_7  and  O_8
REMARK    4  A    between atoms: O_8  and  C_9
REMARK    5  A    between atoms: C_9  and  C_10
REMARK    6  A    between atoms: C_10  and  C_11
REMARK    7  A    between atoms: C_15  and  C_16
REMARK                            x       y       z     vdW  Elec       q    Type
REMARK                         _______ _______ _______ _____ _____    ______ ____
ROOT
ATOM      1  C   UNL     1      43.826   5.216  10.912  0.00  0.00    +0.000 C 
ENDROOT
BRANCH   1   2
ATOM      2  O   UNL     1      44.112   6.374  11.701  0.00  0.00    +0.000 OA
BRANCH   2   7
ATOM      3  C   UNL     1      46.819   5.362  13.933  0.00  0.00    +0.000 A 
ATOM      4  C   UNL     1      47.828   6.272  13.590  0.00  0.00    +0.000 A 
ATOM      5  C   UNL     1      47.608   7.240  12.613  0.00  0.00    +0.000 A 
ATOM      6  C   UNL     1      46.376   7.307  11.960  0.00  0.00    +0.000 A 
ATOM      7  C   UNL     1      45.356   6.409  12.280  0.00  0.00    +0.000 A 
ATOM      8  C   UNL     1      45.584   5.442  13.268  0.00  0.00    +0.000 A 
BRANCH   3   9
ATOM      9  C   UNL     1      47.079   4.296  14.966  0.00  0.00    +0.000 C 
BRANCH   9  10
ATOM     10  N   UNL     1      47.465   3.027  14.356  0.00  0.00    +0.000 NA
ATOM     11  H   UNL     1      48.224   3.192  13.699  0.00  0.00    +0.000 HD
ATOM     12  H   UNL     1      46.680   2.676  13.809  0.00  0.00    +0.000 HD
ENDBRANCH   9  10
ENDBRANCH   3   9
ENDBRANCH   2   7
ENDBRANCH   1   2
BRANCH   1  13
ATOM     13  C   UNL     1      44.523   5.331   9.557  0.00  0.00    +0.000 C 
BRANCH  13  14
ATOM     14  C   UNL     1      45.017   3.984   9.087  0.00  0.00    +0.000 A 
ATOM     15  C   UNL     1      44.479   2.803   9.617  0.00  0.00    +0.000 A 
ATOM     16  C   UNL     1      44.915   1.557   9.160  0.00  0.00    +0.000 A 
ATOM     17  C   UNL     1      45.878   1.480   8.154  0.00  0.00    +0.000 A 
ATOM     18  C   UNL     1      46.401   2.650   7.591  0.00  0.00    +0.000 A 
ATOM     19  C   UNL     1      45.983   3.899   8.072  0.00  0.00    +0.000 A 
BRANCH  18  20
ATOM     20  C   UNL     1      47.386   2.519   6.485  0.00  0.00    +0.000 C 
ATOM     21  N   UNL     1      46.921   2.670   5.208  0.00  0.00    +0.000 N 
ATOM     22  O   UNL     1      48.559   2.235   6.697  0.00  0.00    +0.000 OA
ATOM     23  H   UNL     1      45.938   2.666   4.981  0.00  0.00    +0.000 HD
ATOM     24  H   UNL     1      47.574   2.447   4.468  0.00  0.00    +0.000 HD
ENDBRANCH  18  20
ENDBRANCH  13  14
ENDBRANCH   1  13
TORSDOF 7
ENDMDL
MODEL 6
REMARK VINA RESULT:    -6.119      2.355      3.132
REMARK INTER + INTRA:          -9.298
REMARK INTER:                  -8.889
REMARK INTRA:                  -0.409
REMARK UNBOUND:                -0.855
REMARK  Name = 
REMARK  7 active torsions:
REMARK  status: ('A' for Active; 'I' for Inactive)
REMARK    1  A    between atoms: N_1  and  C_2
REMARK    2  A    between atoms: C_2  and  C_3
REMARK    3  A    between atoms: C_7  and  O_8
REMARK    4  A    between atoms: O_8  and  C_9
REMARK    5  A    between atoms: C_9  and  C_10
REMARK    6  A    between atoms: C_10  and  C_11
REMARK    7  A    between atoms: C_15  and  C_16
REMARK                            x       y       z     vdW  Elec       q    Type
REMARK                         _______ _______ _______ _____ _____    ______ ____
ROOT
ATOM      1  C   UNL     1      45.423   5.317   9.695  0.00  0.00    +0.000 C 
ENDROOT
BRANCH   1   2
ATOM      2  O   UNL     1      44.606   4.384   8.984  0.00  0.00    +0.000 OA
BRANCH   2   7
ATOM      3  C   UNL     1      46.653   2.544   6.586  0.00  0.00    +0.000 A 
ATOM      4  C   UNL     1      46.688   1.265   7.160  0.00  0.00    +0.000 A 
ATOM      5  C   UNL     1      46.018   1.006   8.353  0.00  0.00    +0.000 A 
ATOM      6  C   UNL     1      45.308   2.024   8.992  0.00  0.00    +0.000 A 
ATOM      7  C   UNL     1      45.262   3.307   8.443  0.00  0.00    +0.000 A 
ATOM      8  C   UNL     1      45.934   3.558   7.240  0.00  0.00    +0.000 A 
BRANCH   3   9
ATOM      9  C   UNL     1      47.410   2.824   5.312  0.00  0.00    +0.000 C 
BRANCH   9  10
ATOM     10  N   UNL     1      48.406   1.794   5.032  0.00  0.00    +0.000 NA
ATOM     11  H   UNL     1      48.487   1.182   5.841  0.00  0.00    +0.000 HD
ATOM     12  H   UNL     1      49.314   2.241   4.914  0.00  0.00    +0.000 HD
ENDBRANCH   9  10
ENDBRANCH   3   9
ENDBRANCH   2   7
ENDBRANCH   1   2
BRANCH   1  13
ATOM     13  C   UNL     1      44.846   5.550  11.090  0.00  0.00    +0.000 C 
BRANCH  13  14
ATOM     14  C   UNL     1      45.641   6.595  11.837  0.00  0.00    +0.000 A 
ATOM     15  C   UNL     1      45.051   7.813  12.201  0.00  0.00    +0.000 A 
ATOM     16  C   UNL     1      45.778   8.766  12.918  0.00  0.00    +0.000 A 
ATOM     17  C   UNL     1      47.094   8.501  13.298  0.00  0.00    +0.000 A 
ATOM     18  C   UNL     1      47.685   7.276  12.972  0.00  0.00    +0.000 A 
ATOM     19  C   UNL     1      46.963   6.333  12.226  0.00  0.00    +0.000 A 
BRANCH  18  20
ATOM     20  C   UNL     1      49.072   7.016  13.442  0.00  0.00    +0.000 C 
ATOM     21  N   UNL     1      50.091   7.283  12.570  0.00  0.00    +0.000 N 
ATOM     22  O   UNL     1      49.299   6.534  14.545  0.00  0.00    +0.000 OA
ATOM     23  H   UNL     1      49.939   7.451  11.587  0.00  0.00    +0.000 HD
ATOM     24  H   UNL     1      51.012   6.977  12.857  0.00  0.00    +0.000 HD
ENDBRANCH  18  20
ENDBRANCH  13  14
ENDBRANCH   1  13
TORSDOF 7
ENDMDL
MODEL 7
REMARK VINA RESULT:    -5.989      2.629      6.639
REMARK INTER + INTRA:          -9.119
REMARK INTER:                  -8.514
REMARK INTRA:                  -0.605
REMARK UNBOUND:                -0.855
REMARK  Name = 
REMARK  7 active torsions:
REMARK  status: ('A' for Active; 'I' for Inactive)
REMARK    1  A    between atoms: N_1  and  C_2
REMARK    2  A    between atoms: C_2  and  C_3
REMARK    3  A    between atoms: C_7  and  O_8
REMARK    4  A    between atoms: O_8  and  C_9
REMARK    5  A    between atoms: C_9  and  C_10
REMARK    6  A    between atoms: C_10  and  C_11
REMARK    7  A    between atoms: C_15  and  C_16
REMARK                            x       y       z     vdW  Elec       q    Type
REMARK                         _______ _______ _______ _____ _____    ______ ____
ROOT
ATOM      1  C   UNL     1      44.713   5.295  11.166  0.00  0.00    +0.000 C 
ENDROOT
BRANCH   1   2
ATOM      2  O   UNL     1      45.914   5.475  11.919  0.00  0.00    +0.000 OA
BRANCH   2   7
ATOM      3  C   UNL     1      48.218   8.307  11.955  0.00  0.00    +0.000 A 
ATOM      4  C   UNL     1      47.380   9.354  12.361  0.00  0.00    +0.000 A 
ATOM      5  C   UNL     1      46.035   9.118  12.635  0.00  0.00    +0.000 A 
ATOM      6  C   UNL     1      45.508   7.832  12.501  0.00  0.00    +0.000 A 
ATOM      7  C   UNL     1      46.321   6.773  12.094  0.00  0.00    +0.000 A 
ATOM      8  C   UNL     1      47.675   7.018  11.825  0.00  0.00    +0.000 A 
BRANCH   3   9
ATOM      9  C   UNL     1      49.665   8.578  11.626  0.00  0.00    +0.000 C 
BRANCH   9  10
ATOM     10  N   UNL     1      50.548   7.546  12.158  0.00  0.00    +0.000 NA
ATOM     11  H   UNL     1      50.075   6.646  12.110  0.00  0.00    +0.000 HD
ATOM     12  H   UNL     1      50.713   7.734  13.146  0.00  0.00    +0.000 HD
ENDBRANCH   9  10
ENDBRANCH   3   9
ENDBRANCH   2   7
ENDBRANCH   1   2
BRANCH   1  13
ATOM     13  C   UNL     1      45.016   5.419   9.673  0.00  0.00    +0.000 C 
BRANCH  13  14
ATOM     14  C   UNL     1      45.372   4.076   9.081  0.00  0.00    +0.000 A 
ATOM     15  C   UNL     1      44.829   2.897   9.610  0.00  0.00    +0.000 A 
ATOM     16  C   UNL     1      45.134   1.658   9.042  0.00  0.00    +0.000 A 
ATOM     17  C   UNL     1      45.969   1.587   7.927  0.00  0.00    +0.000 A 
ATOM     18  C   UNL     1      46.492   2.758   7.367  0.00  0.00    +0.000 A 
ATOM     19  C   UNL     1      46.207   3.998   7.956  0.00  0.00    +0.000 A 
BRANCH  18  20
ATOM     20  C   UNL     1      47.334   2.638   6.147  0.00  0.00    +0.000 C 
ATOM     21  N   UNL     1      48.679   2.466   6.327  0.00  0.00    +0.000 N 
ATOM     22  O   UNL     1      46.860   2.741   5.022  0.00  0.00    +0.000 OA
ATOM     23  H   UNL     1      49.135   2.614   7.215  0.00  0.00    +0.000 HD
ATOM     24  H   UNL     1      49.250   2.521   5.493  0.00  0.00    +0.000 HD
ENDBRANCH  18  20
ENDBRANCH  13  14
ENDBRANCH   1  13
TORSDOF 7
ENDMDL
MODEL 8
REMARK VINA RESULT:    -5.900      2.402      3.759
REMARK INTER + INTRA:          -8.996
REMARK INTER:                  -7.984
REMARK INTRA:                  -1.013
REMARK UNBOUND:                -0.855
REMARK  Name = 
REMARK  7 active torsions:
REMARK  status: ('A' for Active; 'I' for Inactive)
REMARK    1  A    between atoms: N_1  and  C_2
REMARK    2  A    between atoms: C_2  and  C_3
REMARK    3  A    between atoms: C_7  and  O_8
REMARK    4  A    between atoms: O_8  and  C_9
REMARK    5  A    between atoms: C_9  and  C_10
REMARK    6  A    between atoms: C_10  and  C_11
REMARK    7  A    between atoms: C_15  and  C_16
REMARK                            x       y       z     vdW  Elec       q    Type
REMARK                         _______ _______ _______ _____ _____    ______ ____
ROOT
ATOM      1  C   UNL     1      46.983   4.188  13.517  0.00  0.00    +0.000 C 
ENDROOT
BRANCH   1   2
ATOM      2  O   UNL     1      45.592   3.895  13.670  0.00  0.00    +0.000 OA
BRANCH   2   7
ATOM      3  C   UNL     1      44.343   4.607  10.314  0.00  0.00    +0.000 A 
ATOM      4  C   UNL     1      43.204   5.378  10.589  0.00  0.00    +0.000 A 
ATOM      5  C   UNL     1      42.851   5.674  11.903  0.00  0.00    +0.000 A 
ATOM      6  C   UNL     1      43.626   5.198  12.961  0.00  0.00    +0.000 A 
ATOM      7  C   UNL     1      44.761   4.424  12.714  0.00  0.00    +0.000 A 
ATOM      8  C   UNL     1      45.114   4.135  11.389  0.00  0.00    +0.000 A 
BRANCH   3   9
ATOM      9  C   UNL     1      44.698   4.262   8.890  0.00  0.00    +0.000 C 
BRANCH   9  10
ATOM     10  N   UNL     1      45.844   5.029   8.412  0.00  0.00    +0.000 NA
ATOM     11  H   UNL     1      46.679   4.720   8.904  0.00  0.00    +0.000 HD
ATOM     12  H   UNL     1      45.708   6.008   8.661  0.00  0.00    +0.000 HD
ENDBRANCH   9  10
ENDBRANCH   3   9
ENDBRANCH   2   7
ENDBRANCH   1   2
BRANCH   1  13
ATOM     13  C   UNL     1      47.346   5.414  14.354  0.00  0.00    +0.000 C 
BRANCH  13  14
ATOM     14  C   UNL     1      47.652   6.601  13.472  0.00  0.00    +0.000 A 
ATOM     15  C   UNL     1      48.870   6.681  12.783  0.00  0.00    +0.000 A 
ATOM     16  C   UNL     1      49.139   7.764  11.944  0.00  0.00    +0.000 A 
ATOM     17  C   UNL     1      48.185   8.766  11.767  0.00  0.00    +0.000 A 
ATOM     18  C   UNL     1      46.951   8.683  12.421  0.00  0.00    +0.000 A 
ATOM     19  C   UNL     1      46.694   7.610  13.287  0.00  0.00    +0.000 A 
BRANCH  18  20
ATOM     20  C   UNL     1      45.945   9.747  12.163  0.00  0.00    +0.000 C 
ATOM     21  N   UNL     1      44.721   9.612  12.759  0.00  0.00    +0.000 N 
ATOM     22  O   UNL     1      46.175  10.682  11.406  0.00  0.00    +0.000 OA
ATOM     23  H   UNL     1      44.414   8.753  13.187  0.00  0.00    +0.000 HD
ATOM     24  H   UNL     1      44.010  10.271  12.467  0.00  0.00    +0.000 HD
ENDBRANCH  18  20
ENDBRANCH  13  14
ENDBRANCH   1  13
TORSDOF 7
ENDMDL
MODEL 9
REMARK VINA RESULT:    -5.834      4.605      7.231
REMARK INTER + INTRA:          -8.905
REMARK INTER:                  -8.493
REMARK INTRA:                  -0.412
REMARK UNBOUND:                -0.855
REMARK  Name = 
REMARK  7 active torsions:
REMARK  status: ('A' for Active; 'I' for Inactive)
REMARK    1  A    between atoms: N_1  and  C_2
REMARK    2  A    between atoms: C_2  and  C_3
REMARK    3  A    between atoms: C_7  and  O_8
REMARK    4  A    between atoms: O_8  and  C_9
REMARK    5  A    between atoms: C_9  and  C_10
REMARK    6  A    between atoms: C_10  and  C_11
REMARK    7  A    between atoms: C_15  and  C_16
REMARK                            x       y       z     vdW  Elec       q    Type
REMARK                         _______ _______ _______ _____ _____    ______ ____
ROOT
ATOM      1  C   UNL     1      46.964   4.141  14.147  0.00  0.00    +0.000 C 
ENDROOT
BRANCH   1   2
ATOM      2  O   UNL     1      46.608   3.819  15.493  0.00  0.00    +0.000 OA
BRANCH   2   7
ATOM      3  C   UNL     1      49.648   2.788  17.232  0.00  0.00    +0.000 A 
ATOM      4  C   UNL     1      49.802   3.814  18.175  0.00  0.00    +0.000 A 
ATOM      5  C   UNL     1      48.881   4.857  18.242  0.00  0.00    +0.000 A 
ATOM      6  C   UNL     1      47.798   4.892  17.363  0.00  0.00    +0.000 A 
ATOM      7  C   UNL     1      47.626   3.885  16.412  0.00  0.00    +0.000 A 
ATOM      8  C   UNL     1      48.553   2.836  16.355  0.00  0.00    +0.000 A 
BRANCH   3   9
ATOM      9  C   UNL     1      50.669   1.681  17.144  0.00  0.00    +0.000 C 
BRANCH   9  10
ATOM     10  N   UNL     1      51.673   1.779  18.198  0.00  0.00    +0.000 NA
ATOM     11  H   UNL     1      51.654   2.719  18.588  0.00  0.00    +0.000 HD
ATOM     12  H   UNL     1      52.596   1.657  17.783  0.00  0.00    +0.000 HD
ENDBRANCH   9  10
ENDBRANCH   3   9
ENDBRANCH   2   7
ENDBRANCH   1   2
BRANCH   1  13
ATOM     13  C   UNL     1      46.306   5.458  13.740  0.00  0.00    +0.000 C 
BRANCH  13  14
ATOM     14  C   UNL     1      45.257   5.233  12.677  0.00  0.00    +0.000 A 
ATOM     15  C   UNL     1      43.899   5.426  12.964  0.00  0.00    +0.000 A 
ATOM     16  C   UNL     1      42.932   5.247  11.972  0.00  0.00    +0.000 A 
ATOM     17  C   UNL     1      43.316   4.896  10.678  0.00  0.00    +0.000 A 
ATOM     18  C   UNL     1      44.670   4.733  10.367  0.00  0.00    +0.000 A 
ATOM     19  C   UNL     1      45.637   4.884  11.371  0.00  0.00    +0.000 A 
BRANCH  18  20
ATOM     20  C   UNL     1      45.035   4.410   8.962  0.00  0.00    +0.000 C 
ATOM     21  N   UNL     1      44.352   3.393   8.354  0.00  0.00    +0.000 N 
ATOM     22  O   UNL     1      45.945   4.990   8.382  0.00  0.00    +0.000 OA
ATOM     23  H   UNL     1      43.773   2.743   8.863  0.00  0.00    +0.000 HD
ATOM     24  H   UNL     1      44.703   3.100   7.451  0.00  0.00    +0.000 HD
ENDBRANCH  18  20
ENDBRANCH  13  14
ENDBRANCH   1  13
TORSDOF 7
ENDMDL
