MODEL 1
REMARK VINA RESULT:    -7.916      0.000      0.000
REMARK INTER + INTRA:         -10.990
REMARK INTER:                 -10.230
REMARK INTRA:                  -0.760
REMARK UNBOUND:                -0.760
REMARK  Name = 
REMARK  5 active torsions:
REMARK  status: ('A' for Active; 'I' for Inactive)
REMARK    1  A    between atoms: C_2  and  C_4
REMARK    2  A    between atoms: C_7  and  C_8
REMARK    3  A    between atoms: C_8  and  S_9
REMARK    4  A    between atoms: S_9  and  C_10
REMARK    5  A    between atoms: C_14  and  N_15
REMARK                            x       y       z     vdW  Elec       q    Type
REMARK                         _______ _______ _______ _____ _____    ______ ____
ROOT
ATOM      1  S   UNL     1      43.743   5.131  10.796  0.00  0.00    +0.000 S 
ENDROOT
BRANCH   1   2
ATOM      2  C   UNL     1      44.886   5.182  12.180  0.00  0.00    +0.000 A 
ATOM      3  C   UNL     1      45.143   4.089  12.999  0.00  0.00    +0.000 A 
ATOM      4  N   UNL     1      46.158   4.024  13.894  0.00  0.00    +0.000 NA
ATOM      5  C   UNL     1      46.979   5.104  13.948  0.00  0.00    +0.000 A 
ATOM      6  C   UNL     1      46.832   6.272  13.196  0.00  0.00    +0.000 A 
ATOM      7  C   UNL     1      45.740   6.285  12.310  0.00  0.00    +0.000 A 
BRANCH   6   8
ATOM      8  N   UNL     1      47.713   7.332  13.248  0.00  0.00    +0.000 N 
ATOM      9  C   UNL     1      47.255   8.713  13.369  0.00  0.00    +0.000 C 
ATOM     10  C   UNL     1      47.638   9.504  12.122  0.00  0.00    +0.000 C 
ATOM     11  C   UNL     1      49.126   9.355  11.802  0.00  0.00    +0.000 C 
ATOM     12  C   UNL     1      49.539   7.885  11.733  0.00  0.00    +0.000 C 
ATOM     13  C   UNL     1      49.137   7.127  12.999  0.00  0.00    +0.000 C 
ENDBRANCH   6   8
ENDBRANCH   1   2
BRANCH   1  14
ATOM     14  C   UNL     1      43.696   3.363  10.349  0.00  0.00    +0.000 C 
BRANCH  14  18
ATOM     15  C   UNL     1      46.668   2.295   7.348  0.00  0.00    +0.000 A 
ATOM     16  C   UNL     1      46.293   3.625   7.507  0.00  0.00    +0.000 A 
ATOM     17  C   UNL     1      45.322   3.979   8.461  0.00  0.00    +0.000 A 
ATOM     18  C   UNL     1      44.716   3.000   9.276  0.00  0.00    +0.000 A 
ATOM     19  C   UNL     1      45.090   1.664   9.083  0.00  0.00    +0.000 A 
ATOM     20  C   UNL     1      46.056   1.309   8.129  0.00  0.00    +0.000 A 
BRANCH  15  22
ATOM     21  N   UNL     1      48.774   2.727   6.222  0.00  0.00    +0.000 N 
ATOM     22  C   UNL     1      47.691   1.909   6.346  0.00  0.00    +0.000 C 
ATOM     23  O   UNL     1      47.586   0.881   5.678  0.00  0.00    +0.000 OA
ATOM     24  H   UNL     1      49.517   2.413   5.610  0.00  0.00    +0.000 HD
ATOM     25  H   UNL     1      49.001   3.431   6.911  0.00  0.00    +0.000 HD
ENDBRANCH  15  22
ENDBRANCH  14  18
ENDBRANCH   1  14
TORSDOF 5
ENDMDL
MODEL 2
REMARK VINA RESULT:    -7.703      1.963      3.474
REMARK INTER + INTRA:         -10.715
REMARK INTER:                 -10.039
REMARK INTRA:                  -0.675
REMARK UNBOUND:                -0.760
REMARK  Name = 
REMARK  5 active torsions:
REMARK  status: ('A' for Active; 'I' for Inactive)
REMARK    1  A    between atoms: C_2  and  C_4
REMARK    2  A    between atoms: C_7  and  C_8
REMARK    3  A    between atoms: C_8  and  S_9
REMARK    4  A    between atoms: S_9  and  C_10
REMARK    5  A    between atoms: C_14  and  N_15
REMARK                            x       y       z     vdW  Elec       q    Type
REMARK                         _______ _______ _______ _____ _____    ______ ____
ROOT
ATOM      1  S   UNL     1      44.239   3.530  12.184  0.00  0.00    +0.000 S 
ENDROOT
BRANCH   1   2
ATOM      2  C   UNL     1      45.617   4.561  12.695  0.00  0.00    +0.000 A 
ATOM      3  C   UNL     1      45.842   5.839  12.197  0.00  0.00    +0.000 A 
ATOM      4  N   UNL     1      46.723   6.723  12.723  0.00  0.00    +0.000 NA
ATOM      5  C   UNL     1      47.395   6.312  13.830  0.00  0.00    +0.000 A 
ATOM      6  C   UNL     1      47.279   5.055  14.428  0.00  0.00    +0.000 A 
ATOM      7  C   UNL     1      46.370   4.177  13.812  0.00  0.00    +0.000 A 
BRANCH   6   8
ATOM      8  N   UNL     1      47.947   4.691  15.578  0.00  0.00    +0.000 N 
ATOM      9  C   UNL     1      47.880   3.334  16.114  0.00  0.00    +0.000 C 
ATOM     10  C   UNL     1      47.197   3.341  17.478  0.00  0.00    +0.000 C 
ATOM     11  C   UNL     1      47.840   4.363  18.418  0.00  0.00    +0.000 C 
ATOM     12  C   UNL     1      47.911   5.747  17.773  0.00  0.00    +0.000 C 
ATOM     13  C   UNL     1      48.601   5.698  16.409  0.00  0.00    +0.000 C 
ENDBRANCH   6   8
ENDBRANCH   1   2
BRANCH   1  14
ATOM     14  C   UNL     1      43.865   4.126  10.500  0.00  0.00    +0.000 C 
BRANCH  14  18
ATOM     15  C   UNL     1      46.604   2.441   7.562  0.00  0.00    +0.000 A 
ATOM     16  C   UNL     1      46.422   3.818   7.627  0.00  0.00    +0.000 A 
ATOM     17  C   UNL     1      45.527   4.372   8.561  0.00  0.00    +0.000 A 
ATOM     18  C   UNL     1      44.805   3.548   9.449  0.00  0.00    +0.000 A 
ATOM     19  C   UNL     1      44.984   2.162   9.351  0.00  0.00    +0.000 A 
ATOM     20  C   UNL     1      45.873   1.608   8.417  0.00  0.00    +0.000 A 
BRANCH  15  22
ATOM     21  N   UNL     1      48.607   2.608   6.202  0.00  0.00    +0.000 N 
ATOM     22  C   UNL     1      47.545   1.843   6.583  0.00  0.00    +0.000 C 
ATOM     23  O   UNL     1      47.393   0.700   6.156  0.00  0.00    +0.000 OA
ATOM     24  H   UNL     1      49.300   2.166   5.612  0.00  0.00    +0.000 HD
ATOM     25  H   UNL     1      48.884   3.439   6.708  0.00  0.00    +0.000 HD
ENDBRANCH  15  22
ENDBRANCH  14  18
ENDBRANCH   1  14
TORSDOF 5
ENDMDL
MODEL 3
REMARK VINA RESULT:    -7.378      0.791      1.687
REMARK INTER + INTRA:         -10.296
REMARK INTER:                  -9.555
REMARK INTRA:                  -0.741
REMARK UNBOUND:                -0.760
REMARK  Name = 
REMARK  5 active torsions:
REMARK  status: ('A' for Active; 'I' for Inactive)
REMARK    1  A    between atoms: C_2  and  C_4
REMARK    2  A    between atoms: C_7  and  C_8
REMARK    3  A    between atoms: C_8  and  S_9
REMARK    4  A    between atoms: S_9  and  C_10
REMARK    5  A    between atoms: C_14  and  N_15
REMARK                            x       y       z     vdW  Elec       q    Type
REMARK                         _______ _______ _______ _____ _____    ______ ____
ROOT
ATOM      1  S   UNL     1      43.600   5.023  10.789  0.00  0.00    +0.000 S 
ENDROOT
BRANCH   1   2
ATOM      2  C   UNL     1      44.957   5.429  11.893  0.00  0.00    +0.000 A 
ATOM      3  C   UNL     1      45.427   4.566  12.876  0.00  0.00    +0.000 A 
ATOM      4  N   UNL     1      46.583   4.740  13.562  0.00  0.00    +0.000 NA
ATOM      5  C   UNL     1      47.322   5.827  13.221  0.00  0.00    +0.000 A 
ATOM      6  C   UNL     1      46.967   6.782  12.265  0.00  0.00    +0.000 A 
ATOM      7  C   UNL     1      45.741   6.556  11.615  0.00  0.00    +0.000 A 
BRANCH   6   8
ATOM      8  N   UNL     1      47.767   7.850  11.917  0.00  0.00    +0.000 N 
ATOM      9  C   UNL     1      49.160   7.673  11.515  0.00  0.00    +0.000 C 
ATOM     10  C   UNL     1      50.086   8.349  12.523  0.00  0.00    +0.000 C 
ATOM     11  C   UNL     1      49.676   9.802  12.769  0.00  0.00    +0.000 C 
ATOM     12  C   UNL     1      48.198   9.910  13.144  0.00  0.00    +0.000 C 
ATOM     13  C   UNL     1      47.304   9.221  12.112  0.00  0.00    +0.000 C 
ENDBRANCH   6   8
ENDBRANCH   1   2
BRANCH   1  14
ATOM     14  C   UNL     1      43.850   3.249  10.445  0.00  0.00    +0.000 C 
BRANCH  14  18
ATOM     15  C   UNL     1      46.626   2.576   7.155  0.00  0.00    +0.000 A 
ATOM     16  C   UNL     1      46.185   1.500   7.920  0.00  0.00    +0.000 A 
ATOM     17  C   UNL     1      45.302   1.709   8.994  0.00  0.00    +0.000 A 
ATOM     18  C   UNL     1      44.843   3.003   9.315  0.00  0.00    +0.000 A 
ATOM     19  C   UNL     1      45.317   4.076   8.549  0.00  0.00    +0.000 A 
ATOM     20  C   UNL     1      46.202   3.870   7.478  0.00  0.00    +0.000 A 
BRANCH  15  22
ATOM     21  N   UNL     1      48.875   2.632   6.247  0.00  0.00    +0.000 N 
ATOM     22  C   UNL     1      47.557   2.371   6.019  0.00  0.00    +0.000 C 
ATOM     23  O   UNL     1      47.166   1.954   4.929  0.00  0.00    +0.000 OA
ATOM     24  H   UNL     1      49.523   2.399   5.504  0.00  0.00    +0.000 HD
ATOM     25  H   UNL     1      49.252   2.740   7.179  0.00  0.00    +0.000 HD
ENDBRANCH  15  22
ENDBRANCH  14  18
ENDBRANCH   1  14
TORSDOF 5
ENDMDL
MODEL 4
REMARK VINA RESULT:    -7.035      1.496      2.960
REMARK INTER + INTRA:          -9.851
REMARK INTER:                  -9.207
REMARK INTRA:                  -0.644
REMARK UNBOUND:                -0.760
REMARK  Name = 
REMARK  5 active torsions:
REMARK  status: ('A' for Active; 'I' for Inactive)
REMARK    1  A    between atoms: C_2  and  C_4
REMARK    2  A    between atoms: C_7  and  C_8
REMARK    3  A    between atoms: C_8  and  S_9
REMARK    4  A    between atoms: S_9  and  C_10
REMARK    5  A    between atoms: C_14  and  N_15
REMARK                            x       y       z     vdW  Elec       q    Type
REMARK                         _______ _______ _______ _____ _____    ______ ____
ROOT
ATOM      1  S   UNL     1      43.363   5.149  10.665  0.00  0.00    +0.000 S 
ENDROOT
BRANCH   1   2
ATOM      2  C   UNL     1      44.611   6.188  11.430  0.00  0.00    +0.000 A 
ATOM      3  C   UNL     1      44.502   7.571  11.525  0.00  0.00    +0.000 A 
ATOM      4  N   UNL     1      45.301   8.352  12.291  0.00  0.00    +0.000 NA
ATOM      5  C   UNL     1      46.243   7.706  13.025  0.00  0.00    +0.000 A 
ATOM      6  C   UNL     1      46.475   6.329  13.017  0.00  0.00    +0.000 A 
ATOM      7  C   UNL     1      45.630   5.582  12.176  0.00  0.00    +0.000 A 
BRANCH   6   8
ATOM      8  N   UNL     1      47.414   5.706  13.811  0.00  0.00    +0.000 N 
ATOM      9  C   UNL     1      47.203   4.366  14.353  0.00  0.00    +0.000 C 
ATOM     10  C   UNL     1      47.134   4.421  15.876  0.00  0.00    +0.000 C 
ATOM     11  C   UNL     1      48.339   5.159  16.462  0.00  0.00    +0.000 C 
ATOM     12  C   UNL     1      48.519   6.534  15.818  0.00  0.00    +0.000 C 
ATOM     13  C   UNL     1      48.583   6.437  14.293  0.00  0.00    +0.000 C 
ENDBRANCH   6   8
ENDBRANCH   1   2
BRANCH   1  14
ATOM     14  C   UNL     1      44.085   3.476  10.763  0.00  0.00    +0.000 C 
BRANCH  14  18
ATOM     15  C   UNL     1      46.580   2.580   7.306  0.00  0.00    +0.000 A 
ATOM     16  C   UNL     1      46.133   1.546   8.124  0.00  0.00    +0.000 A 
ATOM     17  C   UNL     1      45.341   1.826   9.251  0.00  0.00    +0.000 A 
ATOM     18  C   UNL     1      44.981   3.151   9.573  0.00  0.00    +0.000 A 
ATOM     19  C   UNL     1      45.461   4.179   8.752  0.00  0.00    +0.000 A 
ATOM     20  C   UNL     1      46.255   3.902   7.628  0.00  0.00    +0.000 A 
BRANCH  15  22
ATOM     21  N   UNL     1      47.286   3.147   5.055  0.00  0.00    +0.000 N 
ATOM     22  C   UNL     1      47.416   2.299   6.113  0.00  0.00    +0.000 C 
ATOM     23  O   UNL     1      48.214   1.363   6.089  0.00  0.00    +0.000 OA
ATOM     24  H   UNL     1      47.925   3.015   4.281  0.00  0.00    +0.000 HD
ATOM     25  H   UNL     1      46.828   4.045   5.135  0.00  0.00    +0.000 HD
ENDBRANCH  15  22
ENDBRANCH  14  18
ENDBRANCH   1  14
TORSDOF 5
ENDMDL
MODEL 5
REMARK VINA RESULT:    -6.916      3.829      7.869
REMARK INTER + INTRA:          -9.698
REMARK INTER:                  -9.094
REMARK INTRA:                  -0.604
REMARK UNBOUND:                -0.760
REMARK  Name = 
REMARK  5 active torsions:
REMARK  status: ('A' for Active; 'I' for Inactive)
REMARK    1  A    between atoms: C_2  and  C_4
REMARK    2  A    between atoms: C_7  and  C_8
REMARK    3  A    between atoms: C_8  and  S_9
REMARK    4  A    between atoms: S_9  and  C_10
REMARK    5  A    between atoms: C_14  and  N_15
REMARK                            x       y       z     vdW  Elec       q    Type
REMARK                         _______ _______ _______ _____ _____    ______ ____
ROOT
ATOM      1  S   UNL     1      45.388   6.365  12.876  0.00  0.00    +0.000 S 
ENDROOT
BRANCH   1   2
ATOM      2  C   UNL     1      44.829   4.750  12.328  0.00  0.00    +0.000 A 
ATOM      3  C   UNL     1      43.937   3.964  13.049  0.00  0.00    +0.000 A 
ATOM      4  N   UNL     1      43.321   2.860  12.562  0.00  0.00    +0.000 NA
ATOM      5  C   UNL     1      43.594   2.543  11.269  0.00  0.00    +0.000 A 
ATOM      6  C   UNL     1      44.476   3.232  10.435  0.00  0.00    +0.000 A 
ATOM      7  C   UNL     1      45.105   4.349  11.014  0.00  0.00    +0.000 A 
BRANCH   6   8
ATOM      8  N   UNL     1      44.693   2.905   9.113  0.00  0.00    +0.000 N 
ATOM      9  C   UNL     1      44.992   1.538   8.694  0.00  0.00    +0.000 C 
ATOM     10  C   UNL     1      46.397   1.466   8.102  0.00  0.00    +0.000 C 
ATOM     11  C   UNL     1      46.598   2.521   7.014  0.00  0.00    +0.000 C 
ATOM     12  C   UNL     1      46.227   3.917   7.513  0.00  0.00    +0.000 C 
ATOM     13  C   UNL     1      44.814   3.948   8.099  0.00  0.00    +0.000 C 
ENDBRANCH   6   8
ENDBRANCH   1   2
BRANCH   1  14
ATOM     14  C   UNL     1      47.190   6.148  13.068  0.00  0.00    +0.000 C 
BRANCH  14  18
ATOM     15  C   UNL     1      48.383   4.678  16.992  0.00  0.00    +0.000 A 
ATOM     16  C   UNL     1      47.487   3.944  16.221  0.00  0.00    +0.000 A 
ATOM     17  C   UNL     1      47.082   4.418  14.961  0.00  0.00    +0.000 A 
ATOM     18  C   UNL     1      47.577   5.636  14.451  0.00  0.00    +0.000 A 
ATOM     19  C   UNL     1      48.458   6.373  15.253  0.00  0.00    +0.000 A 
ATOM     20  C   UNL     1      48.860   5.903  16.513  0.00  0.00    +0.000 A 
BRANCH  15  22
ATOM     21  N   UNL     1      48.054   3.225  18.907  0.00  0.00    +0.000 N 
ATOM     22  C   UNL     1      48.818   4.190  18.324  0.00  0.00    +0.000 C 
ATOM     23  O   UNL     1      49.838   4.613  18.865  0.00  0.00    +0.000 OA
ATOM     24  H   UNL     1      48.403   2.822  19.768  0.00  0.00    +0.000 HD
ATOM     25  H   UNL     1      47.362   2.697  18.391  0.00  0.00    +0.000 HD
ENDBRANCH  15  22
ENDBRANCH  14  18
ENDBRANCH   1  14
TORSDOF 5
ENDMDL
MODEL 6
REMARK VINA RESULT:    -6.900      1.905      2.643
REMARK INTER + INTRA:          -9.677
REMARK INTER:                  -9.125
REMARK INTRA:                  -0.552
REMARK UNBOUND:                -0.760
REMARK  Name = 
REMARK  5 active torsions:
REMARK  status: ('A' for Active; 'I' for Inactive)
REMARK    1  A    between atoms: C_2  and  C_4
REMARK    2  A    between atoms: C_7  and  C_8
REMARK    3  A    between atoms: C_8  and  S_9
REMARK    4  A    between atoms: S_9  and  C_10
REMARK    5  A    between atoms: C_14  and  N_15
REMARK                            x       y       z     vdW  Elec       q    Type
REMARK                         _______ _______ _______ _____ _____    ______ ____
ROOT
ATOM      1  S   UNL     1      44.770   4.071   8.631  0.00  0.00    +0.000 S 
ENDROOT
BRANCH   1   2
ATOM      2  C   UNL     1      44.961   4.247  10.408  0.00  0.00    +0.000 A 
ATOM      3  C   UNL     1      44.776   3.201  11.304  0.00  0.00    +0.000 A 
ATOM      4  N   UNL     1      45.134   3.237  12.610  0.00  0.00    +0.000 NA
ATOM      5  C   UNL     1      45.738   4.378  13.033  0.00  0.00    +0.000 A 
ATOM      6  C   UNL     1      45.975   5.509  12.249  0.00  0.00    +0.000 A 
ATOM      7  C   UNL     1      45.550   5.414  10.912  0.00  0.00    +0.000 A 
BRANCH   6   8
ATOM      8  N   UNL     1      46.631   6.633  12.705  0.00  0.00    +0.000 N 
ATOM      9  C   UNL     1      45.934   7.894  12.938  0.00  0.00    +0.000 C 
ATOM     10  C   UNL     1      46.455   8.965  11.983  0.00  0.00    +0.000 C 
ATOM     11  C   UNL     1      47.980   9.065  12.036  0.00  0.00    +0.000 C 
ATOM     12  C   UNL     1      48.636   7.700  11.824  0.00  0.00    +0.000 C 
ATOM     13  C   UNL     1      48.088   6.655  12.797  0.00  0.00    +0.000 C 
ENDBRANCH   6   8
ENDBRANCH   1   2
BRANCH   1  14
ATOM     14  C   UNL     1      46.490   4.019   8.023  0.00  0.00    +0.000 C 
BRANCH  14  18
ATOM     15  C   UNL     1      47.037   0.929   5.001  0.00  0.00    +0.000 A 
ATOM     16  C   UNL     1      47.100   0.596   6.350  0.00  0.00    +0.000 A 
ATOM     17  C   UNL     1      46.941   1.588   7.333  0.00  0.00    +0.000 A 
ATOM     18  C   UNL     1      46.711   2.933   6.976  0.00  0.00    +0.000 A 
ATOM     19  C   UNL     1      46.677   3.252   5.612  0.00  0.00    +0.000 A 
ATOM     20  C   UNL     1      46.839   2.263   4.629  0.00  0.00    +0.000 A 
BRANCH  15  22
ATOM     21  N   UNL     1      46.962  -1.399   4.318  0.00  0.00    +0.000 N 
ATOM     22  C   UNL     1      47.203  -0.108   3.953  0.00  0.00    +0.000 C 
ATOM     23  O   UNL     1      47.512   0.183   2.799  0.00  0.00    +0.000 OA
ATOM     24  H   UNL     1      46.978  -2.094   3.583  0.00  0.00    +0.000 HD
ATOM     25  H   UNL     1      46.482  -1.637   5.176  0.00  0.00    +0.000 HD
ENDBRANCH  15  22
ENDBRANCH  14  18
ENDBRANCH   1  14
TORSDOF 5
ENDMDL
MODEL 7
REMARK VINA RESULT:    -6.881      1.686      2.415
REMARK INTER + INTRA:          -9.653
REMARK INTER:                  -8.986
REMARK INTRA:                  -0.667
REMARK UNBOUND:                -0.760
REMARK  Name = 
REMARK  5 active torsions:
REMARK  status: ('A' for Active; 'I' for Inactive)
REMARK    1  A    between atoms: C_2  and  C_4
REMARK    2  A    between atoms: C_7  and  C_8
REMARK    3  A    between atoms: C_8  and  S_9
REMARK    4  A    between atoms: S_9  and  C_10
REMARK    5  A    between atoms: C_14  and  N_15
REMARK                            x       y       z     vdW  Elec       q    Type
REMARK                         _______ _______ _______ _____ _____    ______ ____
ROOT
ATOM      1  S   UNL     1      43.388   5.051  10.666  0.00  0.00    +0.000 S 
ENDROOT
BRANCH   1   2
ATOM      2  C   UNL     1      44.585   5.918  11.685  0.00  0.00    +0.000 A 
ATOM      3  C   UNL     1      45.689   5.301  12.261  0.00  0.00    +0.000 A 
ATOM      4  N   UNL     1      46.725   5.960  12.834  0.00  0.00    +0.000 NA
ATOM      5  C   UNL     1      46.662   7.316  12.801  0.00  0.00    +0.000 A 
ATOM      6  C   UNL     1      45.611   8.067  12.270  0.00  0.00    +0.000 A 
ATOM      7  C   UNL     1      44.555   7.318  11.720  0.00  0.00    +0.000 A 
BRANCH   6   8
ATOM      8  N   UNL     1      45.605   9.445  12.216  0.00  0.00    +0.000 N 
ATOM      9  C   UNL     1      44.446  10.195  11.740  0.00  0.00    +0.000 C 
ATOM     10  C   UNL     1      44.799  10.953  10.464  0.00  0.00    +0.000 C 
ATOM     11  C   UNL     1      46.066  11.790  10.645  0.00  0.00    +0.000 C 
ATOM     12  C   UNL     1      47.222  10.946  11.183  0.00  0.00    +0.000 C 
ATOM     13  C   UNL     1      46.829  10.203  12.460  0.00  0.00    +0.000 C 
ENDBRANCH   6   8
ENDBRANCH   1   2
BRANCH   1  14
ATOM     14  C   UNL     1      44.009   3.335  10.649  0.00  0.00    +0.000 C 
BRANCH  14  18
ATOM     15  C   UNL     1      46.624   2.579   7.248  0.00  0.00    +0.000 A 
ATOM     16  C   UNL     1      46.198   1.519   8.042  0.00  0.00    +0.000 A 
ATOM     17  C   UNL     1      45.367   1.754   9.152  0.00  0.00    +0.000 A 
ATOM     18  C   UNL     1      44.946   3.060   9.479  0.00  0.00    +0.000 A 
ATOM     19  C   UNL     1      45.406   4.116   8.683  0.00  0.00    +0.000 A 
ATOM     20  C   UNL     1      46.239   3.884   7.576  0.00  0.00    +0.000 A 
BRANCH  15  22
ATOM     21  N   UNL     1      47.404   3.235   5.046  0.00  0.00    +0.000 N 
ATOM     22  C   UNL     1      47.500   2.346   6.074  0.00  0.00    +0.000 C 
ATOM     23  O   UNL     1      48.301   1.412   6.040  0.00  0.00    +0.000 OA
ATOM     24  H   UNL     1      48.069   3.134   4.290  0.00  0.00    +0.000 HD
ATOM     25  H   UNL     1      46.941   4.129   5.146  0.00  0.00    +0.000 HD
ENDBRANCH  15  22
ENDBRANCH  14  18
ENDBRANCH   1  14
TORSDOF 5
ENDMDL
MODEL 8
REMARK VINA RESULT:    -6.430      4.385      6.474
REMARK INTER + INTRA:          -9.069
REMARK INTER:                  -8.146
REMARK INTRA:                  -0.923
REMARK UNBOUND:                -0.760
REMARK  Name = 
REMARK  5 active torsions:
REMARK  status: ('A' for Active; 'I' for Inactive)
REMARK    1  A    between atoms: C_2  and  C_4
REMARK    2  A    between atoms: C_7  and  C_8
REMARK    3  A    between atoms: C_8  and  S_9
REMARK    4  A    between atoms: S_9  and  C_10
REMARK    5  A    between atoms: C_14  and  N_15
REMARK                            x       y       z     vdW  Elec       q    Type
REMARK                         _______ _______ _______ _____ _____    ______ ____
ROOT
ATOM      1  S   UNL     1      48.618   8.310  13.595  0.00  0.00    +0.000 S 
ENDROOT
BRANCH   1   2
ATOM      2  C   UNL     1      48.762   8.033  15.363  0.00  0.00    +0.000 A 
ATOM      3  C   UNL     1      48.599   9.037  16.310  0.00  0.00    +0.000 A 
ATOM      4  N   UNL     1      48.471   8.822  17.641  0.00  0.00    +0.000 NA
ATOM      5  C   UNL     1      48.476   7.524  18.041  0.00  0.00    +0.000 A 
ATOM      6  C   UNL     1      48.645   6.419  17.204  0.00  0.00    +0.000 A 
ATOM      7  C   UNL     1      48.804   6.716  15.839  0.00  0.00    +0.000 A 
BRANCH   6   8
ATOM      8  N   UNL     1      48.601   5.112  17.643  0.00  0.00    +0.000 N 
ATOM      9  C   UNL     1      49.741   4.478  18.299  0.00  0.00    +0.000 C 
ATOM     10  C   UNL     1      50.262   3.324  17.447  0.00  0.00    +0.000 C 
ATOM     11  C   UNL     1      49.136   2.363  17.064  0.00  0.00    +0.000 C 
ATOM     12  C   UNL     1      47.962   3.104  16.422  0.00  0.00    +0.000 C 
ATOM     13  C   UNL     1      47.471   4.252  17.305  0.00  0.00    +0.000 C 
ENDBRANCH   6   8
ENDBRANCH   1   2
BRANCH   1  14
ATOM     14  C   UNL     1      48.571   6.622  12.903  0.00  0.00    +0.000 C 
BRANCH  14  18
ATOM     15  C   UNL     1      44.507   5.411  11.907  0.00  0.00    +0.000 A 
ATOM     16  C   UNL     1      45.078   4.997  13.106  0.00  0.00    +0.000 A 
ATOM     17  C   UNL     1      46.395   5.368  13.429  0.00  0.00    +0.000 A 
ATOM     18  C   UNL     1      47.159   6.168  12.554  0.00  0.00    +0.000 A 
ATOM     19  C   UNL     1      46.575   6.554  11.340  0.00  0.00    +0.000 A 
ATOM     20  C   UNL     1      45.262   6.181  11.014  0.00  0.00    +0.000 A 
BRANCH  15  22
ATOM     21  N   UNL     1      42.160   5.986  11.685  0.00  0.00    +0.000 N 
ATOM     22  C   UNL     1      43.119   5.026  11.553  0.00  0.00    +0.000 C 
ATOM     23  O   UNL     1      42.847   3.904  11.128  0.00  0.00    +0.000 OA
ATOM     24  H   UNL     1      41.232   5.755  11.352  0.00  0.00    +0.000 HD
ATOM     25  H   UNL     1      42.387   6.965  11.798  0.00  0.00    +0.000 HD
ENDBRANCH  15  22
ENDBRANCH  14  18
ENDBRANCH   1  14
TORSDOF 5
ENDMDL
MODEL 9
REMARK VINA RESULT:    -6.342      4.289      7.513
REMARK INTER + INTRA:          -8.956
REMARK INTER:                  -8.044
REMARK INTRA:                  -0.912
REMARK UNBOUND:                -0.760
REMARK  Name = 
REMARK  5 active torsions:
REMARK  status: ('A' for Active; 'I' for Inactive)
REMARK    1  A    between atoms: C_2  and  C_4
REMARK    2  A    between atoms: C_7  and  C_8
REMARK    3  A    between atoms: C_8  and  S_9
REMARK    4  A    between atoms: S_9  and  C_10
REMARK    5  A    between atoms: C_14  and  N_15
REMARK                            x       y       z     vdW  Elec       q    Type
REMARK                         _______ _______ _______ _____ _____    ______ ____
ROOT
ATOM      1  S   UNL     1      47.757   8.932  13.462  0.00  0.00    +0.000 S 
ENDROOT
BRANCH   1   2
ATOM      2  C   UNL     1      46.156   8.826  12.656  0.00  0.00    +0.000 A 
ATOM      3  C   UNL     1      45.547   9.902  12.023  0.00  0.00    +0.000 A 
ATOM      4  N   UNL     1      44.464   9.804  11.214  0.00  0.00    +0.000 NA
ATOM      5  C   UNL     1      43.984   8.550  11.008  0.00  0.00    +0.000 A 
ATOM      6  C   UNL     1      44.486   7.383  11.589  0.00  0.00    +0.000 A 
ATOM      7  C   UNL     1      45.590   7.563  12.441  0.00  0.00    +0.000 A 
BRANCH   6   8
ATOM      8  N   UNL     1      43.997   6.123  11.319  0.00  0.00    +0.000 N 
ATOM      9  C   UNL     1      42.714   5.663  11.842  0.00  0.00    +0.000 C 
ATOM     10  C   UNL     1      42.925   4.495  12.801  0.00  0.00    +0.000 C 
ATOM     11  C   UNL     1      43.780   3.398  12.164  0.00  0.00    +0.000 C 
ATOM     12  C   UNL     1      45.086   3.962  11.604  0.00  0.00    +0.000 C 
ATOM     13  C   UNL     1      44.832   5.129  10.650  0.00  0.00    +0.000 C 
ENDBRANCH   6   8
ENDBRANCH   1   2
BRANCH   1  14
ATOM     14  C   UNL     1      48.467   7.269  13.215  0.00  0.00    +0.000 C 
BRANCH  14  18
ATOM     15  C   UNL     1      47.685   4.537  16.518  0.00  0.00    +0.000 A 
ATOM     16  C   UNL     1      47.064   4.334  15.290  0.00  0.00    +0.000 A 
ATOM     17  C   UNL     1      47.296   5.219  14.222  0.00  0.00    +0.000 A 
ATOM     18  C   UNL     1      48.163   6.322  14.370  0.00  0.00    +0.000 A 
ATOM     19  C   UNL     1      48.759   6.524  15.622  0.00  0.00    +0.000 A 
ATOM     20  C   UNL     1      48.525   5.643  16.690  0.00  0.00    +0.000 A 
BRANCH  15  22
ATOM     21  N   UNL     1      48.100   3.885  18.818  0.00  0.00    +0.000 N 
ATOM     22  C   UNL     1      47.449   3.611  17.652  0.00  0.00    +0.000 C 
ATOM     23  O   UNL     1      46.678   2.657  17.559  0.00  0.00    +0.000 OA
ATOM     24  H   UNL     1      47.864   3.313  19.619  0.00  0.00    +0.000 HD
ATOM     25  H   UNL     1      48.540   4.778  18.994  0.00  0.00    +0.000 HD
ENDBRANCH  15  22
ENDBRANCH  14  18
ENDBRANCH   1  14
TORSDOF 5
ENDMDL
