MODEL 1
REMARK VINA RESULT:    -8.035      0.000      0.000
REMARK INTER + INTRA:         -11.811
REMARK INTER:                 -10.853
REMARK INTRA:                  -0.958
REMARK UNBOUND:                -0.958
REMARK  Name = 
REMARK  6 active torsions:
REMARK  status: ('A' for Active; 'I' for Inactive)
REMARK    1  A    between atoms: C_2  and  C_20
REMARK    2  A    between atoms: N_3  and  C_4
REMARK    3  A    between atoms: C_4  and  C_5
REMARK    4  A    between atoms: C_8  and  C_9
REMARK    5  A    between atoms: C_9  and  C_10
REMARK    6  A    between atoms: C_10  and  N_11
REMARK                            x       y       z     vdW  Elec       q    Type
REMARK                         _______ _______ _______ _____ _____    ______ ____
ROOT
ATOM      1  C   UNL     1      47.439   7.333  13.373  0.00  0.00    +0.000 C 
ENDROOT
BRANCH   1   2
ATOM      2  C   UNL     1      46.642   6.223  12.741  0.00  0.00    +0.000 A 
ATOM      3  C   UNL     1      46.386   5.046  13.453  0.00  0.00    +0.000 A 
ATOM      4  C   UNL     1      45.574   4.045  12.912  0.00  0.00    +0.000 A 
ATOM      5  C   UNL     1      45.008   4.179  11.636  0.00  0.00    +0.000 A 
ATOM      6  C   UNL     1      45.298   5.345  10.910  0.00  0.00    +0.000 A 
ATOM      7  C   UNL     1      46.112   6.350  11.452  0.00  0.00    +0.000 A 
BRANCH   5   8
ATOM      8  C   UNL     1      44.098   3.129  11.015  0.00  0.00    +0.000 C 
BRANCH   8   9
ATOM      9  C   UNL     1      44.292   2.911   9.510  0.00  0.00    +0.000 C 
BRANCH   9  10
ATOM     10  N   UNL     1      45.159   1.762   9.217  0.00  0.00    +0.000 N 
ATOM     11  C   UNL     1      45.964   2.001   8.077  0.00  0.00    +0.000 A 
ATOM     12  C   UNL     1      46.855   1.016   7.661  0.00  0.00    +0.000 A 
ATOM     13  C   UNL     1      47.647   1.238   6.536  0.00  0.00    +0.000 A 
ATOM     14  C   UNL     1      47.536   2.442   5.851  0.00  0.00    +0.000 A 
ATOM     15  C   UNL     1      46.635   3.373   6.332  0.00  0.00    +0.000 A 
ATOM     16  N   UNL     1      45.864   3.176   7.420  0.00  0.00    +0.000 NA
ATOM     17  H   UNL     1      44.629   0.913   9.049  0.00  0.00    +0.000 HD
ENDBRANCH   9  10
ENDBRANCH   8   9
ENDBRANCH   5   8
ENDBRANCH   1   2
BRANCH   1  20
ATOM     18  O   UNL     1      49.966   6.901  14.405  0.00  0.00    +0.000 OA
ATOM     19  C   UNL     1      49.020   6.944  15.187  0.00  0.00    +0.000 C 
ATOM     20  N   UNL     1      47.722   7.094  14.764  0.00  0.00    +0.000 N 
ATOM     21  H   UNL     1      47.008   7.369  15.433  0.00  0.00    +0.000 HD
BRANCH  19  22
ATOM     22  C   UNL     1      49.216   6.803  16.631  0.00  0.00    +0.000 A 
ATOM     23  C   UNL     1      49.729   7.860  17.378  0.00  0.00    +0.000 A 
ATOM     24  S   UNL     1      49.854   7.509  19.045  0.00  0.00    +0.000 S 
ATOM     25  C   UNL     1      49.192   5.957  18.826  0.00  0.00    +0.000 A 
ATOM     26  N   UNL     1      48.977   5.124  19.880  0.00  0.00    +0.000 NA
ATOM     27  C   UNL     1      48.442   3.992  19.563  0.00  0.00    +0.000 A 
ATOM     28  N   UNL     1      48.115   3.607  18.289  0.00  0.00    +0.000 N 
ATOM     29  C   UNL     1      48.368   4.388  17.191  0.00  0.00    +0.000 A 
ATOM     30  O   UNL     1      48.162   3.972  16.056  0.00  0.00    +0.000 OA
ATOM     31  C   UNL     1      48.923   5.692  17.495  0.00  0.00    +0.000 A 
ATOM     32  H   UNL     1      47.731   2.693  18.104  0.00  0.00    +0.000 HD
ENDBRANCH  19  22
ENDBRANCH   1  20
TORSDOF 6
ENDMDL
MODEL 2
REMARK VINA RESULT:    -7.828      1.949      2.653
REMARK INTER + INTRA:         -11.531
REMARK INTER:                 -10.610
REMARK INTRA:                  -0.921
REMARK UNBOUND:                -0.958
REMARK  Name = 
REMARK  6 active torsions:
REMARK  status: ('A' for Active; 'I' for Inactive)
REMARK    1  A    between atoms: C_2  and  C_20
REMARK    2  A    between atoms: N_3  and  C_4
REMARK    3  A    between atoms: C_4  and  C_5
REMARK    4  A    between atoms: C_8  and  C_9
REMARK    5  A    between atoms: C_9  and  C_10
REMARK    6  A    between atoms: C_10  and  N_11
REMARK                            x       y       z     vdW  Elec       q    Type
REMARK                         _______ _______ _______ _____ _____    ______ ____
ROOT
ATOM      1  C   UNL     1      48.387   6.569  14.168  0.00  0.00    +0.000 C 
ENDROOT
BRANCH   1   2
ATOM      2  C   UNL     1      47.243   6.139  13.287  0.00  0.00    +0.000 A 
ATOM      3  C   UNL     1      46.521   4.978  13.588  0.00  0.00    +0.000 A 
ATOM      4  C   UNL     1      45.403   4.616  12.832  0.00  0.00    +0.000 A 
ATOM      5  C   UNL     1      44.983   5.389  11.740  0.00  0.00    +0.000 A 
ATOM      6  C   UNL     1      45.732   6.531  11.418  0.00  0.00    +0.000 A 
ATOM      7  C   UNL     1      46.853   6.897  12.177  0.00  0.00    +0.000 A 
BRANCH   5   8
ATOM      8  C   UNL     1      43.758   5.049  10.902  0.00  0.00    +0.000 C 
BRANCH   8   9
ATOM      9  C   UNL     1      44.001   4.029   9.783  0.00  0.00    +0.000 C 
BRANCH   9  10
ATOM     10  N   UNL     1      44.949   4.517   8.774  0.00  0.00    +0.000 N 
ATOM     11  C   UNL     1      45.718   3.458   8.232  0.00  0.00    +0.000 A 
ATOM     12  C   UNL     1      46.663   3.742   7.251  0.00  0.00    +0.000 A 
ATOM     13  C   UNL     1      47.429   2.709   6.717  0.00  0.00    +0.000 A 
ATOM     14  C   UNL     1      47.233   1.410   7.171  0.00  0.00    +0.000 A 
ATOM     15  C   UNL     1      46.268   1.208   8.139  0.00  0.00    +0.000 A 
ATOM     16  N   UNL     1      45.517   2.195   8.665  0.00  0.00    +0.000 NA
ATOM     17  H   UNL     1      45.593   5.205   9.151  0.00  0.00    +0.000 HD
ENDBRANCH   9  10
ENDBRANCH   8   9
ENDBRANCH   5   8
ENDBRANCH   1   2
BRANCH   1  20
ATOM     18  O   UNL     1      50.273   6.109  16.134  0.00  0.00    +0.000 OA
ATOM     19  C   UNL     1      49.105   6.269  16.477  0.00  0.00    +0.000 C 
ATOM     20  N   UNL     1      48.089   6.445  15.570  0.00  0.00    +0.000 N 
ATOM     21  H   UNL     1      47.197   6.814  15.886  0.00  0.00    +0.000 HD
BRANCH  19  22
ATOM     22  C   UNL     1      48.715   6.252  17.888  0.00  0.00    +0.000 A 
ATOM     23  C   UNL     1      48.874   5.097  18.649  0.00  0.00    +0.000 A 
ATOM     24  S   UNL     1      48.389   5.289  20.275  0.00  0.00    +0.000 S 
ATOM     25  C   UNL     1      47.990   6.924  20.023  0.00  0.00    +0.000 A 
ATOM     26  N   UNL     1      47.543   7.708  21.041  0.00  0.00    +0.000 NA
ATOM     27  C   UNL     1      47.310   8.934  20.705  0.00  0.00    +0.000 A 
ATOM     28  N   UNL     1      47.467   9.446  19.444  0.00  0.00    +0.000 N 
ATOM     29  C   UNL     1      47.857   8.680  18.376  0.00  0.00    +0.000 A 
ATOM     30  O   UNL     1      47.885   9.142  17.240  0.00  0.00    +0.000 OA
ATOM     31  C   UNL     1      48.180   7.306  18.707  0.00  0.00    +0.000 A 
ATOM     32  H   UNL     1      47.233  10.405  19.239  0.00  0.00    +0.000 HD
ENDBRANCH  19  22
ENDBRANCH   1  20
TORSDOF 6
ENDMDL
MODEL 3
REMARK VINA RESULT:    -7.532      1.562      1.850
REMARK INTER + INTRA:         -11.132
REMARK INTER:                 -10.097
REMARK INTRA:                  -1.035
REMARK UNBOUND:                -0.958
REMARK  Name = 
REMARK  6 active torsions:
REMARK  status: ('A' for Active; 'I' for Inactive)
REMARK    1  A    between atoms: C_2  and  C_20
REMARK    2  A    between atoms: N_3  and  C_4
REMARK    3  A    between atoms: C_4  and  C_5
REMARK    4  A    between atoms: C_8  and  C_9
REMARK    5  A    between atoms: C_9  and  C_10
REMARK    6  A    between atoms: C_10  and  N_11
REMARK                            x       y       z     vdW  Elec       q    Type
REMARK                         _______ _______ _______ _____ _____    ______ ____
ROOT
ATOM      1  C   UNL     1      47.825   7.602  13.035  0.00  0.00    +0.000 C 
ENDROOT
BRANCH   1   2
ATOM      2  C   UNL     1      46.842   6.545  12.604  0.00  0.00    +0.000 A 
ATOM      3  C   UNL     1      46.137   6.687  11.404  0.00  0.00    +0.000 A 
ATOM      4  C   UNL     1      45.288   5.674  10.949  0.00  0.00    +0.000 A 
ATOM      5  C   UNL     1      45.102   4.496  11.687  0.00  0.00    +0.000 A 
ATOM      6  C   UNL     1      45.782   4.374  12.909  0.00  0.00    +0.000 A 
ATOM      7  C   UNL     1      46.634   5.390  13.366  0.00  0.00    +0.000 A 
BRANCH   5   8
ATOM      8  C   UNL     1      44.209   3.355  11.222  0.00  0.00    +0.000 C 
BRANCH   8   9
ATOM      9  C   UNL     1      44.230   3.089   9.712  0.00  0.00    +0.000 C 
BRANCH   9  10
ATOM     10  N   UNL     1      44.978   1.873   9.366  0.00  0.00    +0.000 N 
ATOM     11  C   UNL     1      45.829   2.089   8.255  0.00  0.00    +0.000 A 
ATOM     12  C   UNL     1      46.621   1.041   7.798  0.00  0.00    +0.000 A 
ATOM     13  C   UNL     1      47.457   1.241   6.701  0.00  0.00    +0.000 A 
ATOM     14  C   UNL     1      47.488   2.487   6.085  0.00  0.00    +0.000 A 
ATOM     15  C   UNL     1      46.680   3.479   6.606  0.00  0.00    +0.000 A 
ATOM     16  N   UNL     1      45.867   3.304   7.667  0.00  0.00    +0.000 NA
ATOM     17  H   UNL     1      44.366   1.096   9.140  0.00  0.00    +0.000 HD
ENDBRANCH   9  10
ENDBRANCH   8   9
ENDBRANCH   5   8
ENDBRANCH   1   2
BRANCH   1  20
ATOM     18  O   UNL     1      49.127   8.934  15.076  0.00  0.00    +0.000 OA
ATOM     19  C   UNL     1      49.475   7.785  14.819  0.00  0.00    +0.000 C 
ATOM     20  N   UNL     1      48.929   7.064  13.785  0.00  0.00    +0.000 N 
ATOM     21  H   UNL     1      49.059   6.057  13.757  0.00  0.00    +0.000 HD
BRANCH  19  22
ATOM     22  C   UNL     1      50.528   7.117  15.586  0.00  0.00    +0.000 A 
ATOM     23  C   UNL     1      51.852   7.530  15.472  0.00  0.00    +0.000 A 
ATOM     24  S   UNL     1      52.922   6.647  16.468  0.00  0.00    +0.000 S 
ATOM     25  C   UNL     1      51.648   5.716  17.108  0.00  0.00    +0.000 A 
ATOM     26  N   UNL     1      51.871   4.778  18.068  0.00  0.00    +0.000 NA
ATOM     27  C   UNL     1      50.805   4.173  18.477  0.00  0.00    +0.000 A 
ATOM     28  N   UNL     1      49.539   4.407  18.006  0.00  0.00    +0.000 N 
ATOM     29  C   UNL     1      49.277   5.299  16.999  0.00  0.00    +0.000 A 
ATOM     30  O   UNL     1      48.150   5.408  16.526  0.00  0.00    +0.000 OA
ATOM     31  C   UNL     1      50.431   6.042  16.536  0.00  0.00    +0.000 A 
ATOM     32  H   UNL     1      48.752   3.874  18.343  0.00  0.00    +0.000 HD
ENDBRANCH  19  22
ENDBRANCH   1  20
TORSDOF 6
ENDMDL
MODEL 4
REMARK VINA RESULT:    -7.485      4.694      6.638
REMARK INTER + INTRA:         -11.068
REMARK INTER:                 -10.477
REMARK INTRA:                  -0.591
REMARK UNBOUND:                -0.958
REMARK  Name = 
REMARK  6 active torsions:
REMARK  status: ('A' for Active; 'I' for Inactive)
REMARK    1  A    between atoms: C_2  and  C_20
REMARK    2  A    between atoms: N_3  and  C_4
REMARK    3  A    between atoms: C_4  and  C_5
REMARK    4  A    between atoms: C_8  and  C_9
REMARK    5  A    between atoms: C_9  and  C_10
REMARK    6  A    between atoms: C_10  and  N_11
REMARK                            x       y       z     vdW  Elec       q    Type
REMARK                         _______ _______ _______ _____ _____    ______ ____
ROOT
ATOM      1  C   UNL     1      43.817   4.777  10.179  0.00  0.00    +0.000 C 
ENDROOT
BRANCH   1   2
ATOM      2  C   UNL     1      44.728   3.875   9.387  0.00  0.00    +0.000 A 
ATOM      3  C   UNL     1      44.672   2.489   9.565  0.00  0.00    +0.000 A 
ATOM      4  C   UNL     1      45.448   1.635   8.775  0.00  0.00    +0.000 A 
ATOM      5  C   UNL     1      46.317   2.141   7.797  0.00  0.00    +0.000 A 
ATOM      6  C   UNL     1      46.398   3.534   7.649  0.00  0.00    +0.000 A 
ATOM      7  C   UNL     1      45.619   4.391   8.440  0.00  0.00    +0.000 A 
BRANCH   5   8
ATOM      8  C   UNL     1      47.163   1.252   6.896  0.00  0.00    +0.000 C 
BRANCH   8   9
ATOM      9  C   UNL     1      47.684   1.928   5.622  0.00  0.00    +0.000 C 
BRANCH   9  10
ATOM     10  N   UNL     1      46.636   2.093   4.606  0.00  0.00    +0.000 N 
ATOM     11  C   UNL     1      46.487   0.923   3.823  0.00  0.00    +0.000 A 
ATOM     12  C   UNL     1      45.528   0.902   2.815  0.00  0.00    +0.000 A 
ATOM     13  C   UNL     1      45.378  -0.242   2.035  0.00  0.00    +0.000 A 
ATOM     14  C   UNL     1      46.187  -1.346   2.279  0.00  0.00    +0.000 A 
ATOM     15  C   UNL     1      47.109  -1.250   3.304  0.00  0.00    +0.000 A 
ATOM     16  N   UNL     1      47.266  -0.152   4.071  0.00  0.00    +0.000 NA
ATOM     17  H   UNL     1      46.829   2.865   3.975  0.00  0.00    +0.000 HD
ENDBRANCH   9  10
ENDBRANCH   8   9
ENDBRANCH   5   8
ENDBRANCH   1   2
BRANCH   1  20
ATOM     18  O   UNL     1      43.963   5.775  12.752  0.00  0.00    +0.000 OA
ATOM     19  C   UNL     1      44.508   6.409  11.852  0.00  0.00    +0.000 C 
ATOM     20  N   UNL     1      44.439   6.025  10.535  0.00  0.00    +0.000 N 
ATOM     21  H   UNL     1      45.091   6.423   9.865  0.00  0.00    +0.000 HD
BRANCH  19  22
ATOM     22  C   UNL     1      45.245   7.644  12.126  0.00  0.00    +0.000 A 
ATOM     23  C   UNL     1      46.443   7.607  12.833  0.00  0.00    +0.000 A 
ATOM     24  S   UNL     1      47.162   9.144  13.023  0.00  0.00    +0.000 S 
ATOM     25  C   UNL     1      45.920   9.898  12.136  0.00  0.00    +0.000 A 
ATOM     26  N   UNL     1      45.943  11.234  11.881  0.00  0.00    +0.000 NA
ATOM     27  C   UNL     1      44.949  11.657  11.172  0.00  0.00    +0.000 A 
ATOM     28  N   UNL     1      43.926  10.873  10.706  0.00  0.00    +0.000 N 
ATOM     29  C   UNL     1      43.831   9.535  10.989  0.00  0.00    +0.000 A 
ATOM     30  O   UNL     1      42.849   8.883  10.648  0.00  0.00    +0.000 OA
ATOM     31  C   UNL     1      44.947   8.997  11.741  0.00  0.00    +0.000 A 
ATOM     32  H   UNL     1      43.160  11.272  10.186  0.00  0.00    +0.000 HD
ENDBRANCH  19  22
ENDBRANCH   1  20
TORSDOF 6
ENDMDL
MODEL 5
REMARK VINA RESULT:    -7.220      5.059      9.280
REMARK INTER + INTRA:         -10.710
REMARK INTER:                  -9.970
REMARK INTRA:                  -0.740
REMARK UNBOUND:                -0.958
REMARK  Name = 
REMARK  6 active torsions:
REMARK  status: ('A' for Active; 'I' for Inactive)
REMARK    1  A    between atoms: C_2  and  C_20
REMARK    2  A    between atoms: N_3  and  C_4
REMARK    3  A    between atoms: C_4  and  C_5
REMARK    4  A    between atoms: C_8  and  C_9
REMARK    5  A    between atoms: C_9  and  C_10
REMARK    6  A    between atoms: C_10  and  N_11
REMARK                            x       y       z     vdW  Elec       q    Type
REMARK                         _______ _______ _______ _____ _____    ______ ____
ROOT
ATOM      1  C   UNL     1      47.282   3.430  16.889  0.00  0.00    +0.000 C 
ENDROOT
BRANCH   1   2
ATOM      2  C   UNL     1      48.741   3.305  17.243  0.00  0.00    +0.000 A 
ATOM      3  C   UNL     1      49.434   2.123  16.959  0.00  0.00    +0.000 A 
ATOM      4  C   UNL     1      50.807   2.024  17.201  0.00  0.00    +0.000 A 
ATOM      5  C   UNL     1      51.527   3.094  17.752  0.00  0.00    +0.000 A 
ATOM      6  C   UNL     1      50.820   4.265  18.070  0.00  0.00    +0.000 A 
ATOM      7  C   UNL     1      49.443   4.365  17.827  0.00  0.00    +0.000 A 
BRANCH   5   8
ATOM      8  C   UNL     1      53.026   3.044  18.010  0.00  0.00    +0.000 C 
BRANCH   8   9
ATOM      9  C   UNL     1      53.726   1.771  17.519  0.00  0.00    +0.000 C 
BRANCH   9  10
ATOM     10  N   UNL     1      53.756   0.716  18.541  0.00  0.00    +0.000 N 
ATOM     11  C   UNL     1      54.234  -0.505  18.008  0.00  0.00    +0.000 A 
ATOM     12  C   UNL     1      54.337  -1.612  18.844  0.00  0.00    +0.000 A 
ATOM     13  C   UNL     1      54.800  -2.821  18.329  0.00  0.00    +0.000 A 
ATOM     14  C   UNL     1      55.155  -2.899  16.987  0.00  0.00    +0.000 A 
ATOM     15  C   UNL     1      55.034  -1.753  16.224  0.00  0.00    +0.000 A 
ATOM     16  N   UNL     1      54.591  -0.575  16.707  0.00  0.00    +0.000 NA
ATOM     17  H   UNL     1      52.840   0.542  18.941  0.00  0.00    +0.000 HD
ENDBRANCH   9  10
ENDBRANCH   8   9
ENDBRANCH   5   8
ENDBRANCH   1   2
BRANCH   1  20
ATOM     18  O   UNL     1      47.320   3.142  14.141  0.00  0.00    +0.000 OA
ATOM     19  C   UNL     1      47.015   4.237  14.605  0.00  0.00    +0.000 C 
ATOM     20  N   UNL     1      47.025   4.494  15.954  0.00  0.00    +0.000 N 
ATOM     21  H   UNL     1      46.540   5.313  16.309  0.00  0.00    +0.000 HD
BRANCH  19  22
ATOM     22  C   UNL     1      46.647   5.358  13.737  0.00  0.00    +0.000 A 
ATOM     23  C   UNL     1      47.547   6.394  13.506  0.00  0.00    +0.000 A 
ATOM     24  S   UNL     1      46.943   7.588  12.445  0.00  0.00    +0.000 S 
ATOM     25  C   UNL     1      45.481   6.742  12.234  0.00  0.00    +0.000 A 
ATOM     26  N   UNL     1      44.513   7.201  11.396  0.00  0.00    +0.000 NA
ATOM     27  C   UNL     1      43.473   6.438  11.316  0.00  0.00    +0.000 A 
ATOM     28  N   UNL     1      43.304   5.265  12.006  0.00  0.00    +0.000 N 
ATOM     29  C   UNL     1      44.227   4.796  12.904  0.00  0.00    +0.000 A 
ATOM     30  O   UNL     1      44.000   3.800  13.584  0.00  0.00    +0.000 OA
ATOM     31  C   UNL     1      45.436   5.589  12.997  0.00  0.00    +0.000 A 
ATOM     32  H   UNL     1      42.452   4.732  11.925  0.00  0.00    +0.000 HD
ENDBRANCH  19  22
ENDBRANCH   1  20
TORSDOF 6
ENDMDL
MODEL 6
REMARK VINA RESULT:    -7.151      1.962      3.701
REMARK INTER + INTRA:         -10.617
REMARK INTER:                  -9.640
REMARK INTRA:                  -0.977
REMARK UNBOUND:                -0.958
REMARK  Name = 
REMARK  6 active torsions:
REMARK  status: ('A' for Active; 'I' for Inactive)
REMARK    1  A    between atoms: C_2  and  C_20
REMARK    2  A    between atoms: N_3  and  C_4
REMARK    3  A    between atoms: C_4  and  C_5
REMARK    4  A    between atoms: C_8  and  C_9
REMARK    5  A    between atoms: C_9  and  C_10
REMARK    6  A    between atoms: C_10  and  N_11
REMARK                            x       y       z     vdW  Elec       q    Type
REMARK                         _______ _______ _______ _____ _____    ______ ____
ROOT
ATOM      1  C   UNL     1      47.353   4.760  15.013  0.00  0.00    +0.000 C 
ENDROOT
BRANCH   1   2
ATOM      2  C   UNL     1      46.414   4.683  13.839  0.00  0.00    +0.000 A 
ATOM      3  C   UNL     1      45.894   5.854  13.277  0.00  0.00    +0.000 A 
ATOM      4  C   UNL     1      45.092   5.802  12.133  0.00  0.00    +0.000 A 
ATOM      5  C   UNL     1      44.769   4.580  11.526  0.00  0.00    +0.000 A 
ATOM      6  C   UNL     1      45.262   3.405  12.116  0.00  0.00    +0.000 A 
ATOM      7  C   UNL     1      46.067   3.456  13.263  0.00  0.00    +0.000 A 
BRANCH   5   8
ATOM      8  C   UNL     1      43.921   4.474  10.267  0.00  0.00    +0.000 C 
BRANCH   8   9
ATOM      9  C   UNL     1      44.360   3.387   9.278  0.00  0.00    +0.000 C 
BRANCH   9  10
ATOM     10  N   UNL     1      45.006   3.944   8.083  0.00  0.00    +0.000 N 
ATOM     11  C   UNL     1      45.912   3.020   7.508  0.00  0.00    +0.000 A 
ATOM     12  C   UNL     1      46.607   3.382   6.357  0.00  0.00    +0.000 A 
ATOM     13  C   UNL     1      47.505   2.482   5.787  0.00  0.00    +0.000 A 
ATOM     14  C   UNL     1      47.689   1.236   6.376  0.00  0.00    +0.000 A 
ATOM     15  C   UNL     1      46.955   0.949   7.510  0.00  0.00    +0.000 A 
ATOM     16  N   UNL     1      46.079   1.805   8.073  0.00  0.00    +0.000 NA
ATOM     17  H   UNL     1      45.520   4.796   8.284  0.00  0.00    +0.000 HD
ENDBRANCH   9  10
ENDBRANCH   8   9
ENDBRANCH   5   8
ENDBRANCH   1   2
BRANCH   1  20
ATOM     18  O   UNL     1      49.561   5.357  16.565  0.00  0.00    +0.000 OA
ATOM     19  C   UNL     1      48.993   6.279  15.986  0.00  0.00    +0.000 C 
ATOM     20  N   UNL     1      47.854   6.090  15.241  0.00  0.00    +0.000 N 
ATOM     21  H   UNL     1      47.560   6.812  14.589  0.00  0.00    +0.000 HD
BRANCH  19  22
ATOM     22  C   UNL     1      49.481   7.656  16.081  0.00  0.00    +0.000 A 
ATOM     23  C   UNL     1      49.587   8.282  17.320  0.00  0.00    +0.000 A 
ATOM     24  S   UNL     1      50.203   9.871  17.222  0.00  0.00    +0.000 S 
ATOM     25  C   UNL     1      50.382   9.759  15.533  0.00  0.00    +0.000 A 
ATOM     26  N   UNL     1      50.911  10.781  14.808  0.00  0.00    +0.000 NA
ATOM     27  C   UNL     1      51.012  10.539  13.543  0.00  0.00    +0.000 A 
ATOM     28  N   UNL     1      50.620   9.377  12.931  0.00  0.00    +0.000 N 
ATOM     29  C   UNL     1      50.028   8.345  13.613  0.00  0.00    +0.000 A 
ATOM     30  O   UNL     1      49.592   7.363  13.022  0.00  0.00    +0.000 OA
ATOM     31  C   UNL     1      49.935   8.544  15.045  0.00  0.00    +0.000 A 
ATOM     32  H   UNL     1      50.694   9.264  11.932  0.00  0.00    +0.000 HD
ENDBRANCH  19  22
ENDBRANCH   1  20
TORSDOF 6
ENDMDL
MODEL 7
REMARK VINA RESULT:    -7.146      3.072      8.729
REMARK INTER + INTRA:         -10.610
REMARK INTER:                  -9.263
REMARK INTRA:                  -1.347
REMARK UNBOUND:                -0.958
REMARK  Name = 
REMARK  6 active torsions:
REMARK  status: ('A' for Active; 'I' for Inactive)
REMARK    1  A    between atoms: C_2  and  C_20
REMARK    2  A    between atoms: N_3  and  C_4
REMARK    3  A    between atoms: C_4  and  C_5
REMARK    4  A    between atoms: C_8  and  C_9
REMARK    5  A    between atoms: C_9  and  C_10
REMARK    6  A    between atoms: C_10  and  N_11
REMARK                            x       y       z     vdW  Elec       q    Type
REMARK                         _______ _______ _______ _____ _____    ______ ____
ROOT
ATOM      1  C   UNL     1      47.921   7.737  11.884  0.00  0.00    +0.000 C 
ENDROOT
BRANCH   1   2
ATOM      2  C   UNL     1      48.393   8.020  13.286  0.00  0.00    +0.000 A 
ATOM      3  C   UNL     1      47.688   8.916  14.097  0.00  0.00    +0.000 A 
ATOM      4  C   UNL     1      48.063   9.121  15.428  0.00  0.00    +0.000 A 
ATOM      5  C   UNL     1      49.164   8.454  15.984  0.00  0.00    +0.000 A 
ATOM      6  C   UNL     1      49.891   7.586  15.155  0.00  0.00    +0.000 A 
ATOM      7  C   UNL     1      49.515   7.378  13.820  0.00  0.00    +0.000 A 
BRANCH   5   8
ATOM      8  C   UNL     1      49.596   8.626  17.433  0.00  0.00    +0.000 C 
BRANCH   8   9
ATOM      9  C   UNL     1      49.437   7.378  18.310  0.00  0.00    +0.000 C 
BRANCH   9  10
ATOM     10  N   UNL     1      48.143   6.712  18.108  0.00  0.00    +0.000 N 
ATOM     11  C   UNL     1      48.311   5.338  17.811  0.00  0.00    +0.000 A 
ATOM     12  C   UNL     1      47.184   4.550  17.599  0.00  0.00    +0.000 A 
ATOM     13  C   UNL     1      47.337   3.198  17.299  0.00  0.00    +0.000 A 
ATOM     14  C   UNL     1      48.616   2.659  17.219  0.00  0.00    +0.000 A 
ATOM     15  C   UNL     1      49.684   3.504  17.452  0.00  0.00    +0.000 A 
ATOM     16  N   UNL     1      49.553   4.813  17.747  0.00  0.00    +0.000 NA
ATOM     17  H   UNL     1      47.609   7.129  17.353  0.00  0.00    +0.000 HD
ENDBRANCH   9  10
ENDBRANCH   8   9
ENDBRANCH   5   8
ENDBRANCH   1   2
BRANCH   1  20
ATOM     18  O   UNL     1      45.164   7.555  11.951  0.00  0.00    +0.000 OA
ATOM     19  C   UNL     1      45.809   6.526  11.772  0.00  0.00    +0.000 C 
ATOM     20  N   UNL     1      47.182   6.506  11.782  0.00  0.00    +0.000 N 
ATOM     21  H   UNL     1      47.672   5.705  11.393  0.00  0.00    +0.000 HD
BRANCH  19  22
ATOM     22  C   UNL     1      45.146   5.236  11.566  0.00  0.00    +0.000 A 
ATOM     23  C   UNL     1      44.442   4.633  12.604  0.00  0.00    +0.000 A 
ATOM     24  S   UNL     1      43.718   3.153  12.157  0.00  0.00    +0.000 S 
ATOM     25  C   UNL     1      44.288   3.291  10.559  0.00  0.00    +0.000 A 
ATOM     26  N   UNL     1      43.985   2.358   9.617  0.00  0.00    +0.000 NA
ATOM     27  C   UNL     1      44.463   2.613   8.444  0.00  0.00    +0.000 A 
ATOM     28  N   UNL     1      45.230   3.704   8.128  0.00  0.00    +0.000 N 
ATOM     29  C   UNL     1      45.610   4.637   9.058  0.00  0.00    +0.000 A 
ATOM     30  O   UNL     1      46.383   5.543   8.768  0.00  0.00    +0.000 OA
ATOM     31  C   UNL     1      45.059   4.426  10.382  0.00  0.00    +0.000 A 
ATOM     32  H   UNL     1      45.603   3.827   7.199  0.00  0.00    +0.000 HD
ENDBRANCH  19  22
ENDBRANCH   1  20
TORSDOF 6
ENDMDL
MODEL 8
REMARK VINA RESULT:    -7.111      4.146      8.716
REMARK INTER + INTRA:         -10.563
REMARK INTER:                  -9.534
REMARK INTRA:                  -1.029
REMARK UNBOUND:                -0.958
REMARK  Name = 
REMARK  6 active torsions:
REMARK  status: ('A' for Active; 'I' for Inactive)
REMARK    1  A    between atoms: C_2  and  C_20
REMARK    2  A    between atoms: N_3  and  C_4
REMARK    3  A    between atoms: C_4  and  C_5
REMARK    4  A    between atoms: C_8  and  C_9
REMARK    5  A    between atoms: C_9  and  C_10
REMARK    6  A    between atoms: C_10  and  N_11
REMARK                            x       y       z     vdW  Elec       q    Type
REMARK                         _______ _______ _______ _____ _____    ______ ____
ROOT
ATOM      1  C   UNL     1      47.203   3.407  16.763  0.00  0.00    +0.000 C 
ENDROOT
BRANCH   1   2
ATOM      2  C   UNL     1      48.665   3.405  17.124  0.00  0.00    +0.000 A 
ATOM      3  C   UNL     1      49.411   2.225  17.029  0.00  0.00    +0.000 A 
ATOM      4  C   UNL     1      50.787   2.228  17.276  0.00  0.00    +0.000 A 
ATOM      5  C   UNL     1      51.457   3.404  17.644  0.00  0.00    +0.000 A 
ATOM      6  C   UNL     1      50.697   4.577  17.775  0.00  0.00    +0.000 A 
ATOM      7  C   UNL     1      49.317   4.576  17.526  0.00  0.00    +0.000 A 
BRANCH   5   8
ATOM      8  C   UNL     1      52.956   3.463  17.898  0.00  0.00    +0.000 C 
BRANCH   8   9
ATOM      9  C   UNL     1      53.557   4.874  17.914  0.00  0.00    +0.000 C 
BRANCH   9  10
ATOM     10  N   UNL     1      54.579   5.061  16.876  0.00  0.00    +0.000 N 
ATOM     11  C   UNL     1      54.196   6.061  15.949  0.00  0.00    +0.000 A 
ATOM     12  C   UNL     1      55.056   6.375  14.901  0.00  0.00    +0.000 A 
ATOM     13  C   UNL     1      54.687   7.352  13.979  0.00  0.00    +0.000 A 
ATOM     14  C   UNL     1      53.465   8.000  14.126  0.00  0.00    +0.000 A 
ATOM     15  C   UNL     1      52.673   7.639  15.198  0.00  0.00    +0.000 A 
ATOM     16  N   UNL     1      53.016   6.698  16.100  0.00  0.00    +0.000 NA
ATOM     17  H   UNL     1      54.759   4.209  16.355  0.00  0.00    +0.000 HD
ENDBRANCH   9  10
ENDBRANCH   8   9
ENDBRANCH   5   8
ENDBRANCH   1   2
BRANCH   1  20
ATOM     18  O   UNL     1      47.250   3.140  14.013  0.00  0.00    +0.000 OA
ATOM     19  C   UNL     1      46.861   4.204  14.486  0.00  0.00    +0.000 C 
ATOM     20  N   UNL     1      46.858   4.452  15.837  0.00  0.00    +0.000 N 
ATOM     21  H   UNL     1      46.312   5.228  16.200  0.00  0.00    +0.000 HD
BRANCH  19  22
ATOM     22  C   UNL     1      46.402   5.298  13.628  0.00  0.00    +0.000 A 
ATOM     23  C   UNL     1      47.234   6.383  13.364  0.00  0.00    +0.000 A 
ATOM     24  S   UNL     1      46.529   7.536  12.320  0.00  0.00    +0.000 S 
ATOM     25  C   UNL     1      45.112   6.606  12.158  0.00  0.00    +0.000 A 
ATOM     26  N   UNL     1      44.092   7.006  11.352  0.00  0.00    +0.000 NA
ATOM     27  C   UNL     1      43.096   6.184  11.307  0.00  0.00    +0.000 A 
ATOM     28  N   UNL     1      43.017   5.007  12.005  0.00  0.00    +0.000 N 
ATOM     29  C   UNL     1      43.993   4.595  12.875  0.00  0.00    +0.000 A 
ATOM     30  O   UNL     1      43.845   3.591  13.565  0.00  0.00    +0.000 OA
ATOM     31  C   UNL     1      45.157   5.456  12.927  0.00  0.00    +0.000 A 
ATOM     32  H   UNL     1      42.194   4.426  11.954  0.00  0.00    +0.000 HD
ENDBRANCH  19  22
ENDBRANCH   1  20
TORSDOF 6
ENDMDL
MODEL 9
REMARK VINA RESULT:    -7.034      2.597      3.883
REMARK INTER + INTRA:         -10.458
REMARK INTER:                  -9.507
REMARK INTRA:                  -0.951
REMARK UNBOUND:                -0.958
REMARK  Name = 
REMARK  6 active torsions:
REMARK  status: ('A' for Active; 'I' for Inactive)
REMARK    1  A    between atoms: C_2  and  C_20
REMARK    2  A    between atoms: N_3  and  C_4
REMARK    3  A    between atoms: C_4  and  C_5
REMARK    4  A    between atoms: C_8  and  C_9
REMARK    5  A    between atoms: C_9  and  C_10
REMARK    6  A    between atoms: C_10  and  N_11
REMARK                            x       y       z     vdW  Elec       q    Type
REMARK                         _______ _______ _______ _____ _____    ______ ____
ROOT
ATOM      1  C   UNL     1      47.668   5.746  14.760  0.00  0.00    +0.000 C 
ENDROOT
BRANCH   1   2
ATOM      2  C   UNL     1      46.700   5.477  13.638  0.00  0.00    +0.000 A 
ATOM      3  C   UNL     1      46.351   4.163  13.310  0.00  0.00    +0.000 A 
ATOM      4  C   UNL     1      45.388   3.903  12.330  0.00  0.00    +0.000 A 
ATOM      5  C   UNL     1      44.758   4.945  11.636  0.00  0.00    +0.000 A 
ATOM      6  C   UNL     1      45.139   6.261  11.942  0.00  0.00    +0.000 A 
ATOM      7  C   UNL     1      46.104   6.524  12.925  0.00  0.00    +0.000 A 
BRANCH   5   8
ATOM      8  C   UNL     1      43.686   4.714  10.580  0.00  0.00    +0.000 C 
BRANCH   8   9
ATOM      9  C   UNL     1      44.034   3.659   9.523  0.00  0.00    +0.000 C 
BRANCH   9  10
ATOM     10  N   UNL     1      44.853   4.205   8.433  0.00  0.00    +0.000 N 
ATOM     11  C   UNL     1      45.739   3.230   7.915  0.00  0.00    +0.000 A 
ATOM     12  C   UNL     1      46.586   3.576   6.866  0.00  0.00    +0.000 A 
ATOM     13  C   UNL     1      47.466   2.626   6.353  0.00  0.00    +0.000 A 
ATOM     14  C   UNL     1      47.481   1.347   6.896  0.00  0.00    +0.000 A 
ATOM     15  C   UNL     1      46.603   1.078   7.928  0.00  0.00    +0.000 A 
ATOM     16  N   UNL     1      45.743   1.984   8.435  0.00  0.00    +0.000 NA
ATOM     17  H   UNL     1      45.409   5.001   8.731  0.00  0.00    +0.000 HD
ENDBRANCH   9  10
ENDBRANCH   8   9
ENDBRANCH   5   8
ENDBRANCH   1   2
BRANCH   1  20
ATOM     18  O   UNL     1      50.204   6.512  15.546  0.00  0.00    +0.000 OA
ATOM     19  C   UNL     1      49.438   7.379  15.134  0.00  0.00    +0.000 C 
ATOM     20  N   UNL     1      48.140   7.105  14.776  0.00  0.00    +0.000 N 
ATOM     21  H   UNL     1      47.624   7.779  14.219  0.00  0.00    +0.000 HD
BRANCH  19  22
ATOM     22  C   UNL     1      49.856   8.778  15.026  0.00  0.00    +0.000 A 
ATOM     23  C   UNL     1      50.834   9.153  14.109  0.00  0.00    +0.000 A 
ATOM     24  S   UNL     1      51.158  10.829  14.116  0.00  0.00    +0.000 S 
ATOM     25  C   UNL     1      49.979  11.110  15.311  0.00  0.00    +0.000 A 
ATOM     26  N   UNL     1      49.707  12.367  15.755  0.00  0.00    +0.000 NA
ATOM     27  C   UNL     1      48.767  12.426  16.640  0.00  0.00    +0.000 A 
ATOM     28  N   UNL     1      48.085  11.346  17.135  0.00  0.00    +0.000 N 
ATOM     29  C   UNL     1      48.366  10.057  16.761  0.00  0.00    +0.000 A 
ATOM     30  O   UNL     1      47.811   9.105  17.300  0.00  0.00    +0.000 OA
ATOM     31  C   UNL     1      49.380   9.936  15.732  0.00  0.00    +0.000 A 
ATOM     32  H   UNL     1      47.385  11.457  17.852  0.00  0.00    +0.000 HD
ENDBRANCH  19  22
ENDBRANCH   1  20
TORSDOF 6
ENDMDL
