MODEL 1
REMARK VINA RESULT:    -7.857      0.000      0.000
REMARK INTER + INTRA:         -10.464
REMARK INTER:                  -9.694
REMARK INTRA:                  -0.770
REMARK UNBOUND:                -0.770
REMARK  Name = 
REMARK  4 active torsions:
REMARK  status: ('A' for Active; 'I' for Inactive)
REMARK    1  A    between atoms: C_4  and  N_5
REMARK    2  A    between atoms: C_9  and  C_10
REMARK    3  A    between atoms: C_10  and  N_11
REMARK    4  A    between atoms: C_12  and  C_14
REMARK                            x       y       z     vdW  Elec       q    Type
REMARK                         _______ _______ _______ _____ _____    ______ ____
ROOT
ATOM      1  N   UNL     1      50.965   2.900  18.274  0.00  0.00    +0.000 N 
ATOM      2  C   UNL     1      50.471   4.037  17.613  0.00  0.00    +0.000 A 
ATOM      3  C   UNL     1      49.089   4.196  17.533  0.00  0.00    +0.000 A 
ATOM      4  C   UNL     1      48.559   5.301  16.863  0.00  0.00    +0.000 A 
ATOM      5  C   UNL     1      49.417   6.272  16.351  0.00  0.00    +0.000 A 
ATOM      6  C   UNL     1      50.779   6.051  16.516  0.00  0.00    +0.000 A 
ATOM      7  N   UNL     1      51.315   4.961  17.122  0.00  0.00    +0.000 NA
ATOM      8  H   UNL     1      50.931   3.114  19.269  0.00  0.00    +0.000 HD
ENDROOT
BRANCH   1  12
ATOM      9  N   UNL     1      54.036  -0.513  16.619  0.00  0.00    +0.000 NA
ATOM     10  C   UNL     1      53.674   0.353  17.508  0.00  0.00    +0.000 C 
ATOM     11  C   UNL     1      52.277   0.920  17.570  0.00  0.00    +0.000 C 
ATOM     12  C   UNL     1      52.304   2.430  17.857  0.00  0.00    +0.000 C 
ATOM     13  C   UNL     1      53.287   2.748  19.004  0.00  0.00    +0.000 C 
ATOM     14  C   UNL     1      54.671   2.172  18.736  0.00  0.00    +0.000 C 
ATOM     15  N   UNL     1      54.577   0.756  18.447  0.00  0.00    +0.000 N 
ATOM     16  H   UNL     1      53.258  -0.713  15.982  0.00  0.00    +0.000 HD
ATOM     17  H   UNL     1      55.476   0.309  18.286  0.00  0.00    +0.000 HD
ENDBRANCH   1  12
BRANCH   5  18
ATOM     18  C   UNL     1      48.900   7.489  15.641  0.00  0.00    +0.000 C 
BRANCH  18  19
ATOM     19  N   UNL     1      47.746   7.191  14.826  0.00  0.00    +0.000 N 
ATOM     20  C   UNL     1      47.878   6.620  13.582  0.00  0.00    +0.000 C 
ATOM     21  O   UNL     1      48.974   6.304  13.125  0.00  0.00    +0.000 OA
ATOM     22  H   UNL     1      46.879   7.667  15.058  0.00  0.00    +0.000 HD
BRANCH  20  23
ATOM     23  C   UNL     1      46.628   6.343  12.850  0.00  0.00    +0.000 A 
ATOM     24  C   UNL     1      45.923   7.388  12.277  0.00  0.00    +0.000 A 
ATOM     25  S   UNL     1      44.532   6.886  11.423  0.00  0.00    +0.000 S 
ATOM     26  C   UNL     1      44.799   5.257  11.840  0.00  0.00    +0.000 A 
ATOM     27  N   UNL     1      43.936   4.281  11.444  0.00  0.00    +0.000 NA
ATOM     28  C   UNL     1      44.246   3.099  11.856  0.00  0.00    +0.000 A 
ATOM     29  N   UNL     1      45.341   2.798  12.621  0.00  0.00    +0.000 N 
ATOM     30  C   UNL     1      46.258   3.744  13.015  0.00  0.00    +0.000 A 
ATOM     31  O   UNL     1      47.256   3.438  13.658  0.00  0.00    +0.000 OA
ATOM     32  C   UNL     1      45.947   5.097  12.595  0.00  0.00    +0.000 A 
ATOM     33  H   UNL     1      45.535   1.848  12.896  0.00  0.00    +0.000 HD
ENDBRANCH  20  23
ENDBRANCH  18  19
ENDBRANCH   5  18
TORSDOF 4
ENDMDL
MODEL 2
REMARK VINA RESULT:    -7.690      3.756      8.264
REMARK INTER + INTRA:         -10.258
REMARK INTER:                 -10.300
REMARK INTRA:                   0.042
REMARK UNBOUND:                -0.770
REMARK  Name = 
REMARK  4 active torsions:
REMARK  status: ('A' for Active; 'I' for Inactive)
REMARK    1  A    between atoms: C_4  and  N_5
REMARK    2  A    between atoms: C_9  and  C_10
REMARK    3  A    between atoms: C_10  and  N_11
REMARK    4  A    between atoms: C_12  and  C_14
REMARK                            x       y       z     vdW  Elec       q    Type
REMARK                         _______ _______ _______ _____ _____    ______ ____
ROOT
ATOM      1  N   UNL     1      43.270   6.480  10.801  0.00  0.00    +0.000 N 
ATOM      2  C   UNL     1      44.345   7.028  11.519  0.00  0.00    +0.000 A 
ATOM      3  C   UNL     1      44.569   8.399  11.414  0.00  0.00    +0.000 A 
ATOM      4  C   UNL     1      45.642   8.977  12.093  0.00  0.00    +0.000 A 
ATOM      5  C   UNL     1      46.429   8.192  12.933  0.00  0.00    +0.000 A 
ATOM      6  C   UNL     1      46.105   6.843  13.010  0.00  0.00    +0.000 A 
ATOM      7  N   UNL     1      45.095   6.252  12.321  0.00  0.00    +0.000 NA
ATOM      8  H   UNL     1      42.436   6.660  11.357  0.00  0.00    +0.000 HD
ENDROOT
BRANCH   1  12
ATOM      9  N   UNL     1      42.952   1.712  11.791  0.00  0.00    +0.000 NA
ATOM     10  C   UNL     1      43.622   2.749  11.409  0.00  0.00    +0.000 C 
ATOM     11  C   UNL     1      43.151   4.160  11.662  0.00  0.00    +0.000 C 
ATOM     12  C   UNL     1      43.387   5.053  10.433  0.00  0.00    +0.000 C 
ATOM     13  C   UNL     1      44.805   4.832   9.865  0.00  0.00    +0.000 C 
ATOM     14  C   UNL     1      45.081   3.360   9.589  0.00  0.00    +0.000 C 
ATOM     15  N   UNL     1      44.815   2.570  10.775  0.00  0.00    +0.000 N 
ATOM     16  H   UNL     1      42.080   2.001  12.245  0.00  0.00    +0.000 HD
ATOM     17  H   UNL     1      45.009   1.578  10.659  0.00  0.00    +0.000 HD
ENDBRANCH   1  12
BRANCH   5  18
ATOM     18  C   UNL     1      47.582   8.766  13.703  0.00  0.00    +0.000 C 
BRANCH  18  19
ATOM     19  N   UNL     1      47.845   8.029  14.916  0.00  0.00    +0.000 N 
ATOM     20  C   UNL     1      48.847   7.089  14.977  0.00  0.00    +0.000 C 
ATOM     21  O   UNL     1      49.585   6.862  14.022  0.00  0.00    +0.000 OA
ATOM     22  H   UNL     1      47.107   8.006  15.614  0.00  0.00    +0.000 HD
BRANCH  20  23
ATOM     23  C   UNL     1      49.035   6.414  16.275  0.00  0.00    +0.000 A 
ATOM     24  C   UNL     1      49.873   6.974  17.225  0.00  0.00    +0.000 A 
ATOM     25  S   UNL     1      49.934   6.092  18.686  0.00  0.00    +0.000 S 
ATOM     26  C   UNL     1      48.881   4.902  18.075  0.00  0.00    +0.000 A 
ATOM     27  N   UNL     1      48.534   3.820  18.824  0.00  0.00    +0.000 NA
ATOM     28  C   UNL     1      47.755   2.986  18.224  0.00  0.00    +0.000 A 
ATOM     29  N   UNL     1      47.282   3.135  16.947  0.00  0.00    +0.000 N 
ATOM     30  C   UNL     1      47.578   4.227  16.166  0.00  0.00    +0.000 A 
ATOM     31  O   UNL     1      47.101   4.358  15.044  0.00  0.00    +0.000 OA
ATOM     32  C   UNL     1      48.468   5.189  16.785  0.00  0.00    +0.000 A 
ATOM     33  H   UNL     1      46.661   2.452  16.542  0.00  0.00    +0.000 HD
ENDBRANCH  20  23
ENDBRANCH  18  19
ENDBRANCH   5  18
TORSDOF 4
ENDMDL
MODEL 3
REMARK VINA RESULT:    -7.626      3.273      9.098
REMARK INTER + INTRA:         -10.180
REMARK INTER:                  -9.169
REMARK INTRA:                  -1.011
REMARK UNBOUND:                -0.770
REMARK  Name = 
REMARK  4 active torsions:
REMARK  status: ('A' for Active; 'I' for Inactive)
REMARK    1  A    between atoms: C_4  and  N_5
REMARK    2  A    between atoms: C_9  and  C_10
REMARK    3  A    between atoms: C_10  and  N_11
REMARK    4  A    between atoms: C_12  and  C_14
REMARK                            x       y       z     vdW  Elec       q    Type
REMARK                         _______ _______ _______ _____ _____    ______ ____
ROOT
ATOM      1  N   UNL     1      45.806   4.018  13.625  0.00  0.00    +0.000 N 
ATOM      2  C   UNL     1      46.785   4.653  14.407  0.00  0.00    +0.000 A 
ATOM      3  C   UNL     1      46.986   4.190  15.704  0.00  0.00    +0.000 A 
ATOM      4  C   UNL     1      47.934   4.811  16.521  0.00  0.00    +0.000 A 
ATOM      5  C   UNL     1      48.723   5.835  16.002  0.00  0.00    +0.000 A 
ATOM      6  C   UNL     1      48.482   6.202  14.684  0.00  0.00    +0.000 A 
ATOM      7  N   UNL     1      47.534   5.642  13.889  0.00  0.00    +0.000 NA
ATOM      8  H   UNL     1      46.241   3.174  13.258  0.00  0.00    +0.000 HD
ENDROOT
BRANCH   1  12
ATOM      9  N   UNL     1      42.118   6.564  11.693  0.00  0.00    +0.000 NA
ATOM     10  C   UNL     1      42.980   5.602  11.646  0.00  0.00    +0.000 C 
ATOM     11  C   UNL     1      43.713   5.106  12.868  0.00  0.00    +0.000 C 
ATOM     12  C   UNL     1      45.193   4.832  12.554  0.00  0.00    +0.000 C 
ATOM     13  C   UNL     1      45.332   4.046  11.233  0.00  0.00    +0.000 C 
ATOM     14  C   UNL     1      44.601   4.733  10.087  0.00  0.00    +0.000 C 
ATOM     15  N   UNL     1      43.222   4.987  10.453  0.00  0.00    +0.000 N 
ATOM     16  H   UNL     1      42.047   6.929  12.648  0.00  0.00    +0.000 HD
ATOM     17  H   UNL     1      42.674   5.421   9.715  0.00  0.00    +0.000 HD
ENDBRANCH   1  12
BRANCH   5  18
ATOM     18  C   UNL     1      49.770   6.523  16.829  0.00  0.00    +0.000 C 
BRANCH  18  19
ATOM     19  N   UNL     1      50.822   5.619  17.232  0.00  0.00    +0.000 N 
ATOM     20  C   UNL     1      50.898   5.142  18.519  0.00  0.00    +0.000 C 
ATOM     21  O   UNL     1      50.060   5.430  19.370  0.00  0.00    +0.000 OA
ATOM     22  H   UNL     1      51.648   5.576  16.643  0.00  0.00    +0.000 HD
BRANCH  20  23
ATOM     23  C   UNL     1      52.003   4.209  18.810  0.00  0.00    +0.000 A 
ATOM     24  C   UNL     1      53.023   4.598  19.662  0.00  0.00    +0.000 A 
ATOM     25  S   UNL     1      54.191   3.381  19.930  0.00  0.00    +0.000 S 
ATOM     26  C   UNL     1      53.396   2.311  18.871  0.00  0.00    +0.000 A 
ATOM     27  N   UNL     1      53.900   1.072  18.617  0.00  0.00    +0.000 NA
ATOM     28  C   UNL     1      53.212   0.382  17.774  0.00  0.00    +0.000 A 
ATOM     29  N   UNL     1      52.063   0.809  17.164  0.00  0.00    +0.000 N 
ATOM     30  C   UNL     1      51.499   2.038  17.414  0.00  0.00    +0.000 A 
ATOM     31  O   UNL     1      50.443   2.375  16.891  0.00  0.00    +0.000 OA
ATOM     32  C   UNL     1      52.244   2.866  18.343  0.00  0.00    +0.000 A 
ATOM     33  H   UNL     1      51.562   0.211  16.524  0.00  0.00    +0.000 HD
ENDBRANCH  20  23
ENDBRANCH  18  19
ENDBRANCH   5  18
TORSDOF 4
ENDMDL
MODEL 4
REMARK VINA RESULT:    -7.366      3.712      8.448
REMARK INTER + INTRA:          -9.859
REMARK INTER:                  -9.073
REMARK INTRA:                  -0.786
REMARK UNBOUND:                -0.770
REMARK  Name = 
REMARK  4 active torsions:
REMARK  status: ('A' for Active; 'I' for Inactive)
REMARK    1  A    between atoms: C_4  and  N_5
REMARK    2  A    between atoms: C_9  and  C_10
REMARK    3  A    between atoms: C_10  and  N_11
REMARK    4  A    between atoms: C_12  and  C_14
REMARK                            x       y       z     vdW  Elec       q    Type
REMARK                         _______ _______ _______ _____ _____    ______ ____
ROOT
ATOM      1  N   UNL     1      44.533   5.413  10.395  0.00  0.00    +0.000 N 
ATOM      2  C   UNL     1      45.253   6.235  11.277  0.00  0.00    +0.000 A 
ATOM      3  C   UNL     1      44.817   7.546  11.452  0.00  0.00    +0.000 A 
ATOM      4  C   UNL     1      45.521   8.401  12.303  0.00  0.00    +0.000 A 
ATOM      5  C   UNL     1      46.605   7.911  13.027  0.00  0.00    +0.000 A 
ATOM      6  C   UNL     1      46.942   6.578  12.822  0.00  0.00    +0.000 A 
ATOM      7  N   UNL     1      46.299   5.744  11.965  0.00  0.00    +0.000 NA
ATOM      8  H   UNL     1      43.726   5.076  10.917  0.00  0.00    +0.000 HD
ENDROOT
BRANCH   1  12
ATOM      9  N   UNL     1      47.329   3.524   6.869  0.00  0.00    +0.000 NA
ATOM     10  C   UNL     1      46.251   3.528   7.583  0.00  0.00    +0.000 C 
ATOM     11  C   UNL     1      45.813   4.726   8.388  0.00  0.00    +0.000 C 
ATOM     12  C   UNL     1      45.285   4.305   9.769  0.00  0.00    +0.000 C 
ATOM     13  C   UNL     1      44.325   3.103   9.641  0.00  0.00    +0.000 C 
ATOM     14  C   UNL     1      44.961   1.952   8.873  0.00  0.00    +0.000 C 
ATOM     15  N   UNL     1      45.461   2.417   7.595  0.00  0.00    +0.000 N 
ATOM     16  H   UNL     1      47.819   4.420   6.963  0.00  0.00    +0.000 HD
ATOM     17  H   UNL     1      45.873   1.684   7.024  0.00  0.00    +0.000 HD
ENDBRANCH   1  12
BRANCH   5  18
ATOM     18  C   UNL     1      47.384   8.780  13.970  0.00  0.00    +0.000 C 
BRANCH  18  19
ATOM     19  N   UNL     1      47.767   8.072  15.169  0.00  0.00    +0.000 N 
ATOM     20  C   UNL     1      49.050   7.613  15.348  0.00  0.00    +0.000 C 
ATOM     21  O   UNL     1      49.935   7.816  14.521  0.00  0.00    +0.000 OA
ATOM     22  H   UNL     1      47.020   7.673  15.731  0.00  0.00    +0.000 HD
BRANCH  20  23
ATOM     23  C   UNL     1      49.329   6.922  16.621  0.00  0.00    +0.000 A 
ATOM     24  C   UNL     1      50.099   7.547  17.587  0.00  0.00    +0.000 A 
ATOM     25  S   UNL     1      50.278   6.630  19.017  0.00  0.00    +0.000 S 
ATOM     26  C   UNL     1      49.374   5.342  18.367  0.00  0.00    +0.000 A 
ATOM     27  N   UNL     1      49.168   4.200  19.079  0.00  0.00    +0.000 NA
ATOM     28  C   UNL     1      48.492   3.298  18.453  0.00  0.00    +0.000 A 
ATOM     29  N   UNL     1      47.995   3.431  17.184  0.00  0.00    +0.000 N 
ATOM     30  C   UNL     1      48.149   4.578  16.440  0.00  0.00    +0.000 A 
ATOM     31  O   UNL     1      47.651   4.688  15.325  0.00  0.00    +0.000 OA
ATOM     32  C   UNL     1      48.920   5.620  17.090  0.00  0.00    +0.000 A 
ATOM     33  H   UNL     1      47.459   2.692  16.757  0.00  0.00    +0.000 HD
ENDBRANCH  20  23
ENDBRANCH  18  19
ENDBRANCH   5  18
TORSDOF 4
ENDMDL
MODEL 5
REMARK VINA RESULT:    -7.306      3.221      4.334
REMARK INTER + INTRA:          -9.785
REMARK INTER:                  -8.827
REMARK INTRA:                  -0.958
REMARK UNBOUND:                -0.770
REMARK  Name = 
REMARK  4 active torsions:
REMARK  status: ('A' for Active; 'I' for Inactive)
REMARK    1  A    between atoms: C_4  and  N_5
REMARK    2  A    between atoms: C_9  and  C_10
REMARK    3  A    between atoms: C_10  and  N_11
REMARK    4  A    between atoms: C_12  and  C_14
REMARK                            x       y       z     vdW  Elec       q    Type
REMARK                         _______ _______ _______ _____ _____    ______ ____
ROOT
ATOM      1  N   UNL     1      49.697   7.457  17.612  0.00  0.00    +0.000 N 
ATOM      2  C   UNL     1      49.156   7.519  16.317  0.00  0.00    +0.000 A 
ATOM      3  C   UNL     1      48.502   8.689  15.939  0.00  0.00    +0.000 A 
ATOM      4  C   UNL     1      47.930   8.780  14.668  0.00  0.00    +0.000 A 
ATOM      5  C   UNL     1      48.090   7.731  13.765  0.00  0.00    +0.000 A 
ATOM      6  C   UNL     1      48.796   6.622  14.215  0.00  0.00    +0.000 A 
ATOM      7  N   UNL     1      49.319   6.495  15.461  0.00  0.00    +0.000 NA
ATOM      8  H   UNL     1      50.590   7.946  17.570  0.00  0.00    +0.000 HD
ENDROOT
BRANCH   1  12
ATOM      9  N   UNL     1      48.401   3.945  20.743  0.00  0.00    +0.000 NA
ATOM     10  C   UNL     1      49.279   4.751  20.241  0.00  0.00    +0.000 C 
ATOM     11  C   UNL     1      48.900   5.952  19.411  0.00  0.00    +0.000 C 
ATOM     12  C   UNL     1      49.835   6.108  18.201  0.00  0.00    +0.000 C 
ATOM     13  C   UNL     1      51.308   5.934  18.627  0.00  0.00    +0.000 C 
ATOM     14  C   UNL     1      51.527   4.628  19.380  0.00  0.00    +0.000 C 
ATOM     15  N   UNL     1      50.601   4.528  20.490  0.00  0.00    +0.000 N 
ATOM     16  H   UNL     1      47.457   4.234  20.468  0.00  0.00    +0.000 HD
ATOM     17  H   UNL     1      50.718   3.687  21.049  0.00  0.00    +0.000 HD
ENDBRANCH   1  12
BRANCH   5  18
ATOM     18  C   UNL     1      47.514   7.785  12.380  0.00  0.00    +0.000 C 
BRANCH  18  19
ATOM     19  N   UNL     1      46.840   6.559  12.025  0.00  0.00    +0.000 N 
ATOM     20  C   UNL     1      45.484   6.414  12.197  0.00  0.00    +0.000 C 
ATOM     21  O   UNL     1      44.781   7.328  12.620  0.00  0.00    +0.000 OA
ATOM     22  H   UNL     1      47.413   5.726  11.925  0.00  0.00    +0.000 HD
BRANCH  20  23
ATOM     23  C   UNL     1      44.902   5.124  11.780  0.00  0.00    +0.000 A 
ATOM     24  C   UNL     1      44.188   4.367  12.693  0.00  0.00    +0.000 A 
ATOM     25  S   UNL     1      43.540   2.932  12.032  0.00  0.00    +0.000 S 
ATOM     26  C   UNL     1      44.241   3.251  10.514  0.00  0.00    +0.000 A 
ATOM     27  N   UNL     1      44.097   2.381   9.478  0.00  0.00    +0.000 NA
ATOM     28  C   UNL     1      44.706   2.736   8.398  0.00  0.00    +0.000 A 
ATOM     29  N   UNL     1      45.439   3.883   8.252  0.00  0.00    +0.000 N 
ATOM     30  C   UNL     1      45.585   4.807   9.260  0.00  0.00    +0.000 A 
ATOM     31  O   UNL     1      46.206   5.849   9.086  0.00  0.00    +0.000 OA
ATOM     32  C   UNL     1      44.935   4.449  10.506  0.00  0.00    +0.000 A 
ATOM     33  H   UNL     1      45.878   4.110   7.373  0.00  0.00    +0.000 HD
ENDBRANCH  20  23
ENDBRANCH  18  19
ENDBRANCH   5  18
TORSDOF 4
ENDMDL
MODEL 6
REMARK VINA RESULT:    -7.094      3.366      4.461
REMARK INTER + INTRA:          -9.524
REMARK INTER:                  -8.896
REMARK INTRA:                  -0.628
REMARK UNBOUND:                -0.770
REMARK  Name = 
REMARK  4 active torsions:
REMARK  status: ('A' for Active; 'I' for Inactive)
REMARK    1  A    between atoms: C_4  and  N_5
REMARK    2  A    between atoms: C_9  and  C_10
REMARK    3  A    between atoms: C_10  and  N_11
REMARK    4  A    between atoms: C_12  and  C_14
REMARK                            x       y       z     vdW  Elec       q    Type
REMARK                         _______ _______ _______ _____ _____    ______ ____
ROOT
ATOM      1  N   UNL     1      49.830   6.773  17.381  0.00  0.00    +0.000 N 
ATOM      2  C   UNL     1      49.481   7.049  16.049  0.00  0.00    +0.000 A 
ATOM      3  C   UNL     1      49.940   8.238  15.486  0.00  0.00    +0.000 A 
ATOM      4  C   UNL     1      49.593   8.559  14.172  0.00  0.00    +0.000 A 
ATOM      5  C   UNL     1      48.860   7.650  13.412  0.00  0.00    +0.000 A 
ATOM      6  C   UNL     1      48.483   6.471  14.043  0.00  0.00    +0.000 A 
ATOM      7  N   UNL     1      48.770   6.161  15.333  0.00  0.00    +0.000 NA
ATOM      8  H   UNL     1      50.776   6.397  17.353  0.00  0.00    +0.000 HD
ENDROOT
BRANCH   1  12
ATOM      9  N   UNL     1      47.177   5.627  21.313  0.00  0.00    +0.000 NA
ATOM     10  C   UNL     1      48.100   5.358  20.449  0.00  0.00    +0.000 C 
ATOM     11  C   UNL     1      48.720   6.412  19.566  0.00  0.00    +0.000 C 
ATOM     12  C   UNL     1      48.910   5.893  18.131  0.00  0.00    +0.000 C 
ATOM     13  C   UNL     1      49.524   4.477  18.142  0.00  0.00    +0.000 C 
ATOM     14  C   UNL     1      48.723   3.521  19.017  0.00  0.00    +0.000 C 
ATOM     15  N   UNL     1      48.556   4.078  20.345  0.00  0.00    +0.000 N 
ATOM     16  H   UNL     1      46.934   6.622  21.272  0.00  0.00    +0.000 HD
ATOM     17  H   UNL     1      48.051   3.469  20.984  0.00  0.00    +0.000 HD
ENDBRANCH   1  12
BRANCH   5  18
ATOM     18  C   UNL     1      48.478   7.936  11.989  0.00  0.00    +0.000 C 
BRANCH  18  19
ATOM     19  N   UNL     1      47.714   6.858  11.406  0.00  0.00    +0.000 N 
ATOM     20  C   UNL     1      46.340   6.854  11.446  0.00  0.00    +0.000 C 
ATOM     21  O   UNL     1      45.701   7.778  11.941  0.00  0.00    +0.000 OA
ATOM     22  H   UNL     1      48.203   5.984  11.232  0.00  0.00    +0.000 HD
BRANCH  20  23
ATOM     23  C   UNL     1      45.668   5.710  10.800  0.00  0.00    +0.000 A 
ATOM     24  C   UNL     1      45.763   5.543   9.429  0.00  0.00    +0.000 A 
ATOM     25  S   UNL     1      44.973   4.143   8.855  0.00  0.00    +0.000 S 
ATOM     26  C   UNL     1      44.432   3.742  10.419  0.00  0.00    +0.000 A 
ATOM     27  N   UNL     1      43.655   2.645  10.633  0.00  0.00    +0.000 NA
ATOM     28  C   UNL     1      43.294   2.481  11.860  0.00  0.00    +0.000 A 
ATOM     29  N   UNL     1      43.642   3.306  12.896  0.00  0.00    +0.000 N 
ATOM     30  C   UNL     1      44.451   4.407  12.733  0.00  0.00    +0.000 A 
ATOM     31  O   UNL     1      44.786   5.099  13.687  0.00  0.00    +0.000 OA
ATOM     32  C   UNL     1      44.871   4.650  11.367  0.00  0.00    +0.000 A 
ATOM     33  H   UNL     1      43.339   3.112  13.838  0.00  0.00    +0.000 HD
ENDBRANCH  20  23
ENDBRANCH  18  19
ENDBRANCH   5  18
TORSDOF 4
ENDMDL
MODEL 7
REMARK VINA RESULT:    -6.920      4.301      8.884
REMARK INTER + INTRA:          -9.309
REMARK INTER:                  -9.417
REMARK INTRA:                   0.108
REMARK UNBOUND:                -0.770
REMARK  Name = 
REMARK  4 active torsions:
REMARK  status: ('A' for Active; 'I' for Inactive)
REMARK    1  A    between atoms: C_4  and  N_5
REMARK    2  A    between atoms: C_9  and  C_10
REMARK    3  A    between atoms: C_10  and  N_11
REMARK    4  A    between atoms: C_12  and  C_14
REMARK                            x       y       z     vdW  Elec       q    Type
REMARK                         _______ _______ _______ _____ _____    ______ ____
ROOT
ATOM      1  N   UNL     1      43.818   6.429  10.999  0.00  0.00    +0.000 N 
ATOM      2  C   UNL     1      44.966   6.632  11.782  0.00  0.00    +0.000 A 
ATOM      3  C   UNL     1      45.528   7.907  11.799  0.00  0.00    +0.000 A 
ATOM      4  C   UNL     1      46.684   8.142  12.546  0.00  0.00    +0.000 A 
ATOM      5  C   UNL     1      47.215   7.122  13.331  0.00  0.00    +0.000 A 
ATOM      6  C   UNL     1      46.563   5.896  13.287  0.00  0.00    +0.000 A 
ATOM      7  N   UNL     1      45.466   5.633  12.531  0.00  0.00    +0.000 NA
ATOM      8  H   UNL     1      43.034   6.770  11.552  0.00  0.00    +0.000 HD
ENDROOT
BRANCH   1  12
ATOM      9  N   UNL     1      42.889   1.689  11.696  0.00  0.00    +0.000 NA
ATOM     10  C   UNL     1      43.628   2.645  11.237  0.00  0.00    +0.000 C 
ATOM     11  C   UNL     1      43.488   4.075  11.697  0.00  0.00    +0.000 C 
ATOM     12  C   UNL     1      43.592   5.051  10.513  0.00  0.00    +0.000 C 
ATOM     13  C   UNL     1      44.780   4.676   9.602  0.00  0.00    +0.000 C 
ATOM     14  C   UNL     1      44.718   3.219   9.164  0.00  0.00    +0.000 C 
ATOM     15  N   UNL     1      44.593   2.353  10.319  0.00  0.00    +0.000 N 
ATOM     16  H   UNL     1      42.210   2.059  12.369  0.00  0.00    +0.000 HD
ATOM     17  H   UNL     1      44.575   1.362  10.090  0.00  0.00    +0.000 HD
ENDBRANCH   1  12
BRANCH   5  18
ATOM     18  C   UNL     1      48.443   7.327  14.170  0.00  0.00    +0.000 C 
BRANCH  18  19
ATOM     19  N   UNL     1      48.245   6.896  15.534  0.00  0.00    +0.000 N 
ATOM     20  C   UNL     1      49.292   6.433  16.296  0.00  0.00    +0.000 C 
ATOM     21  O   UNL     1      50.442   6.400  15.868  0.00  0.00    +0.000 OA
ATOM     22  H   UNL     1      47.295   6.671  15.816  0.00  0.00    +0.000 HD
BRANCH  20  23
ATOM     23  C   UNL     1      48.973   6.041  17.681  0.00  0.00    +0.000 A 
ATOM     24  C   UNL     1      49.199   4.739  18.095  0.00  0.00    +0.000 A 
ATOM     25  S   UNL     1      48.826   4.470  19.739  0.00  0.00    +0.000 S 
ATOM     26  C   UNL     1      48.298   6.076  19.937  0.00  0.00    +0.000 A 
ATOM     27  N   UNL     1      47.809   6.512  21.131  0.00  0.00    +0.000 NA
ATOM     28  C   UNL     1      47.419   7.741  21.128  0.00  0.00    +0.000 A 
ATOM     29  N   UNL     1      47.477   8.579  20.047  0.00  0.00    +0.000 N 
ATOM     30  C   UNL     1      47.994   8.194  18.832  0.00  0.00    +0.000 A 
ATOM     31  O   UNL     1      48.079   8.980  17.896  0.00  0.00    +0.000 OA
ATOM     32  C   UNL     1      48.431   6.812  18.773  0.00  0.00    +0.000 A 
ATOM     33  H   UNL     1      47.170   9.537  20.117  0.00  0.00    +0.000 HD
ENDBRANCH  20  23
ENDBRANCH  18  19
ENDBRANCH   5  18
TORSDOF 4
ENDMDL
MODEL 8
REMARK VINA RESULT:    -6.906      4.215     10.390
REMARK INTER + INTRA:          -9.291
REMARK INTER:                  -8.440
REMARK INTRA:                  -0.851
REMARK UNBOUND:                -0.770
REMARK  Name = 
REMARK  4 active torsions:
REMARK  status: ('A' for Active; 'I' for Inactive)
REMARK    1  A    between atoms: C_4  and  N_5
REMARK    2  A    between atoms: C_9  and  C_10
REMARK    3  A    between atoms: C_10  and  N_11
REMARK    4  A    between atoms: C_12  and  C_14
REMARK                            x       y       z     vdW  Elec       q    Type
REMARK                         _______ _______ _______ _____ _____    ______ ____
ROOT
ATOM      1  N   UNL     1      42.927   8.464  10.674  0.00  0.00    +0.000 N 
ATOM      2  C   UNL     1      43.663   7.466  11.334  0.00  0.00    +0.000 A 
ATOM      3  C   UNL     1      43.070   6.216  11.495  0.00  0.00    +0.000 A 
ATOM      4  C   UNL     1      43.761   5.206  12.167  0.00  0.00    +0.000 A 
ATOM      5  C   UNL     1      45.065   5.434  12.599  0.00  0.00    +0.000 A 
ATOM      6  C   UNL     1      45.591   6.697  12.357  0.00  0.00    +0.000 A 
ATOM      7  N   UNL     1      44.920   7.707  11.746  0.00  0.00    +0.000 NA
ATOM      8  H   UNL     1      43.035   8.283   9.677  0.00  0.00    +0.000 HD
ENDROOT
BRANCH   1  12
ATOM      9  N   UNL     1      41.790  12.902  12.354  0.00  0.00    +0.000 NA
ATOM     10  C   UNL     1      42.240  12.121  11.428  0.00  0.00    +0.000 C 
ATOM     11  C   UNL     1      41.997  10.632  11.432  0.00  0.00    +0.000 C 
ATOM     12  C   UNL     1      43.262   9.862  11.018  0.00  0.00    +0.000 C 
ATOM     13  C   UNL     1      43.908  10.508   9.774  0.00  0.00    +0.000 C 
ATOM     14  C   UNL     1      44.160  11.996   9.976  0.00  0.00    +0.000 C 
ATOM     15  N   UNL     1      42.939  12.659  10.390  0.00  0.00    +0.000 N 
ATOM     16  H   UNL     1      41.292  12.358  13.066  0.00  0.00    +0.000 HD
ATOM     17  H   UNL     1      43.039  13.663  10.513  0.00  0.00    +0.000 HD
ENDBRANCH   1  12
BRANCH   5  18
ATOM     18  C   UNL     1      45.860   4.376  13.308  0.00  0.00    +0.000 C 
BRANCH  18  19
ATOM     19  N   UNL     1      46.431   4.864  14.542  0.00  0.00    +0.000 N 
ATOM     20  C   UNL     1      47.293   4.092  15.283  0.00  0.00    +0.000 C 
ATOM     21  O   UNL     1      47.645   2.974  14.915  0.00  0.00    +0.000 OA
ATOM     22  H   UNL     1      45.968   5.650  14.988  0.00  0.00    +0.000 HD
BRANCH  20  23
ATOM     23  C   UNL     1      47.828   4.703  16.514  0.00  0.00    +0.000 A 
ATOM     24  C   UNL     1      47.487   4.174  17.748  0.00  0.00    +0.000 A 
ATOM     25  S   UNL     1      48.236   4.966  19.062  0.00  0.00    +0.000 S 
ATOM     26  C   UNL     1      49.000   6.079  18.024  0.00  0.00    +0.000 A 
ATOM     27  N   UNL     1      49.787   7.073  18.520  0.00  0.00    +0.000 NA
ATOM     28  C   UNL     1      50.277   7.859  17.622  0.00  0.00    +0.000 A 
ATOM     29  N   UNL     1      50.062   7.741  16.275  0.00  0.00    +0.000 N 
ATOM     30  C   UNL     1      49.302   6.734  15.727  0.00  0.00    +0.000 A 
ATOM     31  O   UNL     1      49.167   6.624  14.514  0.00  0.00    +0.000 OA
ATOM     32  C   UNL     1      48.710   5.831  16.695  0.00  0.00    +0.000 A 
ATOM     33  H   UNL     1      50.489   8.382  15.624  0.00  0.00    +0.000 HD
ENDBRANCH  20  23
ENDBRANCH  18  19
ENDBRANCH   5  18
TORSDOF 4
ENDMDL
MODEL 9
REMARK VINA RESULT:    -6.811      3.936      8.551
REMARK INTER + INTRA:          -9.174
REMARK INTER:                  -8.147
REMARK INTRA:                  -1.027
REMARK UNBOUND:                -0.770
REMARK  Name = 
REMARK  4 active torsions:
REMARK  status: ('A' for Active; 'I' for Inactive)
REMARK    1  A    between atoms: C_4  and  N_5
REMARK    2  A    between atoms: C_9  and  C_10
REMARK    3  A    between atoms: C_10  and  N_11
REMARK    4  A    between atoms: C_12  and  C_14
REMARK                            x       y       z     vdW  Elec       q    Type
REMARK                         _______ _______ _______ _____ _____    ______ ____
ROOT
ATOM      1  N   UNL     1      45.973   6.791  11.394  0.00  0.00    +0.000 N 
ATOM      2  C   UNL     1      47.123   7.009  12.170  0.00  0.00    +0.000 A 
ATOM      3  C   UNL     1      48.312   7.302  11.507  0.00  0.00    +0.000 A 
ATOM      4  C   UNL     1      49.482   7.502  12.242  0.00  0.00    +0.000 A 
ATOM      5  C   UNL     1      49.431   7.485  13.634  0.00  0.00    +0.000 A 
ATOM      6  C   UNL     1      48.193   7.228  14.210  0.00  0.00    +0.000 A 
ATOM      7  N   UNL     1      47.054   6.986  13.513  0.00  0.00    +0.000 NA
ATOM      8  H   UNL     1      45.614   7.713  11.155  0.00  0.00    +0.000 HD
ENDROOT
BRANCH   1  12
ATOM      9  N   UNL     1      44.052   2.447  12.516  0.00  0.00    +0.000 NA
ATOM     10  C   UNL     1      43.982   3.607  11.949  0.00  0.00    +0.000 C 
ATOM     11  C   UNL     1      45.199   4.454  11.676  0.00  0.00    +0.000 C 
ATOM     12  C   UNL     1      44.930   5.933  11.996  0.00  0.00    +0.000 C 
ATOM     13  C   UNL     1      43.570   6.376  11.415  0.00  0.00    +0.000 C 
ATOM     14  C   UNL     1      42.439   5.457  11.861  0.00  0.00    +0.000 C 
ATOM     15  N   UNL     1      42.765   4.079  11.557  0.00  0.00    +0.000 N 
ATOM     16  H   UNL     1      45.024   2.230  12.758  0.00  0.00    +0.000 HD
ATOM     17  H   UNL     1      42.032   3.419  11.807  0.00  0.00    +0.000 HD
ENDBRANCH   1  12
BRANCH   5  18
ATOM     18  C   UNL     1      50.655   7.714  14.473  0.00  0.00    +0.000 C 
BRANCH  18  19
ATOM     19  N   UNL     1      50.456   7.306  15.844  0.00  0.00    +0.000 N 
ATOM     20  C   UNL     1      51.442   6.654  16.545  0.00  0.00    +0.000 C 
ATOM     21  O   UNL     1      52.545   6.424  16.054  0.00  0.00    +0.000 OA
ATOM     22  H   UNL     1      49.497   7.248  16.176  0.00  0.00    +0.000 HD
BRANCH  20  23
ATOM     23  C   UNL     1      51.132   6.303  17.943  0.00  0.00    +0.000 A 
ATOM     24  C   UNL     1      51.910   6.815  18.968  0.00  0.00    +0.000 A 
ATOM     25  S   UNL     1      51.381   6.353  20.524  0.00  0.00    +0.000 S 
ATOM     26  C   UNL     1      50.123   5.408  19.874  0.00  0.00    +0.000 A 
ATOM     27  N   UNL     1      49.288   4.700  20.683  0.00  0.00    +0.000 NA
ATOM     28  C   UNL     1      48.402   4.006  20.054  0.00  0.00    +0.000 A 
ATOM     29  N   UNL     1      48.265   3.959  18.693  0.00  0.00    +0.000 N 
ATOM     30  C   UNL     1      49.063   4.683  17.838  0.00  0.00    +0.000 A 
ATOM     31  O   UNL     1      48.886   4.660  16.625  0.00  0.00    +0.000 OA
ATOM     32  C   UNL     1      50.092   5.468  18.492  0.00  0.00    +0.000 A 
ATOM     33  H   UNL     1      47.538   3.408  18.263  0.00  0.00    +0.000 HD
ENDBRANCH  20  23
ENDBRANCH  18  19
ENDBRANCH   5  18
TORSDOF 4
ENDMDL
