MODEL 1
REMARK VINA RESULT:    -8.232      0.000      0.000
REMARK INTER + INTRA:         -12.118
REMARK INTER:                 -11.119
REMARK INTRA:                  -0.999
REMARK UNBOUND:                -0.999
REMARK  Name = 
REMARK  6 active torsions:
REMARK  status: ('A' for Active; 'I' for Inactive)
REMARK    1  A    between atoms: C_2  and  C_4
REMARK    2  A    between atoms: N_8  and  C_9
REMARK    3  A    between atoms: C_9  and  C_10
REMARK    4  A    between atoms: C_10  and  C_11
REMARK    5  A    between atoms: C_15  and  O_16
REMARK    6  A    between atoms: O_16  and  C_17
REMARK                            x       y       z     vdW  Elec       q    Type
REMARK                         _______ _______ _______ _____ _____    ______ ____
ROOT
ATOM      1  C   UNL     1      46.549   2.663   7.258  0.00  0.00    +0.000 A 
ATOM      2  C   UNL     1      45.935   3.856   7.606  0.00  0.00    +0.000 A 
ATOM      3  C   UNL     1      45.073   3.883   8.698  0.00  0.00    +0.000 A 
ATOM      4  C   UNL     1      44.828   2.724   9.431  0.00  0.00    +0.000 A 
ATOM      5  N   UNL     1      44.006   2.710  10.537  0.00  0.00    +0.000 N 
ATOM      6  N   UNL     1      45.394   1.551   9.083  0.00  0.00    +0.000 NA
ATOM      7  C   UNL     1      46.226   1.539   8.003  0.00  0.00    +0.000 A 
ATOM      8  H   UNL     1      43.921   1.815  11.000  0.00  0.00    +0.000 HD
ENDROOT
BRANCH   1  10
ATOM      9  N   UNL     1      48.834   2.573   6.447  0.00  0.00    +0.000 N 
ATOM     10  C   UNL     1      47.502   2.562   6.135  0.00  0.00    +0.000 C 
ATOM     11  O   UNL     1      47.118   2.448   4.980  0.00  0.00    +0.000 OA
ATOM     12  H   UNL     1      49.476   2.408   5.680  0.00  0.00    +0.000 HD
ATOM     13  H   UNL     1      49.177   2.426   7.385  0.00  0.00    +0.000 HD
ENDBRANCH   1  10
BRANCH   5  14
ATOM     14  C   UNL     1      43.407   3.920  11.057  0.00  0.00    +0.000 C 
BRANCH  14  15
ATOM     15  C   UNL     1      43.722   4.184  12.528  0.00  0.00    +0.000 C 
BRANCH  15  16
ATOM     16  C   UNL     1      45.067   4.873  12.626  0.00  0.00    +0.000 A 
ATOM     17  C   UNL     1      45.427   5.869  11.709  0.00  0.00    +0.000 A 
ATOM     18  C   UNL     1      46.618   6.581  11.869  0.00  0.00    +0.000 A 
ATOM     19  C   UNL     1      47.466   6.305  12.945  0.00  0.00    +0.000 A 
ATOM     20  C   UNL     1      47.124   5.312  13.858  0.00  0.00    +0.000 A 
ATOM     21  C   UNL     1      45.925   4.607  13.704  0.00  0.00    +0.000 A 
BRANCH  20  22
ATOM     22  O   UNL     1      47.865   4.987  14.967  0.00  0.00    +0.000 OA
BRANCH  22  23
ATOM     23  C   UNL     1      47.280   4.123  15.966  0.00  0.00    +0.000 C 
ATOM     24  C   UNL     1      47.456   4.543  17.445  0.00  0.00    +0.000 C 
ATOM     25  C   UNL     1      47.841   3.096  17.782  0.00  0.00    +0.000 C 
ATOM     26  C   UNL     1      48.123   2.865  16.292  0.00  0.00    +0.000 C 
ENDBRANCH  22  23
ENDBRANCH  20  22
ENDBRANCH  15  16
ENDBRANCH  14  15
ENDBRANCH   5  14
TORSDOF 6
ENDMDL
MODEL 2
REMARK VINA RESULT:    -7.785      2.049      3.559
REMARK INTER + INTRA:         -11.515
REMARK INTER:                 -10.482
REMARK INTRA:                  -1.033
REMARK UNBOUND:                -0.999
REMARK  Name = 
REMARK  6 active torsions:
REMARK  status: ('A' for Active; 'I' for Inactive)
REMARK    1  A    between atoms: C_2  and  C_4
REMARK    2  A    between atoms: N_8  and  C_9
REMARK    3  A    between atoms: C_9  and  C_10
REMARK    4  A    between atoms: C_10  and  C_11
REMARK    5  A    between atoms: C_15  and  O_16
REMARK    6  A    between atoms: O_16  and  C_17
REMARK                            x       y       z     vdW  Elec       q    Type
REMARK                         _______ _______ _______ _____ _____    ______ ____
ROOT
ATOM      1  C   UNL     1      46.612   2.489   7.467  0.00  0.00    +0.000 A 
ATOM      2  C   UNL     1      45.826   1.911   8.453  0.00  0.00    +0.000 A 
ATOM      3  C   UNL     1      45.014   2.724   9.237  0.00  0.00    +0.000 A 
ATOM      4  C   UNL     1      44.991   4.103   9.035  0.00  0.00    +0.000 A 
ATOM      5  N   UNL     1      44.180   4.942   9.766  0.00  0.00    +0.000 N 
ATOM      6  N   UNL     1      45.774   4.679   8.101  0.00  0.00    +0.000 NA
ATOM      7  C   UNL     1      46.573   3.870   7.350  0.00  0.00    +0.000 A 
ATOM      8  H   UNL     1      44.234   5.920   9.516  0.00  0.00    +0.000 HD
ENDROOT
BRANCH   1  10
ATOM      9  N   UNL     1      48.501   2.345   5.951  0.00  0.00    +0.000 N 
ATOM     10  C   UNL     1      47.473   1.690   6.573  0.00  0.00    +0.000 C 
ATOM     11  O   UNL     1      47.292   0.492   6.414  0.00  0.00    +0.000 OA
ATOM     12  H   UNL     1      49.142   1.771   5.416  0.00  0.00    +0.000 HD
ATOM     13  H   UNL     1      48.820   3.259   6.239  0.00  0.00    +0.000 HD
ENDBRANCH   1  10
BRANCH   5  14
ATOM     14  C   UNL     1      43.237   4.434  10.740  0.00  0.00    +0.000 C 
BRANCH  14  15
ATOM     15  C   UNL     1      43.225   5.213  12.054  0.00  0.00    +0.000 C 
BRANCH  15  16
ATOM     16  C   UNL     1      44.605   5.150  12.675  0.00  0.00    +0.000 A 
ATOM     17  C   UNL     1      45.215   3.917  12.936  0.00  0.00    +0.000 A 
ATOM     18  C   UNL     1      46.530   3.863  13.403  0.00  0.00    +0.000 A 
ATOM     19  C   UNL     1      47.252   5.039  13.618  0.00  0.00    +0.000 A 
ATOM     20  C   UNL     1      46.654   6.272  13.370  0.00  0.00    +0.000 A 
ATOM     21  C   UNL     1      45.341   6.325  12.892  0.00  0.00    +0.000 A 
BRANCH  20  22
ATOM     22  O   UNL     1      47.285   7.483  13.513  0.00  0.00    +0.000 OA
BRANCH  22  23
ATOM     23  C   UNL     1      47.569   8.262  12.330  0.00  0.00    +0.000 C 
ATOM     24  C   UNL     1      48.884   7.938  11.579  0.00  0.00    +0.000 C 
ATOM     25  C   UNL     1      49.170   9.444  11.488  0.00  0.00    +0.000 C 
ATOM     26  C   UNL     1      48.157   9.666  12.618  0.00  0.00    +0.000 C 
ENDBRANCH  22  23
ENDBRANCH  20  22
ENDBRANCH  15  16
ENDBRANCH  14  15
ENDBRANCH   5  14
TORSDOF 6
ENDMDL
MODEL 3
REMARK VINA RESULT:    -7.304      2.283      4.154
REMARK INTER + INTRA:         -10.865
REMARK INTER:                 -10.387
REMARK INTRA:                  -0.478
REMARK UNBOUND:                -0.999
REMARK  Name = 
REMARK  6 active torsions:
REMARK  status: ('A' for Active; 'I' for Inactive)
REMARK    1  A    between atoms: C_2  and  C_4
REMARK    2  A    between atoms: N_8  and  C_9
REMARK    3  A    between atoms: C_9  and  C_10
REMARK    4  A    between atoms: C_10  and  C_11
REMARK    5  A    between atoms: C_15  and  O_16
REMARK    6  A    between atoms: O_16  and  C_17
REMARK                            x       y       z     vdW  Elec       q    Type
REMARK                         _______ _______ _______ _____ _____    ______ ____
ROOT
ATOM      1  C   UNL     1      46.480   2.483   7.756  0.00  0.00    +0.000 A 
ATOM      2  C   UNL     1      45.761   1.905   8.792  0.00  0.00    +0.000 A 
ATOM      3  C   UNL     1      44.899   2.696   9.544  0.00  0.00    +0.000 A 
ATOM      4  C   UNL     1      44.759   4.053   9.260  0.00  0.00    +0.000 A 
ATOM      5  N   UNL     1      43.895   4.868   9.959  0.00  0.00    +0.000 N 
ATOM      6  N   UNL     1      45.476   4.633   8.277  0.00  0.00    +0.000 NA
ATOM      7  C   UNL     1      46.326   3.847   7.557  0.00  0.00    +0.000 A 
ATOM      8  H   UNL     1      43.863   5.830   9.649  0.00  0.00    +0.000 HD
ENDROOT
BRANCH   1  10
ATOM      9  N   UNL     1      48.456   2.368   6.353  0.00  0.00    +0.000 N 
ATOM     10  C   UNL     1      47.388   1.704   6.892  0.00  0.00    +0.000 C 
ATOM     11  O   UNL     1      47.209   0.512   6.689  0.00  0.00    +0.000 OA
ATOM     12  H   UNL     1      49.124   1.804   5.840  0.00  0.00    +0.000 HD
ATOM     13  H   UNL     1      48.763   3.271   6.685  0.00  0.00    +0.000 HD
ENDBRANCH   1  10
BRANCH   5  14
ATOM     14  C   UNL     1      43.013   4.345  10.981  0.00  0.00    +0.000 C 
BRANCH  14  15
ATOM     15  C   UNL     1      42.948   5.208  12.240  0.00  0.00    +0.000 C 
BRANCH  15  16
ATOM     16  C   UNL     1      44.356   5.583  12.652  0.00  0.00    +0.000 A 
ATOM     17  C   UNL     1      45.153   4.683  13.371  0.00  0.00    +0.000 A 
ATOM     18  C   UNL     1      46.487   4.988  13.651  0.00  0.00    +0.000 A 
ATOM     19  C   UNL     1      47.041   6.196  13.221  0.00  0.00    +0.000 A 
ATOM     20  C   UNL     1      46.257   7.103  12.514  0.00  0.00    +0.000 A 
ATOM     21  C   UNL     1      44.924   6.793  12.223  0.00  0.00    +0.000 A 
BRANCH  20  22
ATOM     22  O   UNL     1      46.711   8.299  12.015  0.00  0.00    +0.000 OA
BRANCH  22  23
ATOM     23  C   UNL     1      46.057   9.518  12.431  0.00  0.00    +0.000 C 
ATOM     24  C   UNL     1      44.881  10.015  11.556  0.00  0.00    +0.000 C 
ATOM     25  C   UNL     1      45.474  11.430  11.612  0.00  0.00    +0.000 C 
ATOM     26  C   UNL     1      46.812  10.812  12.035  0.00  0.00    +0.000 C 
ENDBRANCH  22  23
ENDBRANCH  20  22
ENDBRANCH  15  16
ENDBRANCH  14  15
ENDBRANCH   5  14
TORSDOF 6
ENDMDL
MODEL 4
REMARK VINA RESULT:    -7.179      2.368      3.001
REMARK INTER + INTRA:         -10.696
REMARK INTER:                  -9.653
REMARK INTRA:                  -1.043
REMARK UNBOUND:                -0.999
REMARK  Name = 
REMARK  6 active torsions:
REMARK  status: ('A' for Active; 'I' for Inactive)
REMARK    1  A    between atoms: C_2  and  C_4
REMARK    2  A    between atoms: N_8  and  C_9
REMARK    3  A    between atoms: C_9  and  C_10
REMARK    4  A    between atoms: C_10  and  C_11
REMARK    5  A    between atoms: C_15  and  O_16
REMARK    6  A    between atoms: O_16  and  C_17
REMARK                            x       y       z     vdW  Elec       q    Type
REMARK                         _______ _______ _______ _____ _____    ______ ____
ROOT
ATOM      1  C   UNL     1      46.464   2.712   7.510  0.00  0.00    +0.000 A 
ATOM      2  C   UNL     1      45.875   3.872   7.987  0.00  0.00    +0.000 A 
ATOM      3  C   UNL     1      44.991   3.794   9.059  0.00  0.00    +0.000 A 
ATOM      4  C   UNL     1      44.702   2.563   9.646  0.00  0.00    +0.000 A 
ATOM      5  N   UNL     1      43.857   2.442  10.727  0.00  0.00    +0.000 N 
ATOM      6  N   UNL     1      45.244   1.425   9.170  0.00  0.00    +0.000 NA
ATOM      7  C   UNL     1      46.098   1.517   8.111  0.00  0.00    +0.000 A 
ATOM      8  H   UNL     1      43.740   1.501  11.080  0.00  0.00    +0.000 HD
ENDROOT
BRANCH   1  10
ATOM      9  N   UNL     1      47.133   3.487   5.310  0.00  0.00    +0.000 N 
ATOM     10  C   UNL     1      47.437   2.717   6.399  0.00  0.00    +0.000 C 
ATOM     11  O   UNL     1      48.480   2.083   6.461  0.00  0.00    +0.000 OA
ATOM     12  H   UNL     1      47.849   3.559   4.597  0.00  0.00    +0.000 HD
ATOM     13  H   UNL     1      46.414   4.196   5.325  0.00  0.00    +0.000 HD
ENDBRANCH   1  10
BRANCH   5  14
ATOM     14  C   UNL     1      43.279   3.599  11.377  0.00  0.00    +0.000 C 
BRANCH  14  15
ATOM     15  C   UNL     1      44.055   4.070  12.606  0.00  0.00    +0.000 C 
BRANCH  15  16
ATOM     16  C   UNL     1      44.614   5.451  12.334  0.00  0.00    +0.000 A 
ATOM     17  C   UNL     1      43.907   6.364  11.542  0.00  0.00    +0.000 A 
ATOM     18  C   UNL     1      44.371   7.672  11.386  0.00  0.00    +0.000 A 
ATOM     19  C   UNL     1      45.547   8.084  12.018  0.00  0.00    +0.000 A 
ATOM     20  C   UNL     1      46.264   7.184  12.800  0.00  0.00    +0.000 A 
ATOM     21  C   UNL     1      45.793   5.877  12.965  0.00  0.00    +0.000 A 
BRANCH  20  22
ATOM     22  O   UNL     1      47.409   7.495  13.492  0.00  0.00    +0.000 OA
BRANCH  22  23
ATOM     23  C   UNL     1      48.683   7.093  12.942  0.00  0.00    +0.000 C 
ATOM     24  C   UNL     1      49.934   7.847  13.454  0.00  0.00    +0.000 C 
ATOM     25  C   UNL     1      50.417   7.975  12.002  0.00  0.00    +0.000 C 
ATOM     26  C   UNL     1      48.984   7.680  11.540  0.00  0.00    +0.000 C 
ENDBRANCH  22  23
ENDBRANCH  20  22
ENDBRANCH  15  16
ENDBRANCH  14  15
ENDBRANCH   5  14
TORSDOF 6
ENDMDL
MODEL 5
REMARK VINA RESULT:    -6.960      3.261      7.793
REMARK INTER + INTRA:         -10.400
REMARK INTER:                  -9.506
REMARK INTRA:                  -0.894
REMARK UNBOUND:                -0.999
REMARK  Name = 
REMARK  6 active torsions:
REMARK  status: ('A' for Active; 'I' for Inactive)
REMARK    1  A    between atoms: C_2  and  C_4
REMARK    2  A    between atoms: N_8  and  C_9
REMARK    3  A    between atoms: C_9  and  C_10
REMARK    4  A    between atoms: C_10  and  C_11
REMARK    5  A    between atoms: C_15  and  O_16
REMARK    6  A    between atoms: O_16  and  C_17
REMARK                            x       y       z     vdW  Elec       q    Type
REMARK                         _______ _______ _______ _____ _____    ______ ____
ROOT
ATOM      1  C   UNL     1      47.716   4.216  16.443  0.00  0.00    +0.000 A 
ATOM      2  C   UNL     1      47.023   4.018  15.258  0.00  0.00    +0.000 A 
ATOM      3  C   UNL     1      47.158   4.946  14.230  0.00  0.00    +0.000 A 
ATOM      4  C   UNL     1      47.978   6.061  14.389  0.00  0.00    +0.000 A 
ATOM      5  N   UNL     1      48.164   6.989  13.388  0.00  0.00    +0.000 N 
ATOM      6  N   UNL     1      48.630   6.281  15.548  0.00  0.00    +0.000 NA
ATOM      7  C   UNL     1      48.478   5.370  16.550  0.00  0.00    +0.000 A 
ATOM      8  H   UNL     1      48.797   7.744  13.612  0.00  0.00    +0.000 HD
ENDROOT
BRANCH   1  10
ATOM      9  N   UNL     1      48.733   3.210  18.403  0.00  0.00    +0.000 N 
ATOM     10  C   UNL     1      47.652   3.260  17.566  0.00  0.00    +0.000 C 
ATOM     11  O   UNL     1      46.666   2.563  17.755  0.00  0.00    +0.000 OA
ATOM     12  H   UNL     1      48.640   2.622  19.222  0.00  0.00    +0.000 HD
ATOM     13  H   UNL     1      49.446   3.925  18.418  0.00  0.00    +0.000 HD
ENDBRANCH   1  10
BRANCH   5  14
ATOM     14  C   UNL     1      47.582   6.819  12.073  0.00  0.00    +0.000 C 
BRANCH  14  15
ATOM     15  C   UNL     1      46.176   7.400  11.941  0.00  0.00    +0.000 C 
BRANCH  15  16
ATOM     16  C   UNL     1      45.203   6.273  11.662  0.00  0.00    +0.000 A 
ATOM     17  C   UNL     1      44.147   6.008  12.543  0.00  0.00    +0.000 A 
ATOM     18  C   UNL     1      43.188   5.043  12.226  0.00  0.00    +0.000 A 
ATOM     19  C   UNL     1      43.273   4.329  11.028  0.00  0.00    +0.000 A 
ATOM     20  C   UNL     1      44.322   4.577  10.148  0.00  0.00    +0.000 A 
ATOM     21  C   UNL     1      45.276   5.552  10.460  0.00  0.00    +0.000 A 
BRANCH  20  22
ATOM     22  O   UNL     1      44.479   3.960   8.932  0.00  0.00    +0.000 OA
BRANCH  22  23
ATOM     23  C   UNL     1      45.775   3.422   8.587  0.00  0.00    +0.000 C 
ATOM     24  C   UNL     1      46.144   3.395   7.084  0.00  0.00    +0.000 C 
ATOM     25  C   UNL     1      46.644   1.955   7.261  0.00  0.00    +0.000 C 
ATOM     26  C   UNL     1      45.835   1.875   8.563  0.00  0.00    +0.000 C 
ENDBRANCH  22  23
ENDBRANCH  20  22
ENDBRANCH  15  16
ENDBRANCH  14  15
ENDBRANCH   5  14
TORSDOF 6
ENDMDL
MODEL 6
REMARK VINA RESULT:    -6.694      2.837      7.795
REMARK INTER + INTRA:         -10.041
REMARK INTER:                  -9.771
REMARK INTRA:                  -0.271
REMARK UNBOUND:                -0.999
REMARK  Name = 
REMARK  6 active torsions:
REMARK  status: ('A' for Active; 'I' for Inactive)
REMARK    1  A    between atoms: C_2  and  C_4
REMARK    2  A    between atoms: N_8  and  C_9
REMARK    3  A    between atoms: C_9  and  C_10
REMARK    4  A    between atoms: C_10  and  C_11
REMARK    5  A    between atoms: C_15  and  O_16
REMARK    6  A    between atoms: O_16  and  C_17
REMARK                            x       y       z     vdW  Elec       q    Type
REMARK                         _______ _______ _______ _____ _____    ______ ____
ROOT
ATOM      1  C   UNL     1      46.632   7.374  13.011  0.00  0.00    +0.000 A 
ATOM      2  C   UNL     1      45.716   7.306  11.973  0.00  0.00    +0.000 A 
ATOM      3  C   UNL     1      45.111   6.088  11.680  0.00  0.00    +0.000 A 
ATOM      4  C   UNL     1      45.423   4.950  12.421  0.00  0.00    +0.000 A 
ATOM      5  N   UNL     1      44.827   3.730  12.187  0.00  0.00    +0.000 N 
ATOM      6  N   UNL     1      46.336   4.997  13.412  0.00  0.00    +0.000 NA
ATOM      7  C   UNL     1      46.929   6.196  13.678  0.00  0.00    +0.000 A 
ATOM      8  H   UNL     1      45.118   2.982  12.802  0.00  0.00    +0.000 HD
ENDROOT
BRANCH   1  10
ATOM      9  N   UNL     1      47.244   8.975  14.729  0.00  0.00    +0.000 N 
ATOM     10  C   UNL     1      47.290   8.637  13.404  0.00  0.00    +0.000 C 
ATOM     11  O   UNL     1      47.871   9.335  12.586  0.00  0.00    +0.000 OA
ATOM     12  H   UNL     1      47.779   9.792  15.002  0.00  0.00    +0.000 HD
ATOM     13  H   UNL     1      46.989   8.319  15.452  0.00  0.00    +0.000 HD
ENDBRANCH   1  10
BRANCH   5  14
ATOM     14  C   UNL     1      43.774   3.572  11.206  0.00  0.00    +0.000 C 
BRANCH  14  15
ATOM     15  C   UNL     1      43.983   2.390  10.261  0.00  0.00    +0.000 C 
BRANCH  15  16
ATOM     16  C   UNL     1      44.949   2.798   9.169  0.00  0.00    +0.000 A 
ATOM     17  C   UNL     1      45.159   4.150   8.871  0.00  0.00    +0.000 A 
ATOM     18  C   UNL     1      46.133   4.526   7.942  0.00  0.00    +0.000 A 
ATOM     19  C   UNL     1      46.905   3.557   7.297  0.00  0.00    +0.000 A 
ATOM     20  C   UNL     1      46.699   2.209   7.577  0.00  0.00    +0.000 A 
ATOM     21  C   UNL     1      45.732   1.834   8.516  0.00  0.00    +0.000 A 
BRANCH  20  22
ATOM     22  O   UNL     1      47.425   1.181   7.028  0.00  0.00    +0.000 OA
BRANCH  22  23
ATOM     23  C   UNL     1      47.689   1.199   5.608  0.00  0.00    +0.000 C 
ATOM     24  C   UNL     1      46.774   2.095   4.738  0.00  0.00    +0.000 C 
ATOM     25  C   UNL     1      46.636   0.936   3.740  0.00  0.00    +0.000 C 
ATOM     26  C   UNL     1      47.116  -0.019   4.840  0.00  0.00    +0.000 C 
ENDBRANCH  22  23
ENDBRANCH  20  22
ENDBRANCH  15  16
ENDBRANCH  14  15
ENDBRANCH   5  14
TORSDOF 6
ENDMDL
MODEL 7
REMARK VINA RESULT:    -6.535      3.217      8.457
REMARK INTER + INTRA:          -9.826
REMARK INTER:                  -9.242
REMARK INTRA:                  -0.584
REMARK UNBOUND:                -0.999
REMARK  Name = 
REMARK  6 active torsions:
REMARK  status: ('A' for Active; 'I' for Inactive)
REMARK    1  A    between atoms: C_2  and  C_4
REMARK    2  A    between atoms: N_8  and  C_9
REMARK    3  A    between atoms: C_9  and  C_10
REMARK    4  A    between atoms: C_10  and  C_11
REMARK    5  A    between atoms: C_15  and  O_16
REMARK    6  A    between atoms: O_16  and  C_17
REMARK                            x       y       z     vdW  Elec       q    Type
REMARK                         _______ _______ _______ _____ _____    ______ ____
ROOT
ATOM      1  C   UNL     1      48.871   4.510  16.906  0.00  0.00    +0.000 A 
ATOM      2  C   UNL     1      47.707   3.895  16.473  0.00  0.00    +0.000 A 
ATOM      3  C   UNL     1      46.990   4.462  15.423  0.00  0.00    +0.000 A 
ATOM      4  C   UNL     1      47.438   5.634  14.815  0.00  0.00    +0.000 A 
ATOM      5  N   UNL     1      46.778   6.213  13.754  0.00  0.00    +0.000 N 
ATOM      6  N   UNL     1      48.552   6.257  15.249  0.00  0.00    +0.000 NA
ATOM      7  C   UNL     1      49.235   5.696  16.287  0.00  0.00    +0.000 A 
ATOM      8  H   UNL     1      47.208   7.049  13.383  0.00  0.00    +0.000 HD
ENDROOT
BRANCH   1  10
ATOM      9  N   UNL     1      49.054   3.285  18.993  0.00  0.00    +0.000 N 
ATOM     10  C   UNL     1      49.704   3.951  17.990  0.00  0.00    +0.000 C 
ATOM     11  O   UNL     1      50.921   4.057  17.979  0.00  0.00    +0.000 OA
ATOM     12  H   UNL     1      49.640   2.825  19.680  0.00  0.00    +0.000 HD
ATOM     13  H   UNL     1      48.096   2.977  18.914  0.00  0.00    +0.000 HD
ENDBRANCH   1  10
BRANCH   5  14
ATOM     14  C   UNL     1      45.618   5.594  13.148  0.00  0.00    +0.000 C 
BRANCH  14  15
ATOM     15  C   UNL     1      45.325   6.086  11.732  0.00  0.00    +0.000 C 
BRANCH  15  16
ATOM     16  C   UNL     1      45.138   4.888  10.824  0.00  0.00    +0.000 A 
ATOM     17  C   UNL     1      44.365   3.795  11.236  0.00  0.00    +0.000 A 
ATOM     18  C   UNL     1      44.102   2.743  10.355  0.00  0.00    +0.000 A 
ATOM     19  C   UNL     1      44.609   2.769   9.054  0.00  0.00    +0.000 A 
ATOM     20  C   UNL     1      45.386   3.845   8.636  0.00  0.00    +0.000 A 
ATOM     21  C   UNL     1      45.640   4.903   9.514  0.00  0.00    +0.000 A 
BRANCH  20  22
ATOM     22  O   UNL     1      45.902   3.986   7.371  0.00  0.00    +0.000 OA
BRANCH  22  23
ATOM     23  C   UNL     1      46.192   2.798   6.602  0.00  0.00    +0.000 C 
ATOM     24  C   UNL     1      47.452   1.994   7.007  0.00  0.00    +0.000 C 
ATOM     25  C   UNL     1      47.835   1.901   5.523  0.00  0.00    +0.000 C 
ATOM     26  C   UNL     1      46.884   3.071   5.244  0.00  0.00    +0.000 C 
ENDBRANCH  22  23
ENDBRANCH  20  22
ENDBRANCH  15  16
ENDBRANCH  14  15
ENDBRANCH   5  14
TORSDOF 6
ENDMDL
MODEL 8
REMARK VINA RESULT:    -6.299      3.479      7.320
REMARK INTER + INTRA:          -9.508
REMARK INTER:                  -8.695
REMARK INTRA:                  -0.813
REMARK UNBOUND:                -0.999
REMARK  Name = 
REMARK  6 active torsions:
REMARK  status: ('A' for Active; 'I' for Inactive)
REMARK    1  A    between atoms: C_2  and  C_4
REMARK    2  A    between atoms: N_8  and  C_9
REMARK    3  A    between atoms: C_9  and  C_10
REMARK    4  A    between atoms: C_10  and  C_11
REMARK    5  A    between atoms: C_15  and  O_16
REMARK    6  A    between atoms: O_16  and  C_17
REMARK                            x       y       z     vdW  Elec       q    Type
REMARK                         _______ _______ _______ _____ _____    ______ ____
ROOT
ATOM      1  C   UNL     1      48.665   7.550  12.605  0.00  0.00    +0.000 A 
ATOM      2  C   UNL     1      48.054   6.315  12.755  0.00  0.00    +0.000 A 
ATOM      3  C   UNL     1      46.665   6.237  12.722  0.00  0.00    +0.000 A 
ATOM      4  C   UNL     1      45.898   7.387  12.542  0.00  0.00    +0.000 A 
ATOM      5  N   UNL     1      44.523   7.353  12.473  0.00  0.00    +0.000 N 
ATOM      6  N   UNL     1      46.481   8.597  12.426  0.00  0.00    +0.000 NA
ATOM      7  C   UNL     1      47.842   8.658  12.473  0.00  0.00    +0.000 A 
ATOM      8  H   UNL     1      44.076   8.247  12.319  0.00  0.00    +0.000 HD
ENDROOT
BRANCH   1  10
ATOM      9  N   UNL     1      50.773   7.494  11.404  0.00  0.00    +0.000 N 
ATOM     10  C   UNL     1      50.133   7.709  12.594  0.00  0.00    +0.000 C 
ATOM     11  O   UNL     1      50.746   8.044  13.597  0.00  0.00    +0.000 OA
ATOM     12  H   UNL     1      51.766   7.698  11.384  0.00  0.00    +0.000 HD
ATOM     13  H   UNL     1      50.286   7.453  10.521  0.00  0.00    +0.000 HD
ENDBRANCH   1  10
BRANCH   5  14
ATOM     14  C   UNL     1      43.788   6.106  12.502  0.00  0.00    +0.000 C 
BRANCH  14  15
ATOM     15  C   UNL     1      43.120   5.752  11.175  0.00  0.00    +0.000 C 
BRANCH  15  16
ATOM     16  C   UNL     1      43.834   4.563  10.567  0.00  0.00    +0.000 A 
ATOM     17  C   UNL     1      43.609   3.270  11.055  0.00  0.00    +0.000 A 
ATOM     18  C   UNL     1      44.182   2.165  10.420  0.00  0.00    +0.000 A 
ATOM     19  C   UNL     1      44.988   2.338   9.292  0.00  0.00    +0.000 A 
ATOM     20  C   UNL     1      45.226   3.619   8.802  0.00  0.00    +0.000 A 
ATOM     21  C   UNL     1      44.643   4.724   9.431  0.00  0.00    +0.000 A 
BRANCH  20  22
ATOM     22  O   UNL     1      45.970   3.896   7.683  0.00  0.00    +0.000 OA
BRANCH  22  23
ATOM     23  C   UNL     1      46.246   2.828   6.750  0.00  0.00    +0.000 C 
ATOM     24  C   UNL     1      47.512   1.977   7.015  0.00  0.00    +0.000 C 
ATOM     25  C   UNL     1      47.870   2.095   5.527  0.00  0.00    +0.000 C 
ATOM     26  C   UNL     1      46.915   3.292   5.431  0.00  0.00    +0.000 C 
ENDBRANCH  22  23
ENDBRANCH  20  22
ENDBRANCH  15  16
ENDBRANCH  14  15
ENDBRANCH   5  14
TORSDOF 6
ENDMDL
MODEL 9
REMARK VINA RESULT:    -6.114      3.717      5.776
REMARK INTER + INTRA:          -9.257
REMARK INTER:                  -7.875
REMARK INTRA:                  -1.383
REMARK UNBOUND:                -0.999
REMARK  Name = 
REMARK  6 active torsions:
REMARK  status: ('A' for Active; 'I' for Inactive)
REMARK    1  A    between atoms: C_2  and  C_4
REMARK    2  A    between atoms: N_8  and  C_9
REMARK    3  A    between atoms: C_9  and  C_10
REMARK    4  A    between atoms: C_10  and  C_11
REMARK    5  A    between atoms: C_15  and  O_16
REMARK    6  A    between atoms: O_16  and  C_17
REMARK                            x       y       z     vdW  Elec       q    Type
REMARK                         _______ _______ _______ _____ _____    ______ ____
ROOT
ATOM      1  C   UNL     1      45.071   4.778  12.760  0.00  0.00    +0.000 A 
ATOM      2  C   UNL     1      46.000   4.846  13.786  0.00  0.00    +0.000 A 
ATOM      3  C   UNL     1      47.136   5.633  13.622  0.00  0.00    +0.000 A 
ATOM      4  C   UNL     1      47.337   6.344  12.440  0.00  0.00    +0.000 A 
ATOM      5  N   UNL     1      48.430   7.159  12.247  0.00  0.00    +0.000 N 
ATOM      6  N   UNL     1      46.455   6.260  11.424  0.00  0.00    +0.000 NA
ATOM      7  C   UNL     1      45.355   5.475  11.595  0.00  0.00    +0.000 A 
ATOM      8  H   UNL     1      48.458   7.640  11.358  0.00  0.00    +0.000 HD
ENDROOT
BRANCH   1  10
ATOM      9  N   UNL     1      43.900   2.662  12.561  0.00  0.00    +0.000 N 
ATOM     10  C   UNL     1      43.825   3.992  12.871  0.00  0.00    +0.000 C 
ATOM     11  O   UNL     1      42.781   4.503  13.248  0.00  0.00    +0.000 OA
ATOM     12  H   UNL     1      43.064   2.113  12.732  0.00  0.00    +0.000 HD
ATOM     13  H   UNL     1      44.776   2.167  12.481  0.00  0.00    +0.000 HD
ENDBRANCH   1  10
BRANCH   5  14
ATOM     14  C   UNL     1      49.402   7.393  13.294  0.00  0.00    +0.000 C 
BRANCH  14  15
ATOM     15  C   UNL     1      49.256   8.750  13.979  0.00  0.00    +0.000 C 
BRANCH  15  16
ATOM     16  C   UNL     1      48.982   8.530  15.452  0.00  0.00    +0.000 A 
ATOM     17  C   UNL     1      48.368   9.527  16.220  0.00  0.00    +0.000 A 
ATOM     18  C   UNL     1      48.015   9.279  17.549  0.00  0.00    +0.000 A 
ATOM     19  C   UNL     1      48.274   8.034  18.128  0.00  0.00    +0.000 A 
ATOM     20  C   UNL     1      48.892   7.038  17.377  0.00  0.00    +0.000 A 
ATOM     21  C   UNL     1      49.235   7.283  16.044  0.00  0.00    +0.000 A 
BRANCH  20  22
ATOM     22  O   UNL     1      49.158   5.771  17.836  0.00  0.00    +0.000 OA
BRANCH  22  23
ATOM     23  C   UNL     1      48.616   4.643  17.114  0.00  0.00    +0.000 C 
ATOM     24  C   UNL     1      47.122   4.315  17.348  0.00  0.00    +0.000 C 
ATOM     25  C   UNL     1      47.499   2.834  17.494  0.00  0.00    +0.000 C 
ATOM     26  C   UNL     1      48.949   3.267  17.742  0.00  0.00    +0.000 C 
ENDBRANCH  22  23
ENDBRANCH  20  22
ENDBRANCH  15  16
ENDBRANCH  14  15
ENDBRANCH   5  14
TORSDOF 6
ENDMDL
