MODEL 1
REMARK VINA RESULT:    -8.079      0.000      0.000
REMARK INTER + INTRA:         -12.827
REMARK INTER:                 -11.621
REMARK INTRA:                  -1.205
REMARK UNBOUND:                -1.205
REMARK  Name = 
REMARK  9 active torsions:
REMARK  status: ('A' for Active; 'I' for Inactive)
REMARK    1  A    between atoms: C_1  and  N_2
REMARK    2  A    between atoms: C_4  and  C_5
REMARK    3  A    between atoms: N_7  and  C_8
REMARK    4  A    between atoms: C_8  and  C_9
REMARK    5  A    between atoms: C_12  and  C_13
REMARK    6  A    between atoms: C_13  and  N_14
REMARK    7  A    between atoms: N_14  and  C_15
REMARK    8  A    between atoms: C_15  and  C_16
REMARK    9  A    between atoms: C_26  and  O_27
REMARK                            x       y       z     vdW  Elec       q    Type
REMARK                         _______ _______ _______ _____ _____    ______ ____
ROOT
ATOM      1  C   UNL     1      48.243   6.552  13.821  0.00  0.00    +0.000 C 
ENDROOT
BRANCH   1   2
ATOM      2  C   UNL     1      46.961   6.236  13.099  0.00  0.00    +0.000 A 
ATOM      3  C   UNL     1      46.699   6.807  11.847  0.00  0.00    +0.000 A 
ATOM      4  C   UNL     1      45.515   6.512  11.164  0.00  0.00    +0.000 A 
ATOM      5  C   UNL     1      44.568   5.641  11.724  0.00  0.00    +0.000 A 
ATOM      6  C   UNL     1      44.825   5.088  12.985  0.00  0.00    +0.000 A 
ATOM      7  C   UNL     1      46.006   5.385  13.670  0.00  0.00    +0.000 A 
BRANCH   5   8
ATOM      8  C   UNL     1      43.285   5.299  11.002  0.00  0.00    +0.000 C 
BRANCH   8   9
ATOM      9  N   UNL     1      43.553   4.641   9.727  0.00  0.00    +0.000 NA
ATOM     10  H   UNL     1      44.236   5.189   9.206  0.00  0.00    +0.000 HD
BRANCH   9  11
ATOM     11  C   UNL     1      44.079   3.292   9.922  0.00  0.00    +0.000 C 
BRANCH  11  12
ATOM     12  C   UNL     1      45.068   2.948   8.831  0.00  0.00    +0.000 A 
ATOM     13  C   UNL     1      45.486   3.906   7.897  0.00  0.00    +0.000 A 
ATOM     14  C   UNL     1      46.405   3.566   6.900  0.00  0.00    +0.000 A 
ATOM     15  C   UNL     1      46.907   2.267   6.831  0.00  0.00    +0.000 A 
ATOM     16 CL   UNL     1      48.036   1.849   5.602  0.00  0.00    +0.000 Cl
ATOM     17  C   UNL     1      46.499   1.305   7.750  0.00  0.00    +0.000 A 
ATOM     18  C   UNL     1      45.587   1.646   8.748  0.00  0.00    +0.000 A 
ENDBRANCH  11  12
ENDBRANCH   9  11
ENDBRANCH   8   9
ENDBRANCH   5   8
ENDBRANCH   1   2
BRANCH   1  21
ATOM     19  C   UNL     1      49.185   6.406  16.074  0.00  0.00    +0.000 C 
ATOM     20  O   UNL     1      50.339   6.483  15.657  0.00  0.00    +0.000 OA
ATOM     21  N   UNL     1      48.091   6.429  15.247  0.00  0.00    +0.000 N 
ATOM     22  H   UNL     1      47.158   6.387  15.631  0.00  0.00    +0.000 HD
BRANCH  19  26
ATOM     23  C   UNL     1      48.844   4.647  20.748  0.00  0.00    +0.000 C 
ATOM     24  N   UNL     1      48.748   5.515  19.597  0.00  0.00    +0.000 N 
ATOM     25  C   UNL     1      49.165   5.200  18.328  0.00  0.00    +0.000 A 
ATOM     26  C   UNL     1      48.906   6.284  17.499  0.00  0.00    +0.000 A 
ATOM     27  C   UNL     1      48.305   7.292  18.325  0.00  0.00    +0.000 A 
ATOM     28  C   UNL     1      47.808   8.591  18.164  0.00  0.00    +0.000 A 
ATOM     29  N   UNL     1      47.296   9.261  19.210  0.00  0.00    +0.000 NA
ATOM     30  C   UNL     1      47.284   8.638  20.400  0.00  0.00    +0.000 A 
ATOM     31  N   UNL     1      47.725   7.402  20.695  0.00  0.00    +0.000 NA
ATOM     32  C   UNL     1      48.225   6.779  19.614  0.00  0.00    +0.000 A 
BRANCH  28  33
ATOM     33  O   UNL     1      47.795   9.270  16.971  0.00  0.00    +0.000 OA
ATOM     34  H   UNL     1      46.904   9.661  16.859  0.00  0.00    +0.000 HD
ENDBRANCH  28  33
ENDBRANCH  19  26
ENDBRANCH   1  21
TORSDOF 8
ENDMDL
MODEL 2
REMARK VINA RESULT:    -7.895      1.414      2.277
REMARK INTER + INTRA:         -12.562
REMARK INTER:                 -11.193
REMARK INTRA:                  -1.369
REMARK UNBOUND:                -1.205
REMARK  Name = 
REMARK  9 active torsions:
REMARK  status: ('A' for Active; 'I' for Inactive)
REMARK    1  A    between atoms: C_1  and  N_2
REMARK    2  A    between atoms: C_4  and  C_5
REMARK    3  A    between atoms: N_7  and  C_8
REMARK    4  A    between atoms: C_8  and  C_9
REMARK    5  A    between atoms: C_12  and  C_13
REMARK    6  A    between atoms: C_13  and  N_14
REMARK    7  A    between atoms: N_14  and  C_15
REMARK    8  A    between atoms: C_15  and  C_16
REMARK    9  A    between atoms: C_26  and  O_27
REMARK                            x       y       z     vdW  Elec       q    Type
REMARK                         _______ _______ _______ _____ _____    ______ ____
ROOT
ATOM      1  C   UNL     1      48.061   6.942  13.358  0.00  0.00    +0.000 C 
ENDROOT
BRANCH   1   2
ATOM      2  C   UNL     1      46.853   6.233  12.812  0.00  0.00    +0.000 A 
ATOM      3  C   UNL     1      46.450   6.448  11.487  0.00  0.00    +0.000 A 
ATOM      4  C   UNL     1      45.333   5.786  10.967  0.00  0.00    +0.000 A 
ATOM      5  C   UNL     1      44.595   4.898  11.764  0.00  0.00    +0.000 A 
ATOM      6  C   UNL     1      44.990   4.702  13.094  0.00  0.00    +0.000 A 
ATOM      7  C   UNL     1      46.103   5.365  13.616  0.00  0.00    +0.000 A 
BRANCH   5   8
ATOM      8  C   UNL     1      43.390   4.164  11.222  0.00  0.00    +0.000 C 
BRANCH   8   9
ATOM      9  N   UNL     1      43.622   3.697   9.859  0.00  0.00    +0.000 NA
ATOM     10  H   UNL     1      44.131   4.414   9.343  0.00  0.00    +0.000 HD
BRANCH   9  11
ATOM     11  C   UNL     1      44.402   2.461   9.842  0.00  0.00    +0.000 C 
BRANCH  11  12
ATOM     12  C   UNL     1      45.332   2.439   8.650  0.00  0.00    +0.000 A 
ATOM     13  C   UNL     1      45.449   3.544   7.796  0.00  0.00    +0.000 A 
ATOM     14  C   UNL     1      46.319   3.502   6.703  0.00  0.00    +0.000 A 
ATOM     15  C   UNL     1      47.071   2.354   6.456  0.00  0.00    +0.000 A 
ATOM     16 CL   UNL     1      48.139   2.302   5.108  0.00  0.00    +0.000 Cl
ATOM     17  C   UNL     1      46.962   1.248   7.293  0.00  0.00    +0.000 A 
ATOM     18  C   UNL     1      46.098   1.293   8.388  0.00  0.00    +0.000 A 
ENDBRANCH  11  12
ENDBRANCH   9  11
ENDBRANCH   8   9
ENDBRANCH   5   8
ENDBRANCH   1   2
BRANCH   1  21
ATOM     19  C   UNL     1      49.377   6.949  15.421  0.00  0.00    +0.000 C 
ATOM     20  O   UNL     1      50.408   7.260  14.828  0.00  0.00    +0.000 OA
ATOM     21  N   UNL     1      48.177   6.769  14.783  0.00  0.00    +0.000 N 
ATOM     22  H   UNL     1      47.347   6.537  15.310  0.00  0.00    +0.000 HD
BRANCH  19  26
ATOM     23  C   UNL     1      49.798   7.697  20.352  0.00  0.00    +0.000 C 
ATOM     24  N   UNL     1      49.550   7.070  19.075  0.00  0.00    +0.000 N 
ATOM     25  C   UNL     1      49.703   7.672  17.851  0.00  0.00    +0.000 A 
ATOM     26  C   UNL     1      49.369   6.752  16.865  0.00  0.00    +0.000 A 
ATOM     27  C   UNL     1      49.001   5.544  17.545  0.00  0.00    +0.000 A 
ATOM     28  C   UNL     1      48.572   4.258  17.195  0.00  0.00    +0.000 A 
ATOM     29  N   UNL     1      48.308   3.344  18.144  0.00  0.00    +0.000 NA
ATOM     30  C   UNL     1      48.473   3.715  19.425  0.00  0.00    +0.000 A 
ATOM     31  N   UNL     1      48.876   4.907  19.900  0.00  0.00    +0.000 NA
ATOM     32  C   UNL     1      49.125   5.780  18.909  0.00  0.00    +0.000 A 
BRANCH  28  33
ATOM     33  O   UNL     1      48.390   3.829  15.903  0.00  0.00    +0.000 OA
ATOM     34  H   UNL     1      49.078   3.159  15.711  0.00  0.00    +0.000 HD
ENDBRANCH  28  33
ENDBRANCH  19  26
ENDBRANCH   1  21
TORSDOF 8
ENDMDL
MODEL 3
REMARK VINA RESULT:    -7.857      2.620      4.275
REMARK INTER + INTRA:         -12.508
REMARK INTER:                 -11.515
REMARK INTRA:                  -0.992
REMARK UNBOUND:                -1.205
REMARK  Name = 
REMARK  9 active torsions:
REMARK  status: ('A' for Active; 'I' for Inactive)
REMARK    1  A    between atoms: C_1  and  N_2
REMARK    2  A    between atoms: C_4  and  C_5
REMARK    3  A    between atoms: N_7  and  C_8
REMARK    4  A    between atoms: C_8  and  C_9
REMARK    5  A    between atoms: C_12  and  C_13
REMARK    6  A    between atoms: C_13  and  N_14
REMARK    7  A    between atoms: N_14  and  C_15
REMARK    8  A    between atoms: C_15  and  C_16
REMARK    9  A    between atoms: C_26  and  O_27
REMARK                            x       y       z     vdW  Elec       q    Type
REMARK                         _______ _______ _______ _____ _____    ______ ____
ROOT
ATOM      1  C   UNL     1      44.206   4.491  12.893  0.00  0.00    +0.000 C 
ENDROOT
BRANCH   1   2
ATOM      2  C   UNL     1      44.534   4.241  11.446  0.00  0.00    +0.000 A 
ATOM      3  C   UNL     1      44.193   3.022  10.847  0.00  0.00    +0.000 A 
ATOM      4  C   UNL     1      44.484   2.783   9.501  0.00  0.00    +0.000 A 
ATOM      5  C   UNL     1      45.126   3.761   8.727  0.00  0.00    +0.000 A 
ATOM      6  C   UNL     1      45.483   4.972   9.335  0.00  0.00    +0.000 A 
ATOM      7  C   UNL     1      45.197   5.210  10.681  0.00  0.00    +0.000 A 
BRANCH   5   8
ATOM      8  C   UNL     1      45.444   3.532   7.267  0.00  0.00    +0.000 C 
BRANCH   8   9
ATOM      9  N   UNL     1      46.786   4.000   6.937  0.00  0.00    +0.000 NA
ATOM     10  H   UNL     1      47.069   4.708   7.614  0.00  0.00    +0.000 HD
BRANCH   9  11
ATOM     11  C   UNL     1      47.755   2.907   6.964  0.00  0.00    +0.000 C 
BRANCH  11  12
ATOM     12  C   UNL     1      47.399   1.860   5.932  0.00  0.00    +0.000 A 
ATOM     13  C   UNL     1      47.167   2.204   4.593  0.00  0.00    +0.000 A 
ATOM     14  C   UNL     1      46.843   1.219   3.657  0.00  0.00    +0.000 A 
ATOM     15  C   UNL     1      46.745  -0.114   4.056  0.00  0.00    +0.000 A 
ATOM     16 CL   UNL     1      46.343  -1.327   2.903  0.00  0.00    +0.000 Cl
ATOM     17  C   UNL     1      46.969  -0.471   5.382  0.00  0.00    +0.000 A 
ATOM     18  C   UNL     1      47.299   0.513   6.315  0.00  0.00    +0.000 A 
ENDBRANCH  11  12
ENDBRANCH   9  11
ENDBRANCH   8   9
ENDBRANCH   5   8
ENDBRANCH   1   2
BRANCH   1  21
ATOM     19  C   UNL     1      46.384   4.484  14.009  0.00  0.00    +0.000 C 
ATOM     20  O   UNL     1      46.518   3.271  13.861  0.00  0.00    +0.000 OA
ATOM     21  N   UNL     1      45.281   5.170  13.568  0.00  0.00    +0.000 N 
ATOM     22  H   UNL     1      45.220   6.171  13.688  0.00  0.00    +0.000 HD
BRANCH  19  26
ATOM     23  C   UNL     1      49.912   7.904  14.962  0.00  0.00    +0.000 C 
ATOM     24  N   UNL     1      48.988   6.804  15.117  0.00  0.00    +0.000 N 
ATOM     25  C   UNL     1      48.134   6.342  14.147  0.00  0.00    +0.000 A 
ATOM     26  C   UNL     1      47.409   5.279  14.672  0.00  0.00    +0.000 A 
ATOM     27  C   UNL     1      47.862   5.106  16.023  0.00  0.00    +0.000 A 
ATOM     28  C   UNL     1      47.580   4.257  17.099  0.00  0.00    +0.000 A 
ATOM     29  N   UNL     1      48.232   4.396  18.266  0.00  0.00    +0.000 NA
ATOM     30  C   UNL     1      49.152   5.372  18.352  0.00  0.00    +0.000 A 
ATOM     31  N   UNL     1      49.519   6.252  17.403  0.00  0.00    +0.000 NA
ATOM     32  C   UNL     1      48.837   6.067  16.260  0.00  0.00    +0.000 A 
BRANCH  28  33
ATOM     33  O   UNL     1      46.654   3.245  17.064  0.00  0.00    +0.000 OA
ATOM     34  H   UNL     1      45.832   3.576  17.481  0.00  0.00    +0.000 HD
ENDBRANCH  28  33
ENDBRANCH  19  26
ENDBRANCH   1  21
TORSDOF 8
ENDMDL
MODEL 4
REMARK VINA RESULT:    -7.797      2.277      2.799
REMARK INTER + INTRA:         -12.420
REMARK INTER:                 -11.314
REMARK INTRA:                  -1.106
REMARK UNBOUND:                -1.205
REMARK  Name = 
REMARK  9 active torsions:
REMARK  status: ('A' for Active; 'I' for Inactive)
REMARK    1  A    between atoms: C_1  and  N_2
REMARK    2  A    between atoms: C_4  and  C_5
REMARK    3  A    between atoms: N_7  and  C_8
REMARK    4  A    between atoms: C_8  and  C_9
REMARK    5  A    between atoms: C_12  and  C_13
REMARK    6  A    between atoms: C_13  and  N_14
REMARK    7  A    between atoms: N_14  and  C_15
REMARK    8  A    between atoms: C_15  and  C_16
REMARK    9  A    between atoms: C_26  and  O_27
REMARK                            x       y       z     vdW  Elec       q    Type
REMARK                         _______ _______ _______ _____ _____    ______ ____
ROOT
ATOM      1  C   UNL     1      47.978   8.188  13.363  0.00  0.00    +0.000 C 
ENDROOT
BRANCH   1   2
ATOM      2  C   UNL     1      46.767   7.506  12.787  0.00  0.00    +0.000 A 
ATOM      3  C   UNL     1      45.686   8.265  12.322  0.00  0.00    +0.000 A 
ATOM      4  C   UNL     1      44.560   7.641  11.775  0.00  0.00    +0.000 A 
ATOM      5  C   UNL     1      44.494   6.243  11.686  0.00  0.00    +0.000 A 
ATOM      6  C   UNL     1      45.569   5.487  12.170  0.00  0.00    +0.000 A 
ATOM      7  C   UNL     1      46.693   6.108  12.720  0.00  0.00    +0.000 A 
BRANCH   5   8
ATOM      8  C   UNL     1      43.293   5.544  11.091  0.00  0.00    +0.000 C 
BRANCH   8   9
ATOM      9  N   UNL     1      43.622   4.919   9.814  0.00  0.00    +0.000 NA
ATOM     10  H   UNL     1      44.404   5.417   9.390  0.00  0.00    +0.000 HD
BRANCH   9  11
ATOM     11  C   UNL     1      43.992   3.516   9.985  0.00  0.00    +0.000 C 
BRANCH  11  12
ATOM     12  C   UNL     1      45.035   3.117   8.965  0.00  0.00    +0.000 A 
ATOM     13  C   UNL     1      45.629   4.065   8.120  0.00  0.00    +0.000 A 
ATOM     14  C   UNL     1      46.594   3.673   7.188  0.00  0.00    +0.000 A 
ATOM     15  C   UNL     1      46.967   2.333   7.094  0.00  0.00    +0.000 A 
ATOM     16 CL   UNL     1      48.153   1.850   5.945  0.00  0.00    +0.000 Cl
ATOM     17  C   UNL     1      46.383   1.380   7.924  0.00  0.00    +0.000 A 
ATOM     18  C   UNL     1      45.425   1.773   8.859  0.00  0.00    +0.000 A 
ENDBRANCH  11  12
ENDBRANCH   9  11
ENDBRANCH   8   9
ENDBRANCH   5   8
ENDBRANCH   1   2
BRANCH   1  21
ATOM     19  C   UNL     1      48.988   7.623  15.519  0.00  0.00    +0.000 C 
ATOM     20  O   UNL     1      48.603   8.670  16.036  0.00  0.00    +0.000 OA
ATOM     21  N   UNL     1      48.731   7.301  14.211  0.00  0.00    +0.000 N 
ATOM     22  H   UNL     1      49.044   6.420  13.830  0.00  0.00    +0.000 HD
BRANCH  19  26
ATOM     23  C   UNL     1      52.645   5.341  18.062  0.00  0.00    +0.000 C 
ATOM     24  N   UNL     1      51.378   5.609  17.422  0.00  0.00    +0.000 N 
ATOM     25  C   UNL     1      51.054   6.762  16.753  0.00  0.00    +0.000 A 
ATOM     26  C   UNL     1      49.753   6.644  16.280  0.00  0.00    +0.000 A 
ATOM     27  C   UNL     1      49.286   5.352  16.694  0.00  0.00    +0.000 A 
ATOM     28  C   UNL     1      48.115   4.596  16.571  0.00  0.00    +0.000 A 
ATOM     29  N   UNL     1      48.035   3.368  17.112  0.00  0.00    +0.000 NA
ATOM     30  C   UNL     1      49.115   2.907  17.766  0.00  0.00    +0.000 A 
ATOM     31  N   UNL     1      50.295   3.522  17.959  0.00  0.00    +0.000 NA
ATOM     32  C   UNL     1      50.318   4.743  17.397  0.00  0.00    +0.000 A 
BRANCH  28  33
ATOM     33  O   UNL     1      46.987   5.019  15.913  0.00  0.00    +0.000 OA
ATOM     34  H   UNL     1      46.881   4.462  15.114  0.00  0.00    +0.000 HD
ENDBRANCH  28  33
ENDBRANCH  19  26
ENDBRANCH   1  21
TORSDOF 8
ENDMDL
MODEL 5
REMARK VINA RESULT:    -7.317      1.630      2.631
REMARK INTER + INTRA:         -11.730
REMARK INTER:                 -10.850
REMARK INTRA:                  -0.881
REMARK UNBOUND:                -1.205
REMARK  Name = 
REMARK  9 active torsions:
REMARK  status: ('A' for Active; 'I' for Inactive)
REMARK    1  A    between atoms: C_1  and  N_2
REMARK    2  A    between atoms: C_4  and  C_5
REMARK    3  A    between atoms: N_7  and  C_8
REMARK    4  A    between atoms: C_8  and  C_9
REMARK    5  A    between atoms: C_12  and  C_13
REMARK    6  A    between atoms: C_13  and  N_14
REMARK    7  A    between atoms: N_14  and  C_15
REMARK    8  A    between atoms: C_15  and  C_16
REMARK    9  A    between atoms: C_26  and  O_27
REMARK                            x       y       z     vdW  Elec       q    Type
REMARK                         _______ _______ _______ _____ _____    ______ ____
ROOT
ATOM      1  C   UNL     1      47.605   4.194  14.814  0.00  0.00    +0.000 C 
ENDROOT
BRANCH   1   2
ATOM      2  C   UNL     1      46.495   4.506  13.848  0.00  0.00    +0.000 A 
ATOM      3  C   UNL     1      46.164   5.837  13.561  0.00  0.00    +0.000 A 
ATOM      4  C   UNL     1      45.141   6.138  12.658  0.00  0.00    +0.000 A 
ATOM      5  C   UNL     1      44.425   5.111  12.025  0.00  0.00    +0.000 A 
ATOM      6  C   UNL     1      44.745   3.781  12.329  0.00  0.00    +0.000 A 
ATOM      7  C   UNL     1      45.765   3.479  13.235  0.00  0.00    +0.000 A 
BRANCH   5   8
ATOM      8  C   UNL     1      43.320   5.409  11.037  0.00  0.00    +0.000 C 
BRANCH   8   9
ATOM      9  N   UNL     1      43.649   4.908   9.707  0.00  0.00    +0.000 NA
ATOM     10  H   UNL     1      43.083   5.399   9.016  0.00  0.00    +0.000 HD
BRANCH   9  11
ATOM     11  C   UNL     1      45.062   5.113   9.392  0.00  0.00    +0.000 C 
BRANCH  11  12
ATOM     12  C   UNL     1      45.614   3.921   8.644  0.00  0.00    +0.000 A 
ATOM     13  C   UNL     1      45.308   2.609   9.033  0.00  0.00    +0.000 A 
ATOM     14  C   UNL     1      45.827   1.523   8.323  0.00  0.00    +0.000 A 
ATOM     15  C   UNL     1      46.657   1.743   7.224  0.00  0.00    +0.000 A 
ATOM     16 CL   UNL     1      47.299   0.405   6.352  0.00  0.00    +0.000 Cl
ATOM     17  C   UNL     1      46.973   3.039   6.829  0.00  0.00    +0.000 A 
ATOM     18  C   UNL     1      46.450   4.123   7.534  0.00  0.00    +0.000 A 
ENDBRANCH  11  12
ENDBRANCH   9  11
ENDBRANCH   8   9
ENDBRANCH   5   8
ENDBRANCH   1   2
BRANCH   1  21
ATOM     19  C   UNL     1      48.564   5.026  16.906  0.00  0.00    +0.000 C 
ATOM     20  O   UNL     1      49.499   4.229  16.858  0.00  0.00    +0.000 OA
ATOM     21  N   UNL     1      47.584   5.081  15.948  0.00  0.00    +0.000 N 
ATOM     22  H   UNL     1      46.845   5.767  16.010  0.00  0.00    +0.000 HD
BRANCH  19  26
ATOM     23  C   UNL     1      48.124   9.262  19.536  0.00  0.00    +0.000 C 
ATOM     24  N   UNL     1      48.241   7.862  19.195  0.00  0.00    +0.000 N 
ATOM     25  C   UNL     1      48.348   7.361  17.922  0.00  0.00    +0.000 A 
ATOM     26  C   UNL     1      48.440   5.977  18.002  0.00  0.00    +0.000 A 
ATOM     27  C   UNL     1      48.384   5.647  19.397  0.00  0.00    +0.000 A 
ATOM     28  C   UNL     1      48.420   4.487  20.180  0.00  0.00    +0.000 A 
ATOM     29  N   UNL     1      48.339   4.564  21.519  0.00  0.00    +0.000 NA
ATOM     30  C   UNL     1      48.221   5.787  22.065  0.00  0.00    +0.000 A 
ATOM     31  N   UNL     1      48.174   6.975  21.436  0.00  0.00    +0.000 NA
ATOM     32  C   UNL     1      48.261   6.838  20.102  0.00  0.00    +0.000 A 
BRANCH  28  33
ATOM     33  O   UNL     1      48.541   3.216  19.674  0.00  0.00    +0.000 OA
ATOM     34  H   UNL     1      48.240   2.590  20.364  0.00  0.00    +0.000 HD
ENDBRANCH  28  33
ENDBRANCH  19  26
ENDBRANCH   1  21
TORSDOF 8
ENDMDL
MODEL 6
REMARK VINA RESULT:    -7.253      4.639     10.258
REMARK INTER + INTRA:         -11.639
REMARK INTER:                  -9.914
REMARK INTRA:                  -1.725
REMARK UNBOUND:                -1.205
REMARK  Name = 
REMARK  9 active torsions:
REMARK  status: ('A' for Active; 'I' for Inactive)
REMARK    1  A    between atoms: C_1  and  N_2
REMARK    2  A    between atoms: C_4  and  C_5
REMARK    3  A    between atoms: N_7  and  C_8
REMARK    4  A    between atoms: C_8  and  C_9
REMARK    5  A    between atoms: C_12  and  C_13
REMARK    6  A    between atoms: C_13  and  N_14
REMARK    7  A    between atoms: N_14  and  C_15
REMARK    8  A    between atoms: C_15  and  C_16
REMARK    9  A    between atoms: C_26  and  O_27
REMARK                            x       y       z     vdW  Elec       q    Type
REMARK                         _______ _______ _______ _____ _____    ______ ____
ROOT
ATOM      1  C   UNL     1      47.447   3.429  16.671  0.00  0.00    +0.000 C 
ENDROOT
BRANCH   1   2
ATOM      2  C   UNL     1      48.859   3.833  16.996  0.00  0.00    +0.000 A 
ATOM      3  C   UNL     1      49.811   2.860  17.329  0.00  0.00    +0.000 A 
ATOM      4  C   UNL     1      51.129   3.224  17.623  0.00  0.00    +0.000 A 
ATOM      5  C   UNL     1      51.519   4.571  17.594  0.00  0.00    +0.000 A 
ATOM      6  C   UNL     1      50.559   5.542  17.280  0.00  0.00    +0.000 A 
ATOM      7  C   UNL     1      49.242   5.181  16.990  0.00  0.00    +0.000 A 
BRANCH   5   8
ATOM      8  C   UNL     1      52.939   4.989  17.899  0.00  0.00    +0.000 C 
BRANCH   8   9
ATOM      9  N   UNL     1      53.283   4.720  19.291  0.00  0.00    +0.000 NA
ATOM     10  H   UNL     1      54.257   4.424  19.343  0.00  0.00    +0.000 HD
BRANCH   9  11
ATOM     11  C   UNL     1      53.105   5.907  20.125  0.00  0.00    +0.000 C 
BRANCH  11  12
ATOM     12  C   UNL     1      51.664   6.030  20.568  0.00  0.00    +0.000 A 
ATOM     13  C   UNL     1      50.975   4.940  21.117  0.00  0.00    +0.000 A 
ATOM     14  C   UNL     1      49.644   5.078  21.523  0.00  0.00    +0.000 A 
ATOM     15  C   UNL     1      48.997   6.304  21.378  0.00  0.00    +0.000 A 
ATOM     16 CL   UNL     1      47.358   6.473  21.875  0.00  0.00    +0.000 Cl
ATOM     17  C   UNL     1      49.667   7.394  20.831  0.00  0.00    +0.000 A 
ATOM     18  C   UNL     1      50.997   7.257  20.432  0.00  0.00    +0.000 A 
ENDBRANCH  11  12
ENDBRANCH   9  11
ENDBRANCH   8   9
ENDBRANCH   5   8
ENDBRANCH   1   2
BRANCH   1  21
ATOM     19  C   UNL     1      46.792   4.131  14.421  0.00  0.00    +0.000 C 
ATOM     20  O   UNL     1      47.288   3.131  13.905  0.00  0.00    +0.000 OA
ATOM     21  N   UNL     1      46.824   4.365  15.772  0.00  0.00    +0.000 N 
ATOM     22  H   UNL     1      46.384   5.187  16.159  0.00  0.00    +0.000 HD
BRANCH  19  26
ATOM     23  C   UNL     1      45.563   8.475  12.259  0.00  0.00    +0.000 C 
ATOM     24  N   UNL     1      45.566   7.080  12.634  0.00  0.00    +0.000 N 
ATOM     25  C   UNL     1      46.444   6.495  13.511  0.00  0.00    +0.000 A 
ATOM     26  C   UNL     1      46.129   5.145  13.612  0.00  0.00    +0.000 A 
ATOM     27  C   UNL     1      45.005   4.925  12.747  0.00  0.00    +0.000 A 
ATOM     28  C   UNL     1      44.195   3.847  12.369  0.00  0.00    +0.000 A 
ATOM     29  N   UNL     1      43.189   4.023  11.496  0.00  0.00    +0.000 NA
ATOM     30  C   UNL     1      42.999   5.260  11.008  0.00  0.00    +0.000 A 
ATOM     31  N   UNL     1      43.696   6.378  11.283  0.00  0.00    +0.000 NA
ATOM     32  C   UNL     1      44.687   6.144  12.160  0.00  0.00    +0.000 A 
BRANCH  28  33
ATOM     33  O   UNL     1      44.345   2.566  12.838  0.00  0.00    +0.000 OA
ATOM     34  H   UNL     1      44.811   2.048  12.151  0.00  0.00    +0.000 HD
ENDBRANCH  28  33
ENDBRANCH  19  26
ENDBRANCH   1  21
TORSDOF 8
ENDMDL
MODEL 7
REMARK VINA RESULT:    -7.234      1.508      2.691
REMARK INTER + INTRA:         -11.611
REMARK INTER:                 -10.320
REMARK INTRA:                  -1.291
REMARK UNBOUND:                -1.205
REMARK  Name = 
REMARK  9 active torsions:
REMARK  status: ('A' for Active; 'I' for Inactive)
REMARK    1  A    between atoms: C_1  and  N_2
REMARK    2  A    between atoms: C_4  and  C_5
REMARK    3  A    between atoms: N_7  and  C_8
REMARK    4  A    between atoms: C_8  and  C_9
REMARK    5  A    between atoms: C_12  and  C_13
REMARK    6  A    between atoms: C_13  and  N_14
REMARK    7  A    between atoms: N_14  and  C_15
REMARK    8  A    between atoms: C_15  and  C_16
REMARK    9  A    between atoms: C_26  and  O_27
REMARK                            x       y       z     vdW  Elec       q    Type
REMARK                         _______ _______ _______ _____ _____    ______ ____
ROOT
ATOM      1  C   UNL     1      48.532   6.940  13.275  0.00  0.00    +0.000 C 
ENDROOT
BRANCH   1   2
ATOM      2  C   UNL     1      47.181   6.474  12.807  0.00  0.00    +0.000 A 
ATOM      3  C   UNL     1      46.596   7.044  11.668  0.00  0.00    +0.000 A 
ATOM      4  C   UNL     1      45.345   6.611  11.219  0.00  0.00    +0.000 A 
ATOM      5  C   UNL     1      44.652   5.602  11.903  0.00  0.00    +0.000 A 
ATOM      6  C   UNL     1      45.232   5.048  13.052  0.00  0.00    +0.000 A 
ATOM      7  C   UNL     1      46.480   5.482  13.505  0.00  0.00    +0.000 A 
BRANCH   5   8
ATOM      8  C   UNL     1      43.302   5.110  11.432  0.00  0.00    +0.000 C 
BRANCH   8   9
ATOM      9  N   UNL     1      43.409   4.407  10.157  0.00  0.00    +0.000 NA
ATOM     10  H   UNL     1      43.917   4.992   9.495  0.00  0.00    +0.000 HD
BRANCH   9  11
ATOM     11  C   UNL     1      44.117   3.137  10.305  0.00  0.00    +0.000 C 
BRANCH  11  12
ATOM     12  C   UNL     1      45.068   2.925   9.149  0.00  0.00    +0.000 A 
ATOM     13  C   UNL     1      45.536   1.647   8.813  0.00  0.00    +0.000 A 
ATOM     14  C   UNL     1      46.412   1.476   7.737  0.00  0.00    +0.000 A 
ATOM     15  C   UNL     1      46.827   2.581   6.996  0.00  0.00    +0.000 A 
ATOM     16 CL   UNL     1      47.908   2.370   5.674  0.00  0.00    +0.000 Cl
ATOM     17  C   UNL     1      46.375   3.857   7.320  0.00  0.00    +0.000 A 
ATOM     18  C   UNL     1      45.495   4.026   8.390  0.00  0.00    +0.000 A 
ENDBRANCH  11  12
ENDBRANCH   9  11
ENDBRANCH   8   9
ENDBRANCH   5   8
ENDBRANCH   1   2
BRANCH   1  21
ATOM     19  C   UNL     1      48.840   7.069  15.699  0.00  0.00    +0.000 C 
ATOM     20  O   UNL     1      48.500   8.251  15.735  0.00  0.00    +0.000 OA
ATOM     21  N   UNL     1      48.888   6.344  14.537  0.00  0.00    +0.000 N 
ATOM     22  H   UNL     1      49.150   5.369  14.553  0.00  0.00    +0.000 HD
BRANCH  19  26
ATOM     23  C   UNL     1      48.662   4.718  20.114  0.00  0.00    +0.000 C 
ATOM     24  N   UNL     1      49.155   5.301  18.888  0.00  0.00    +0.000 N 
ATOM     25  C   UNL     1      48.386   5.936  17.945  0.00  0.00    +0.000 A 
ATOM     26  C   UNL     1      49.216   6.358  16.913  0.00  0.00    +0.000 A 
ATOM     27  C   UNL     1      50.545   5.949  17.269  0.00  0.00    +0.000 A 
ATOM     28  C   UNL     1      51.828   6.037  16.718  0.00  0.00    +0.000 A 
ATOM     29  N   UNL     1      52.885   5.516  17.363  0.00  0.00    +0.000 NA
ATOM     30  C   UNL     1      52.658   4.914  18.543  0.00  0.00    +0.000 A 
ATOM     31  N   UNL     1      51.485   4.759  19.184  0.00  0.00    +0.000 NA
ATOM     32  C   UNL     1      50.466   5.299  18.495  0.00  0.00    +0.000 A 
BRANCH  28  33
ATOM     33  O   UNL     1      52.115   6.642  15.519  0.00  0.00    +0.000 OA
ATOM     34  H   UNL     1      51.468   6.319  14.859  0.00  0.00    +0.000 HD
ENDBRANCH  28  33
ENDBRANCH  19  26
ENDBRANCH   1  21
TORSDOF 8
ENDMDL
MODEL 8
REMARK VINA RESULT:    -7.102      3.697      9.506
REMARK INTER + INTRA:         -11.422
REMARK INTER:                  -9.550
REMARK INTRA:                  -1.871
REMARK UNBOUND:                -1.205
REMARK  Name = 
REMARK  9 active torsions:
REMARK  status: ('A' for Active; 'I' for Inactive)
REMARK    1  A    between atoms: C_1  and  N_2
REMARK    2  A    between atoms: C_4  and  C_5
REMARK    3  A    between atoms: N_7  and  C_8
REMARK    4  A    between atoms: C_8  and  C_9
REMARK    5  A    between atoms: C_12  and  C_13
REMARK    6  A    between atoms: C_13  and  N_14
REMARK    7  A    between atoms: N_14  and  C_15
REMARK    8  A    between atoms: C_15  and  C_16
REMARK    9  A    between atoms: C_26  and  O_27
REMARK                            x       y       z     vdW  Elec       q    Type
REMARK                         _______ _______ _______ _____ _____    ______ ____
ROOT
ATOM      1  C   UNL     1      47.607   3.597  16.557  0.00  0.00    +0.000 C 
ENDROOT
BRANCH   1   2
ATOM      2  C   UNL     1      47.939   4.293  17.849  0.00  0.00    +0.000 A 
ATOM      3  C   UNL     1      47.037   5.206  18.409  0.00  0.00    +0.000 A 
ATOM      4  C   UNL     1      47.331   5.850  19.614  0.00  0.00    +0.000 A 
ATOM      5  C   UNL     1      48.539   5.596  20.281  0.00  0.00    +0.000 A 
ATOM      6  C   UNL     1      49.448   4.697  19.707  0.00  0.00    +0.000 A 
ATOM      7  C   UNL     1      49.156   4.056  18.501  0.00  0.00    +0.000 A 
BRANCH   5   8
ATOM      8  C   UNL     1      48.878   6.273  21.589  0.00  0.00    +0.000 C 
BRANCH   8   9
ATOM      9  N   UNL     1      48.574   7.700  21.543  0.00  0.00    +0.000 NA
ATOM     10  H   UNL     1      48.477   8.052  22.494  0.00  0.00    +0.000 HD
BRANCH   9  11
ATOM     11  C   UNL     1      49.631   8.449  20.866  0.00  0.00    +0.000 C 
BRANCH  11  12
ATOM     12  C   UNL     1      49.296   8.630  19.403  0.00  0.00    +0.000 A 
ATOM     13  C   UNL     1      50.116   8.102  18.396  0.00  0.00    +0.000 A 
ATOM     14  C   UNL     1      49.783   8.278  17.050  0.00  0.00    +0.000 A 
ATOM     15  C   UNL     1      48.633   8.986  16.704  0.00  0.00    +0.000 A 
ATOM     16 CL   UNL     1      48.226   9.206  15.047  0.00  0.00    +0.000 Cl
ATOM     17  C   UNL     1      47.811   9.520  17.693  0.00  0.00    +0.000 A 
ATOM     18  C   UNL     1      48.140   9.338  19.036  0.00  0.00    +0.000 A 
ENDBRANCH  11  12
ENDBRANCH   9  11
ENDBRANCH   8   9
ENDBRANCH   5   8
ENDBRANCH   1   2
BRANCH   1  21
ATOM     19  C   UNL     1      46.844   4.167  14.303  0.00  0.00    +0.000 C 
ATOM     20  O   UNL     1      47.303   3.131  13.826  0.00  0.00    +0.000 OA
ATOM     21  N   UNL     1      46.947   4.484  15.634  0.00  0.00    +0.000 N 
ATOM     22  H   UNL     1      46.537   5.334  15.991  0.00  0.00    +0.000 HD
BRANCH  19  26
ATOM     23  C   UNL     1      45.465   8.416  12.045  0.00  0.00    +0.000 C 
ATOM     24  N   UNL     1      45.520   7.030  12.446  0.00  0.00    +0.000 N 
ATOM     25  C   UNL     1      46.410   6.497  13.345  0.00  0.00    +0.000 A 
ATOM     26  C   UNL     1      46.149   5.138  13.468  0.00  0.00    +0.000 A 
ATOM     27  C   UNL     1      45.046   4.856  12.594  0.00  0.00    +0.000 A 
ATOM     28  C   UNL     1      44.286   3.739  12.228  0.00  0.00    +0.000 A 
ATOM     29  N   UNL     1      43.285   3.856  11.339  0.00  0.00    +0.000 NA
ATOM     30  C   UNL     1      43.050   5.076  10.826  0.00  0.00    +0.000 A 
ATOM     31  N   UNL     1      43.698   6.226  11.088  0.00  0.00    +0.000 NA
ATOM     32  C   UNL     1      44.686   6.049  11.981  0.00  0.00    +0.000 A 
BRANCH  28  33
ATOM     33  O   UNL     1      44.483   2.474  12.723  0.00  0.00    +0.000 OA
ATOM     34  H   UNL     1      44.036   1.844  12.121  0.00  0.00    +0.000 HD
ENDBRANCH  28  33
ENDBRANCH  19  26
ENDBRANCH   1  21
TORSDOF 8
ENDMDL
MODEL 9
REMARK VINA RESULT:    -6.822      1.638      2.195
REMARK INTER + INTRA:         -11.018
REMARK INTER:                  -9.922
REMARK INTRA:                  -1.095
REMARK UNBOUND:                -1.205
REMARK  Name = 
REMARK  9 active torsions:
REMARK  status: ('A' for Active; 'I' for Inactive)
REMARK    1  A    between atoms: C_1  and  N_2
REMARK    2  A    between atoms: C_4  and  C_5
REMARK    3  A    between atoms: N_7  and  C_8
REMARK    4  A    between atoms: C_8  and  C_9
REMARK    5  A    between atoms: C_12  and  C_13
REMARK    6  A    between atoms: C_13  and  N_14
REMARK    7  A    between atoms: N_14  and  C_15
REMARK    8  A    between atoms: C_15  and  C_16
REMARK    9  A    between atoms: C_26  and  O_27
REMARK                            x       y       z     vdW  Elec       q    Type
REMARK                         _______ _______ _______ _____ _____    ______ ____
ROOT
ATOM      1  C   UNL     1      49.621   7.507  14.085  0.00  0.00    +0.000 C 
ENDROOT
BRANCH   1   2
ATOM      2  C   UNL     1      48.379   6.853  13.545  0.00  0.00    +0.000 A 
ATOM      3  C   UNL     1      47.819   7.294  12.339  0.00  0.00    +0.000 A 
ATOM      4  C   UNL     1      46.670   6.687  11.823  0.00  0.00    +0.000 A 
ATOM      5  C   UNL     1      46.057   5.627  12.507  0.00  0.00    +0.000 A 
ATOM      6  C   UNL     1      46.609   5.202  13.723  0.00  0.00    +0.000 A 
ATOM      7  C   UNL     1      47.754   5.811  14.241  0.00  0.00    +0.000 A 
BRANCH   5   8
ATOM      8  C   UNL     1      44.819   4.947  11.967  0.00  0.00    +0.000 C 
BRANCH   8   9
ATOM      9  N   UNL     1      44.500   5.418  10.623  0.00  0.00    +0.000 NA
ATOM     10  H   UNL     1      45.362   5.686  10.149  0.00  0.00    +0.000 HD
BRANCH   9  11
ATOM     11  C   UNL     1      43.832   4.382   9.838  0.00  0.00    +0.000 C 
BRANCH  11  12
ATOM     12  C   UNL     1      44.838   3.623   9.001  0.00  0.00    +0.000 A 
ATOM     13  C   UNL     1      45.649   4.277   8.064  0.00  0.00    +0.000 A 
ATOM     14  C   UNL     1      46.574   3.555   7.305  0.00  0.00    +0.000 A 
ATOM     15  C   UNL     1      46.689   2.176   7.477  0.00  0.00    +0.000 A 
ATOM     16 CL   UNL     1      47.826   1.287   6.540  0.00  0.00    +0.000 Cl
ATOM     17  C   UNL     1      45.888   1.512   8.400  0.00  0.00    +0.000 A 
ATOM     18  C   UNL     1      44.969   2.235   9.162  0.00  0.00    +0.000 A 
ENDBRANCH  11  12
ENDBRANCH   9  11
ENDBRANCH   8   9
ENDBRANCH   5   8
ENDBRANCH   1   2
BRANCH   1  21
ATOM     19  C   UNL     1      50.080   7.578  16.487  0.00  0.00    +0.000 C 
ATOM     20  O   UNL     1      49.737   8.755  16.574  0.00  0.00    +0.000 OA
ATOM     21  N   UNL     1      50.060   6.882  15.305  0.00  0.00    +0.000 N 
ATOM     22  H   UNL     1      50.327   5.909  15.280  0.00  0.00    +0.000 HD
BRANCH  19  26
ATOM     23  C   UNL     1      52.977   5.337  19.898  0.00  0.00    +0.000 C 
ATOM     24  N   UNL     1      51.817   5.833  19.194  0.00  0.00    +0.000 N 
ATOM     25  C   UNL     1      51.844   6.540  18.019  0.00  0.00    +0.000 A 
ATOM     26  C   UNL     1      50.536   6.838  17.656  0.00  0.00    +0.000 A 
ATOM     27  C   UNL     1      49.695   6.276  18.675  0.00  0.00    +0.000 A 
ATOM     28  C   UNL     1      48.324   6.197  18.945  0.00  0.00    +0.000 A 
ATOM     29  N   UNL     1      47.881   5.562  20.043  0.00  0.00    +0.000 NA
ATOM     30  C   UNL     1      48.799   5.016  20.858  0.00  0.00    +0.000 A 
ATOM     31  N   UNL     1      50.138   5.017  20.720  0.00  0.00    +0.000 NA
ATOM     32  C   UNL     1      50.523   5.664  19.607  0.00  0.00    +0.000 A 
BRANCH  28  33
ATOM     33  O   UNL     1      47.346   6.735  18.146  0.00  0.00    +0.000 OA
ATOM     34  H   UNL     1      47.536   6.473  17.223  0.00  0.00    +0.000 HD
ENDBRANCH  28  33
ENDBRANCH  19  26
ENDBRANCH   1  21
TORSDOF 8
ENDMDL
