MODEL 1
REMARK VINA RESULT:    -8.019      0.000      0.000
REMARK INTER + INTRA:         -13.113
REMARK INTER:                 -11.769
REMARK INTRA:                  -1.344
REMARK UNBOUND:                -1.344
REMARK  Name = 
REMARK  10 active torsions:
REMARK  status: ('A' for Active; 'I' for Inactive)
REMARK    1  A    between atoms: C_1  and  C_2
REMARK    2  A    between atoms: C_2  and  C_3
REMARK    3  A    between atoms: C_2  and  O_4
REMARK    4  A    between atoms: O_4  and  C_5
REMARK    5  A    between atoms: C_5  and  C_6
REMARK    6  A    between atoms: C_6  and  N_7
REMARK    7  A    between atoms: C_6  and  C_20
REMARK    8  A    between atoms: C_8  and  C_10
REMARK    9  A    between atoms: C_23  and  C_24
REMARK   10  A    between atoms: C_24  and  C_25
REMARK                            x       y       z     vdW  Elec       q    Type
REMARK                         _______ _______ _______ _____ _____    ______ ____
ROOT
ATOM      1  C   UNL     1      46.546   7.934  12.718  0.00  0.00    +0.000 C 
ENDROOT
BRANCH   1   2
ATOM      2  C   UNL     1      45.952   6.779  11.918  0.00  0.00    +0.000 A 
ATOM      3  C   UNL     1      46.388   6.524  10.613  0.00  0.00    +0.000 A 
ATOM      4  C   UNL     1      45.866   5.450   9.885  0.00  0.00    +0.000 A 
ATOM      5  C   UNL     1      44.899   4.603  10.444  0.00  0.00    +0.000 A 
ATOM      6  C   UNL     1      44.461   4.855  11.749  0.00  0.00    +0.000 A 
ATOM      7  C   UNL     1      44.976   5.931  12.471  0.00  0.00    +0.000 A 
BRANCH   5   8
ATOM      8  C   UNL     1      44.359   3.421   9.674  0.00  0.00    +0.000 C 
BRANCH   8   9
ATOM      9  C   UNL     1      45.290   2.900   8.603  0.00  0.00    +0.000 A 
ATOM     10  C   UNL     1      45.833   1.611   8.685  0.00  0.00    +0.000 A 
ATOM     11  C   UNL     1      46.688   1.134   7.689  0.00  0.00    +0.000 A 
ATOM     12  C   UNL     1      47.014   1.942   6.602  0.00  0.00    +0.000 A 
ATOM     13  C   UNL     1      46.489   3.230   6.512  0.00  0.00    +0.000 A 
ATOM     14  C   UNL     1      45.635   3.709   7.507  0.00  0.00    +0.000 A 
ENDBRANCH   8   9
ENDBRANCH   5   8
ENDBRANCH   1   2
BRANCH   1  15
ATOM     15  N   UNL     1      47.053   7.430  13.986  0.00  0.00    +0.000 N 
ATOM     16  C   UNL     1      48.327   6.970  14.174  0.00  0.00    +0.000 C 
ATOM     17  O   UNL     1      49.191   7.002  13.305  0.00  0.00    +0.000 OA
ATOM     18  H   UNL     1      46.363   7.264  14.706  0.00  0.00    +0.000 HD
BRANCH  16  19
ATOM     19  C   UNL     1      48.615   6.447  15.519  0.00  0.00    +0.000 A 
ATOM     20  C   UNL     1      49.483   7.126  16.361  0.00  0.00    +0.000 A 
ATOM     21  S   UNL     1      49.683   6.377  17.882  0.00  0.00    +0.000 S 
ATOM     22  C   UNL     1      48.659   5.087  17.448  0.00  0.00    +0.000 A 
ATOM     23  N   UNL     1      48.420   4.058  18.305  0.00  0.00    +0.000 NA
ATOM     24  C   UNL     1      47.668   3.126  17.821  0.00  0.00    +0.000 A 
ATOM     25  N   UNL     1      47.125   3.133  16.564  0.00  0.00    +0.000 N 
ATOM     26  C   UNL     1      47.254   4.199  15.710  0.00  0.00    +0.000 A 
ATOM     27  O   UNL     1      46.599   4.255  14.677  0.00  0.00    +0.000 OA
ATOM     28  C   UNL     1      48.144   5.245  16.173  0.00  0.00    +0.000 A 
ATOM     29  H   UNL     1      46.507   2.396  16.258  0.00  0.00    +0.000 HD
ENDBRANCH  16  19
ENDBRANCH   1  15
BRANCH   1  30
ATOM     30  C   UNL     1      45.477   9.028  12.934  0.00  0.00    +0.000 C 
BRANCH  30  31
ATOM     31  O   UNL     1      45.620  10.093  11.987  0.00  0.00    +0.000 OA
BRANCH  31  33
ATOM     32  C   UNL     1      44.688  11.666  10.463  0.00  0.00    +0.000 C 
ATOM     33  C   UNL     1      44.373  10.545  11.448  0.00  0.00    +0.000 C 
ATOM     34  C   UNL     1      43.631   9.416  10.738  0.00  0.00    +0.000 C 
ENDBRANCH  31  33
ENDBRANCH  30  31
ENDBRANCH   1  30
TORSDOF 8
ENDMDL
MODEL 2
REMARK VINA RESULT:    -7.961      2.645      4.819
REMARK INTER + INTRA:         -13.027
REMARK INTER:                 -11.608
REMARK INTRA:                  -1.419
REMARK UNBOUND:                -1.344
REMARK  Name = 
REMARK  10 active torsions:
REMARK  status: ('A' for Active; 'I' for Inactive)
REMARK    1  A    between atoms: C_1  and  C_2
REMARK    2  A    between atoms: C_2  and  C_3
REMARK    3  A    between atoms: C_2  and  O_4
REMARK    4  A    between atoms: O_4  and  C_5
REMARK    5  A    between atoms: C_5  and  C_6
REMARK    6  A    between atoms: C_6  and  N_7
REMARK    7  A    between atoms: C_6  and  C_20
REMARK    8  A    between atoms: C_8  and  C_10
REMARK    9  A    between atoms: C_23  and  C_24
REMARK   10  A    between atoms: C_24  and  C_25
REMARK                            x       y       z     vdW  Elec       q    Type
REMARK                         _______ _______ _______ _____ _____    ______ ____
ROOT
ATOM      1  C   UNL     1      46.401   5.623  13.582  0.00  0.00    +0.000 C 
ENDROOT
BRANCH   1   2
ATOM      2  C   UNL     1      45.907   5.127  12.227  0.00  0.00    +0.000 A 
ATOM      3  C   UNL     1      46.131   5.883  11.071  0.00  0.00    +0.000 A 
ATOM      4  C   UNL     1      45.704   5.419   9.822  0.00  0.00    +0.000 A 
ATOM      5  C   UNL     1      45.046   4.188   9.698  0.00  0.00    +0.000 A 
ATOM      6  C   UNL     1      44.820   3.429  10.852  0.00  0.00    +0.000 A 
ATOM      7  C   UNL     1      45.240   3.896  12.098  0.00  0.00    +0.000 A 
BRANCH   5   8
ATOM      8  C   UNL     1      44.614   3.668   8.348  0.00  0.00    +0.000 C 
BRANCH   8   9
ATOM      9  C   UNL     1      45.672   2.865   7.625  0.00  0.00    +0.000 A 
ATOM     10  C   UNL     1      46.094   1.622   8.117  0.00  0.00    +0.000 A 
ATOM     11  C   UNL     1      47.068   0.883   7.441  0.00  0.00    +0.000 A 
ATOM     12  C   UNL     1      47.634   1.380   6.269  0.00  0.00    +0.000 A 
ATOM     13  C   UNL     1      47.230   2.618   5.773  0.00  0.00    +0.000 A 
ATOM     14  C   UNL     1      46.258   3.359   6.448  0.00  0.00    +0.000 A 
ENDBRANCH   8   9
ENDBRANCH   5   8
ENDBRANCH   1   2
BRANCH   1  15
ATOM     15  N   UNL     1      47.649   6.350  13.401  0.00  0.00    +0.000 N 
ATOM     16  C   UNL     1      47.749   7.714  13.392  0.00  0.00    +0.000 C 
ATOM     17  O   UNL     1      46.800   8.461  13.606  0.00  0.00    +0.000 OA
ATOM     18  H   UNL     1      48.444   5.801  13.102  0.00  0.00    +0.000 HD
BRANCH  16  19
ATOM     19  C   UNL     1      49.097   8.245  13.133  0.00  0.00    +0.000 A 
ATOM     20  C   UNL     1      49.333   9.036  12.019  0.00  0.00    +0.000 A 
ATOM     21  S   UNL     1      50.950   9.569  11.892  0.00  0.00    +0.000 S 
ATOM     22  C   UNL     1      51.404   8.713  13.292  0.00  0.00    +0.000 A 
ATOM     23  N   UNL     1      52.691   8.718  13.735  0.00  0.00    +0.000 NA
ATOM     24  C   UNL     1      52.899   7.983  14.776  0.00  0.00    +0.000 A 
ATOM     25  N   UNL     1      51.938   7.252  15.421  0.00  0.00    +0.000 N 
ATOM     26  C   UNL     1      50.612   7.304  15.072  0.00  0.00    +0.000 A 
ATOM     27  O   UNL     1      49.757   6.794  15.786  0.00  0.00    +0.000 OA
ATOM     28  C   UNL     1      50.329   8.059  13.868  0.00  0.00    +0.000 A 
ATOM     29  H   UNL     1      52.152   6.731  16.258  0.00  0.00    +0.000 HD
ENDBRANCH  16  19
ENDBRANCH   1  15
BRANCH   1  30
ATOM     30  C   UNL     1      46.577   4.430  14.547  0.00  0.00    +0.000 C 
BRANCH  30  31
ATOM     31  O   UNL     1      47.602   4.687  15.514  0.00  0.00    +0.000 OA
BRANCH  31  33
ATOM     32  C   UNL     1      48.423   2.874  16.819  0.00  0.00    +0.000 C 
ATOM     33  C   UNL     1      47.397   4.001  16.754  0.00  0.00    +0.000 C 
ATOM     34  C   UNL     1      47.571   4.939  17.945  0.00  0.00    +0.000 C 
ENDBRANCH  31  33
ENDBRANCH  30  31
ENDBRANCH   1  30
TORSDOF 8
ENDMDL
MODEL 3
REMARK VINA RESULT:    -7.838      2.154      5.374
REMARK INTER + INTRA:         -12.847
REMARK INTER:                 -12.232
REMARK INTRA:                  -0.614
REMARK UNBOUND:                -1.344
REMARK  Name = 
REMARK  10 active torsions:
REMARK  status: ('A' for Active; 'I' for Inactive)
REMARK    1  A    between atoms: C_1  and  C_2
REMARK    2  A    between atoms: C_2  and  C_3
REMARK    3  A    between atoms: C_2  and  O_4
REMARK    4  A    between atoms: O_4  and  C_5
REMARK    5  A    between atoms: C_5  and  C_6
REMARK    6  A    between atoms: C_6  and  N_7
REMARK    7  A    between atoms: C_6  and  C_20
REMARK    8  A    between atoms: C_8  and  C_10
REMARK    9  A    between atoms: C_23  and  C_24
REMARK   10  A    between atoms: C_24  and  C_25
REMARK                            x       y       z     vdW  Elec       q    Type
REMARK                         _______ _______ _______ _____ _____    ______ ____
ROOT
ATOM      1  C   UNL     1      46.143   5.494  13.673  0.00  0.00    +0.000 C 
ENDROOT
BRANCH   1   2
ATOM      2  C   UNL     1      45.704   4.978  12.306  0.00  0.00    +0.000 A 
ATOM      3  C   UNL     1      45.867   5.771  11.165  0.00  0.00    +0.000 A 
ATOM      4  C   UNL     1      45.490   5.292   9.905  0.00  0.00    +0.000 A 
ATOM      5  C   UNL     1      44.946   4.009   9.756  0.00  0.00    +0.000 A 
ATOM      6  C   UNL     1      44.783   3.213  10.895  0.00  0.00    +0.000 A 
ATOM      7  C   UNL     1      45.151   3.694  12.152  0.00  0.00    +0.000 A 
BRANCH   5   8
ATOM      8  C   UNL     1      44.572   3.475   8.394  0.00  0.00    +0.000 C 
BRANCH   8   9
ATOM      9  C   UNL     1      45.711   2.813   7.652  0.00  0.00    +0.000 A 
ATOM     10  C   UNL     1      46.302   3.430   6.541  0.00  0.00    +0.000 A 
ATOM     11  C   UNL     1      47.358   2.815   5.864  0.00  0.00    +0.000 A 
ATOM     12  C   UNL     1      47.833   1.577   6.288  0.00  0.00    +0.000 A 
ATOM     13  C   UNL     1      47.250   0.948   7.386  0.00  0.00    +0.000 A 
ATOM     14  C   UNL     1      46.193   1.559   8.063  0.00  0.00    +0.000 A 
ENDBRANCH   8   9
ENDBRANCH   5   8
ENDBRANCH   1   2
BRANCH   1  15
ATOM     15  N   UNL     1      46.744   6.810  13.520  0.00  0.00    +0.000 N 
ATOM     16  C   UNL     1      48.054   7.023  13.191  0.00  0.00    +0.000 C 
ATOM     17  O   UNL     1      48.837   6.118  12.924  0.00  0.00    +0.000 OA
ATOM     18  H   UNL     1      46.188   7.592  13.842  0.00  0.00    +0.000 HD
BRANCH  16  19
ATOM     19  C   UNL     1      48.471   8.433  13.148  0.00  0.00    +0.000 A 
ATOM     20  C   UNL     1      49.731   8.803  13.599  0.00  0.00    +0.000 A 
ATOM     21  S   UNL     1      50.040  10.476  13.459  0.00  0.00    +0.000 S 
ATOM     22  C   UNL     1      48.480  10.774  12.844  0.00  0.00    +0.000 A 
ATOM     23  N   UNL     1      48.073  12.035  12.536  0.00  0.00    +0.000 NA
ATOM     24  C   UNL     1      46.849  12.116  12.131  0.00  0.00    +0.000 A 
ATOM     25  N   UNL     1      46.000  11.051  11.995  0.00  0.00    +0.000 N 
ATOM     26  C   UNL     1      46.403   9.754  12.192  0.00  0.00    +0.000 A 
ATOM     27  O   UNL     1      45.678   8.819  11.874  0.00  0.00    +0.000 OA
ATOM     28  C   UNL     1      47.746   9.608  12.713  0.00  0.00    +0.000 A 
ATOM     29  H   UNL     1      45.067  11.171  11.630  0.00  0.00    +0.000 HD
ENDBRANCH  16  19
ENDBRANCH   1  15
BRANCH   1  30
ATOM     30  C   UNL     1      47.128   4.496  14.320  0.00  0.00    +0.000 C 
BRANCH  30  31
ATOM     31  O   UNL     1      46.582   3.920  15.513  0.00  0.00    +0.000 OA
BRANCH  31  33
ATOM     32  C   UNL     1      48.273   2.783  16.742  0.00  0.00    +0.000 C 
ATOM     33  C   UNL     1      47.438   4.056  16.652  0.00  0.00    +0.000 C 
ATOM     34  C   UNL     1      48.349   5.274  16.524  0.00  0.00    +0.000 C 
ENDBRANCH  31  33
ENDBRANCH  30  31
ENDBRANCH   1  30
TORSDOF 8
ENDMDL
MODEL 4
REMARK VINA RESULT:    -7.482      2.039      2.828
REMARK INTER + INTRA:         -12.325
REMARK INTER:                 -10.704
REMARK INTRA:                  -1.621
REMARK UNBOUND:                -1.344
REMARK  Name = 
REMARK  10 active torsions:
REMARK  status: ('A' for Active; 'I' for Inactive)
REMARK    1  A    between atoms: C_1  and  C_2
REMARK    2  A    between atoms: C_2  and  C_3
REMARK    3  A    between atoms: C_2  and  O_4
REMARK    4  A    between atoms: O_4  and  C_5
REMARK    5  A    between atoms: C_5  and  C_6
REMARK    6  A    between atoms: C_6  and  N_7
REMARK    7  A    between atoms: C_6  and  C_20
REMARK    8  A    between atoms: C_8  and  C_10
REMARK    9  A    between atoms: C_23  and  C_24
REMARK   10  A    between atoms: C_24  and  C_25
REMARK                            x       y       z     vdW  Elec       q    Type
REMARK                         _______ _______ _______ _____ _____    ______ ____
ROOT
ATOM      1  C   UNL     1      47.717   7.130  13.720  0.00  0.00    +0.000 C 
ENDROOT
BRANCH   1   2
ATOM      2  C   UNL     1      46.840   6.359  12.739  0.00  0.00    +0.000 A 
ATOM      3  C   UNL     1      46.645   6.835  11.438  0.00  0.00    +0.000 A 
ATOM      4  C   UNL     1      45.863   6.118  10.526  0.00  0.00    +0.000 A 
ATOM      5  C   UNL     1      45.261   4.906  10.891  0.00  0.00    +0.000 A 
ATOM      6  C   UNL     1      45.454   4.426  12.191  0.00  0.00    +0.000 A 
ATOM      7  C   UNL     1      46.227   5.147  13.102  0.00  0.00    +0.000 A 
BRANCH   5   8
ATOM      8  C   UNL     1      44.446   4.110   9.899  0.00  0.00    +0.000 C 
BRANCH   8   9
ATOM      9  C   UNL     1      45.271   3.358   8.880  0.00  0.00    +0.000 A 
ATOM     10  C   UNL     1      45.856   4.024   7.794  0.00  0.00    +0.000 A 
ATOM     11  C   UNL     1      46.621   3.323   6.859  0.00  0.00    +0.000 A 
ATOM     12  C   UNL     1      46.808   1.950   6.997  0.00  0.00    +0.000 A 
ATOM     13  C   UNL     1      46.225   1.274   8.067  0.00  0.00    +0.000 A 
ATOM     14  C   UNL     1      45.458   1.971   9.002  0.00  0.00    +0.000 A 
ENDBRANCH   8   9
ENDBRANCH   5   8
ENDBRANCH   1   2
BRANCH   1  15
ATOM     15  N   UNL     1      47.749   6.425  14.992  0.00  0.00    +0.000 N 
ATOM     16  C   UNL     1      48.893   6.156  15.692  0.00  0.00    +0.000 C 
ATOM     17  O   UNL     1      50.002   6.547  15.346  0.00  0.00    +0.000 OA
ATOM     18  H   UNL     1      46.889   5.972  15.271  0.00  0.00    +0.000 HD
BRANCH  16  19
ATOM     19  C   UNL     1      48.707   5.376  16.926  0.00  0.00    +0.000 A 
ATOM     20  C   UNL     1      48.423   4.020  16.859  0.00  0.00    +0.000 A 
ATOM     21  S   UNL     1      48.254   3.282  18.389  0.00  0.00    +0.000 S 
ATOM     22  C   UNL     1      48.500   4.762  19.195  0.00  0.00    +0.000 A 
ATOM     23  N   UNL     1      48.452   4.841  20.552  0.00  0.00    +0.000 NA
ATOM     24  C   UNL     1      48.602   6.035  21.022  0.00  0.00    +0.000 A 
ATOM     25  N   UNL     1      48.808   7.154  20.261  0.00  0.00    +0.000 N 
ATOM     26  C   UNL     1      48.970   7.101  18.899  0.00  0.00    +0.000 A 
ATOM     27  O   UNL     1      49.344   8.087  18.276  0.00  0.00    +0.000 OA
ATOM     28  C   UNL     1      48.742   5.798  18.310  0.00  0.00    +0.000 A 
ATOM     29  H   UNL     1      48.965   8.055  20.688  0.00  0.00    +0.000 HD
ENDBRANCH  16  19
ENDBRANCH   1  15
BRANCH   1  30
ATOM     30  C   UNL     1      47.180   8.569  13.886  0.00  0.00    +0.000 C 
BRANCH  30  31
ATOM     31  O   UNL     1      48.210   9.540  13.673  0.00  0.00    +0.000 OA
BRANCH  31  33
ATOM     32  C   UNL     1      48.870   9.877  11.411  0.00  0.00    +0.000 C 
ATOM     33  C   UNL     1      47.974  10.380  12.538  0.00  0.00    +0.000 C 
ATOM     34  C   UNL     1      46.510  10.334  12.106  0.00  0.00    +0.000 C 
ENDBRANCH  31  33
ENDBRANCH  30  31
ENDBRANCH   1  30
TORSDOF 8
ENDMDL
MODEL 5
REMARK VINA RESULT:    -7.316      2.498      5.345
REMARK INTER + INTRA:         -12.081
REMARK INTER:                 -10.300
REMARK INTRA:                  -1.781
REMARK UNBOUND:                -1.344
REMARK  Name = 
REMARK  10 active torsions:
REMARK  status: ('A' for Active; 'I' for Inactive)
REMARK    1  A    between atoms: C_1  and  C_2
REMARK    2  A    between atoms: C_2  and  C_3
REMARK    3  A    between atoms: C_2  and  O_4
REMARK    4  A    between atoms: O_4  and  C_5
REMARK    5  A    between atoms: C_5  and  C_6
REMARK    6  A    between atoms: C_6  and  N_7
REMARK    7  A    between atoms: C_6  and  C_20
REMARK    8  A    between atoms: C_8  and  C_10
REMARK    9  A    between atoms: C_23  and  C_24
REMARK   10  A    between atoms: C_24  and  C_25
REMARK                            x       y       z     vdW  Elec       q    Type
REMARK                         _______ _______ _______ _____ _____    ______ ____
ROOT
ATOM      1  C   UNL     1      47.063   5.631  14.435  0.00  0.00    +0.000 C 
ENDROOT
BRANCH   1   2
ATOM      2  C   UNL     1      46.357   5.186  13.159  0.00  0.00    +0.000 A 
ATOM      3  C   UNL     1      46.234   6.061  12.074  0.00  0.00    +0.000 A 
ATOM      4  C   UNL     1      45.611   5.648  10.892  0.00  0.00    +0.000 A 
ATOM      5  C   UNL     1      45.099   4.350  10.764  0.00  0.00    +0.000 A 
ATOM      6  C   UNL     1      45.220   3.471  11.846  0.00  0.00    +0.000 A 
ATOM      7  C   UNL     1      45.835   3.886  13.027  0.00  0.00    +0.000 A 
BRANCH   5   8
ATOM      8  C   UNL     1      44.457   3.889   9.477  0.00  0.00    +0.000 C 
BRANCH   8   9
ATOM      9  C   UNL     1      45.391   3.145   8.549  0.00  0.00    +0.000 A 
ATOM     10  C   UNL     1      45.634   1.775   8.718  0.00  0.00    +0.000 A 
ATOM     11  C   UNL     1      46.494   1.094   7.855  0.00  0.00    +0.000 A 
ATOM     12  C   UNL     1      47.123   1.773   6.814  0.00  0.00    +0.000 A 
ATOM     13  C   UNL     1      46.897   3.137   6.639  0.00  0.00    +0.000 A 
ATOM     14  C   UNL     1      46.039   3.821   7.502  0.00  0.00    +0.000 A 
ENDBRANCH   8   9
ENDBRANCH   5   8
ENDBRANCH   1   2
BRANCH   1  15
ATOM     15  N   UNL     1      48.322   6.275  14.087  0.00  0.00    +0.000 N 
ATOM     16  C   UNL     1      48.914   7.257  14.833  0.00  0.00    +0.000 C 
ATOM     17  O   UNL     1      48.473   7.643  15.910  0.00  0.00    +0.000 OA
ATOM     18  H   UNL     1      48.673   6.090  13.157  0.00  0.00    +0.000 HD
BRANCH  16  19
ATOM     19  C   UNL     1      50.153   7.815  14.269  0.00  0.00    +0.000 A 
ATOM     20  C   UNL     1      51.358   7.657  14.938  0.00  0.00    +0.000 A 
ATOM     21  S   UNL     1      52.685   8.359  14.126  0.00  0.00    +0.000 S 
ATOM     22  C   UNL     1      51.686   8.949  12.879  0.00  0.00    +0.000 A 
ATOM     23  N   UNL     1      52.198   9.682  11.854  0.00  0.00    +0.000 NA
ATOM     24  C   UNL     1      51.316  10.107  11.010  0.00  0.00    +0.000 A 
ATOM     25  N   UNL     1      49.973   9.856  11.092  0.00  0.00    +0.000 N 
ATOM     26  C   UNL     1      49.432   9.034  12.048  0.00  0.00    +0.000 A 
ATOM     27  O   UNL     1      48.262   8.677  11.975  0.00  0.00    +0.000 OA
ATOM     28  C   UNL     1      50.364   8.584  13.061  0.00  0.00    +0.000 A 
ATOM     29  H   UNL     1      49.338  10.178  10.377  0.00  0.00    +0.000 HD
ENDBRANCH  16  19
ENDBRANCH   1  15
BRANCH   1  30
ATOM     30  C   UNL     1      47.288   4.418  15.363  0.00  0.00    +0.000 C 
BRANCH  30  31
ATOM     31  O   UNL     1      46.982   4.737  16.725  0.00  0.00    +0.000 OA
BRANCH  31  33
ATOM     32  C   UNL     1      47.578   2.658  17.718  0.00  0.00    +0.000 C 
ATOM     33  C   UNL     1      47.889   4.150  17.664  0.00  0.00    +0.000 C 
ATOM     34  C   UNL     1      49.341   4.370  17.248  0.00  0.00    +0.000 C 
ENDBRANCH  31  33
ENDBRANCH  30  31
ENDBRANCH   1  30
TORSDOF 8
ENDMDL
MODEL 6
REMARK VINA RESULT:    -7.278      3.919      9.622
REMARK INTER + INTRA:         -12.026
REMARK INTER:                 -10.753
REMARK INTRA:                  -1.273
REMARK UNBOUND:                -1.344
REMARK  Name = 
REMARK  10 active torsions:
REMARK  status: ('A' for Active; 'I' for Inactive)
REMARK    1  A    between atoms: C_1  and  C_2
REMARK    2  A    between atoms: C_2  and  C_3
REMARK    3  A    between atoms: C_2  and  O_4
REMARK    4  A    between atoms: O_4  and  C_5
REMARK    5  A    between atoms: C_5  and  C_6
REMARK    6  A    between atoms: C_6  and  N_7
REMARK    7  A    between atoms: C_6  and  C_20
REMARK    8  A    between atoms: C_8  and  C_10
REMARK    9  A    between atoms: C_23  and  C_24
REMARK   10  A    between atoms: C_24  and  C_25
REMARK                            x       y       z     vdW  Elec       q    Type
REMARK                         _______ _______ _______ _____ _____    ______ ____
ROOT
ATOM      1  C   UNL     1      48.323   4.901  16.243  0.00  0.00    +0.000 C 
ENDROOT
BRANCH   1   2
ATOM      2  C   UNL     1      48.147   5.929  17.355  0.00  0.00    +0.000 A 
ATOM      3  C   UNL     1      47.511   5.577  18.551  0.00  0.00    +0.000 A 
ATOM      4  C   UNL     1      47.371   6.510  19.584  0.00  0.00    +0.000 A 
ATOM      5  C   UNL     1      47.865   7.814  19.449  0.00  0.00    +0.000 A 
ATOM      6  C   UNL     1      48.502   8.170  18.255  0.00  0.00    +0.000 A 
ATOM      7  C   UNL     1      48.635   7.241  17.222  0.00  0.00    +0.000 A 
BRANCH   5   8
ATOM      8  C   UNL     1      47.748   8.812  20.576  0.00  0.00    +0.000 C 
BRANCH   8   9
ATOM      9  C   UNL     1      47.077  10.110  20.188  0.00  0.00    +0.000 A 
ATOM     10  C   UNL     1      47.684  10.993  19.284  0.00  0.00    +0.000 A 
ATOM     11  C   UNL     1      47.056  12.188  18.926  0.00  0.00    +0.000 A 
ATOM     12  C   UNL     1      45.815  12.515  19.469  0.00  0.00    +0.000 A 
ATOM     13  C   UNL     1      45.204  11.651  20.375  0.00  0.00    +0.000 A 
ATOM     14  C   UNL     1      45.831  10.457  20.736  0.00  0.00    +0.000 A 
ENDBRANCH   8   9
ENDBRANCH   5   8
ENDBRANCH   1   2
BRANCH   1  15
ATOM     15  N   UNL     1      47.290   5.099  15.237  0.00  0.00    +0.000 N 
ATOM     16  C   UNL     1      47.498   5.713  14.033  0.00  0.00    +0.000 C 
ATOM     17  O   UNL     1      48.599   6.097  13.654  0.00  0.00    +0.000 OA
ATOM     18  H   UNL     1      46.340   4.917  15.534  0.00  0.00    +0.000 HD
BRANCH  16  19
ATOM     19  C   UNL     1      46.303   5.866  13.189  0.00  0.00    +0.000 A 
ATOM     20  C   UNL     1      45.889   7.127  12.785  0.00  0.00    +0.000 A 
ATOM     21  S   UNL     1      44.493   7.104  11.802  0.00  0.00    +0.000 S 
ATOM     22  C   UNL     1      44.360   5.411  11.928  0.00  0.00    +0.000 A 
ATOM     23  N   UNL     1      43.340   4.738  11.331  0.00  0.00    +0.000 NA
ATOM     24  C   UNL     1      43.336   3.466  11.556  0.00  0.00    +0.000 A 
ATOM     25  N   UNL     1      44.265   2.804  12.313  0.00  0.00    +0.000 N 
ATOM     26  C   UNL     1      45.366   3.428  12.843  0.00  0.00    +0.000 A 
ATOM     27  O   UNL     1      46.273   2.775  13.346  0.00  0.00    +0.000 OA
ATOM     28  C   UNL     1      45.387   4.867  12.680  0.00  0.00    +0.000 A 
ATOM     29  H   UNL     1      44.235   1.801  12.416  0.00  0.00    +0.000 HD
ENDBRANCH  16  19
ENDBRANCH   1  15
BRANCH   1  30
ATOM     30  C   UNL     1      48.270   3.474  16.832  0.00  0.00    +0.000 C 
BRANCH  30  31
ATOM     31  O   UNL     1      49.443   2.725  16.495  0.00  0.00    +0.000 OA
BRANCH  31  33
ATOM     32  C   UNL     1      51.238   1.404  17.331  0.00  0.00    +0.000 C 
ATOM     33  C   UNL     1      50.398   2.657  17.560  0.00  0.00    +0.000 C 
ATOM     34  C   UNL     1      51.294   3.893  17.585  0.00  0.00    +0.000 C 
ENDBRANCH  31  33
ENDBRANCH  30  31
ENDBRANCH   1  30
TORSDOF 8
ENDMDL
MODEL 7
REMARK VINA RESULT:    -7.183      3.307      7.437
REMARK INTER + INTRA:         -11.885
REMARK INTER:                 -10.108
REMARK INTRA:                  -1.778
REMARK UNBOUND:                -1.344
REMARK  Name = 
REMARK  10 active torsions:
REMARK  status: ('A' for Active; 'I' for Inactive)
REMARK    1  A    between atoms: C_1  and  C_2
REMARK    2  A    between atoms: C_2  and  C_3
REMARK    3  A    between atoms: C_2  and  O_4
REMARK    4  A    between atoms: O_4  and  C_5
REMARK    5  A    between atoms: C_5  and  C_6
REMARK    6  A    between atoms: C_6  and  N_7
REMARK    7  A    between atoms: C_6  and  C_20
REMARK    8  A    between atoms: C_8  and  C_10
REMARK    9  A    between atoms: C_23  and  C_24
REMARK   10  A    between atoms: C_24  and  C_25
REMARK                            x       y       z     vdW  Elec       q    Type
REMARK                         _______ _______ _______ _____ _____    ______ ____
ROOT
ATOM      1  C   UNL     1      48.354   7.466  12.973  0.00  0.00    +0.000 C 
ENDROOT
BRANCH   1   2
ATOM      2  C   UNL     1      48.673   6.832  14.323  0.00  0.00    +0.000 A 
ATOM      3  C   UNL     1      47.839   5.844  14.856  0.00  0.00    +0.000 A 
ATOM      4  C   UNL     1      48.142   5.240  16.081  0.00  0.00    +0.000 A 
ATOM      5  C   UNL     1      49.287   5.607  16.801  0.00  0.00    +0.000 A 
ATOM      6  C   UNL     1      50.125   6.595  16.271  0.00  0.00    +0.000 A 
ATOM      7  C   UNL     1      49.817   7.202  15.052  0.00  0.00    +0.000 A 
BRANCH   5   8
ATOM      8  C   UNL     1      49.637   4.933  18.106  0.00  0.00    +0.000 C 
BRANCH   8   9
ATOM      9  C   UNL     1      50.625   3.796  17.972  0.00  0.00    +0.000 A 
ATOM     10  C   UNL     1      50.247   2.578  17.392  0.00  0.00    +0.000 A 
ATOM     11  C   UNL     1      51.167   1.534  17.267  0.00  0.00    +0.000 A 
ATOM     12  C   UNL     1      52.473   1.695  17.722  0.00  0.00    +0.000 A 
ATOM     13  C   UNL     1      52.861   2.898  18.309  0.00  0.00    +0.000 A 
ATOM     14  C   UNL     1      51.943   3.942  18.437  0.00  0.00    +0.000 A 
ENDBRANCH   8   9
ENDBRANCH   5   8
ENDBRANCH   1   2
BRANCH   1  15
ATOM     15  N   UNL     1      47.589   6.525  12.169  0.00  0.00    +0.000 N 
ATOM     16  C   UNL     1      46.338   6.774  11.677  0.00  0.00    +0.000 C 
ATOM     17  O   UNL     1      45.763   7.849  11.809  0.00  0.00    +0.000 OA
ATOM     18  H   UNL     1      47.952   5.581  12.125  0.00  0.00    +0.000 HD
BRANCH  16  19
ATOM     19  C   UNL     1      45.718   5.661  10.940  0.00  0.00    +0.000 A 
ATOM     20  C   UNL     1      45.824   5.594   9.558  0.00  0.00    +0.000 A 
ATOM     21  S   UNL     1      45.056   4.228   8.881  0.00  0.00    +0.000 S 
ATOM     22  C   UNL     1      44.505   3.708  10.406  0.00  0.00    +0.000 A 
ATOM     23  N   UNL     1      43.741   2.590  10.536  0.00  0.00    +0.000 NA
ATOM     24  C   UNL     1      43.352   2.347  11.744  0.00  0.00    +0.000 A 
ATOM     25  N   UNL     1      43.666   3.113  12.834  0.00  0.00    +0.000 N 
ATOM     26  C   UNL     1      44.519   4.185  12.763  0.00  0.00    +0.000 A 
ATOM     27  O   UNL     1      44.930   4.726  13.782  0.00  0.00    +0.000 OA
ATOM     28  C   UNL     1      44.932   4.546  11.422  0.00  0.00    +0.000 A 
ATOM     29  H   UNL     1      43.370   2.847  13.761  0.00  0.00    +0.000 HD
ENDBRANCH  16  19
ENDBRANCH   1  15
BRANCH   1  30
ATOM     30  C   UNL     1      49.661   7.882  12.264  0.00  0.00    +0.000 C 
BRANCH  30  31
ATOM     31  O   UNL     1      49.638   9.265  11.893  0.00  0.00    +0.000 OA
BRANCH  31  33
ATOM     32  C   UNL     1      49.194  10.939  13.526  0.00  0.00    +0.000 C 
ATOM     33  C   UNL     1      48.569   9.998  12.500  0.00  0.00    +0.000 C 
ATOM     34  C   UNL     1      47.783  10.798  11.465  0.00  0.00    +0.000 C 
ENDBRANCH  31  33
ENDBRANCH  30  31
ENDBRANCH   1  30
TORSDOF 8
ENDMDL
MODEL 8
REMARK VINA RESULT:    -7.177      2.515      3.572
REMARK INTER + INTRA:         -11.878
REMARK INTER:                 -10.448
REMARK INTRA:                  -1.430
REMARK UNBOUND:                -1.344
REMARK  Name = 
REMARK  10 active torsions:
REMARK  status: ('A' for Active; 'I' for Inactive)
REMARK    1  A    between atoms: C_1  and  C_2
REMARK    2  A    between atoms: C_2  and  C_3
REMARK    3  A    between atoms: C_2  and  O_4
REMARK    4  A    between atoms: O_4  and  C_5
REMARK    5  A    between atoms: C_5  and  C_6
REMARK    6  A    between atoms: C_6  and  N_7
REMARK    7  A    between atoms: C_6  and  C_20
REMARK    8  A    between atoms: C_8  and  C_10
REMARK    9  A    between atoms: C_23  and  C_24
REMARK   10  A    between atoms: C_24  and  C_25
REMARK                            x       y       z     vdW  Elec       q    Type
REMARK                         _______ _______ _______ _____ _____    ______ ____
ROOT
ATOM      1  C   UNL     1      48.972   7.086  14.086  0.00  0.00    +0.000 C 
ENDROOT
BRANCH   1   2
ATOM      2  C   UNL     1      47.794   6.497  13.317  0.00  0.00    +0.000 A 
ATOM      3  C   UNL     1      47.394   7.055  12.097  0.00  0.00    +0.000 A 
ATOM      4  C   UNL     1      46.331   6.502  11.375  0.00  0.00    +0.000 A 
ATOM      5  C   UNL     1      45.645   5.377  11.853  0.00  0.00    +0.000 A 
ATOM      6  C   UNL     1      46.042   4.816  13.072  0.00  0.00    +0.000 A 
ATOM      7  C   UNL     1      47.097   5.373  13.795  0.00  0.00    +0.000 A 
BRANCH   5   8
ATOM      8  C   UNL     1      44.520   4.755  11.059  0.00  0.00    +0.000 C 
BRANCH   8   9
ATOM      9  C   UNL     1      44.977   3.923   9.883  0.00  0.00    +0.000 A 
ATOM     10  C   UNL     1      45.512   4.527   8.738  0.00  0.00    +0.000 A 
ATOM     11  C   UNL     1      45.937   3.752   7.657  0.00  0.00    +0.000 A 
ATOM     12  C   UNL     1      45.829   2.364   7.707  0.00  0.00    +0.000 A 
ATOM     13  C   UNL     1      45.290   1.750   8.836  0.00  0.00    +0.000 A 
ATOM     14  C   UNL     1      44.863   2.523   9.917  0.00  0.00    +0.000 A 
ENDBRANCH   8   9
ENDBRANCH   5   8
ENDBRANCH   1   2
BRANCH   1  15
ATOM     15  N   UNL     1      48.609   7.225  15.489  0.00  0.00    +0.000 N 
ATOM     16  C   UNL     1      49.303   6.658  16.521  0.00  0.00    +0.000 C 
ATOM     17  O   UNL     1      50.345   6.030  16.368  0.00  0.00    +0.000 OA
ATOM     18  H   UNL     1      47.698   7.626  15.674  0.00  0.00    +0.000 HD
BRANCH  16  19
ATOM     19  C   UNL     1      48.728   6.872  17.859  0.00  0.00    +0.000 A 
ATOM     20  C   UNL     1      48.277   8.130  18.231  0.00  0.00    +0.000 A 
ATOM     21  S   UNL     1      47.632   8.183  19.811  0.00  0.00    +0.000 S 
ATOM     22  C   UNL     1      47.986   6.538  20.074  0.00  0.00    +0.000 A 
ATOM     23  N   UNL     1      47.711   5.940  21.264  0.00  0.00    +0.000 NA
ATOM     24  C   UNL     1      48.082   4.704  21.338  0.00  0.00    +0.000 A 
ATOM     25  N   UNL     1      48.692   4.010  20.328  0.00  0.00    +0.000 N 
ATOM     26  C   UNL     1      48.889   4.544  19.080  0.00  0.00    +0.000 A 
ATOM     27  O   UNL     1      49.257   3.837  18.149  0.00  0.00    +0.000 OA
ATOM     28  C   UNL     1      48.555   5.948  18.959  0.00  0.00    +0.000 A 
ATOM     29  H   UNL     1      48.918   3.032  20.430  0.00  0.00    +0.000 HD
ENDBRANCH  16  19
ENDBRANCH   1  15
BRANCH   1  30
ATOM     30  C   UNL     1      49.375   8.444  13.471  0.00  0.00    +0.000 C 
BRANCH  30  31
ATOM     31  O   UNL     1      50.762   8.466  13.115  0.00  0.00    +0.000 OA
BRANCH  31  33
ATOM     32  C   UNL     1      50.915   7.609  10.899  0.00  0.00    +0.000 C 
ATOM     33  C   UNL     1      50.995   8.866  11.760  0.00  0.00    +0.000 C 
ATOM     34  C   UNL     1      49.961   9.888  11.295  0.00  0.00    +0.000 C 
ENDBRANCH  31  33
ENDBRANCH  30  31
ENDBRANCH   1  30
TORSDOF 8
ENDMDL
MODEL 9
REMARK VINA RESULT:    -7.100      4.152      9.581
REMARK INTER + INTRA:         -11.764
REMARK INTER:                  -9.898
REMARK INTRA:                  -1.866
REMARK UNBOUND:                -1.344
REMARK  Name = 
REMARK  10 active torsions:
REMARK  status: ('A' for Active; 'I' for Inactive)
REMARK    1  A    between atoms: C_1  and  C_2
REMARK    2  A    between atoms: C_2  and  C_3
REMARK    3  A    between atoms: C_2  and  O_4
REMARK    4  A    between atoms: O_4  and  C_5
REMARK    5  A    between atoms: C_5  and  C_6
REMARK    6  A    between atoms: C_6  and  N_7
REMARK    7  A    between atoms: C_6  and  C_20
REMARK    8  A    between atoms: C_8  and  C_10
REMARK    9  A    between atoms: C_23  and  C_24
REMARK   10  A    between atoms: C_24  and  C_25
REMARK                            x       y       z     vdW  Elec       q    Type
REMARK                         _______ _______ _______ _____ _____    ______ ____
ROOT
ATOM      1  C   UNL     1      49.272   6.950  15.936  0.00  0.00    +0.000 C 
ENDROOT
BRANCH   1   2
ATOM      2  C   UNL     1      48.955   8.062  16.930  0.00  0.00    +0.000 A 
ATOM      3  C   UNL     1      49.398   7.975  18.255  0.00  0.00    +0.000 A 
ATOM      4  C   UNL     1      49.132   9.005  19.164  0.00  0.00    +0.000 A 
ATOM      5  C   UNL     1      48.423  10.147  18.770  0.00  0.00    +0.000 A 
ATOM      6  C   UNL     1      47.979  10.239  17.446  0.00  0.00    +0.000 A 
ATOM      7  C   UNL     1      48.237   9.207  16.542  0.00  0.00    +0.000 A 
BRANCH   5   8
ATOM      8  C   UNL     1      48.166  11.278  19.738  0.00  0.00    +0.000 C 
BRANCH   8   9
ATOM      9  C   UNL     1      46.829  11.201  20.441  0.00  0.00    +0.000 A 
ATOM     10  C   UNL     1      45.718  11.902  19.954  0.00  0.00    +0.000 A 
ATOM     11  C   UNL     1      44.485  11.823  20.605  0.00  0.00    +0.000 A 
ATOM     12  C   UNL     1      44.350  11.044  21.752  0.00  0.00    +0.000 A 
ATOM     13  C   UNL     1      45.448  10.348  22.252  0.00  0.00    +0.000 A 
ATOM     14  C   UNL     1      46.682  10.428  21.605  0.00  0.00    +0.000 A 
ENDBRANCH   8   9
ENDBRANCH   5   8
ENDBRANCH   1   2
BRANCH   1  15
ATOM     15  N   UNL     1      48.117   6.729  15.078  0.00  0.00    +0.000 N 
ATOM     16  C   UNL     1      48.185   6.587  13.719  0.00  0.00    +0.000 C 
ATOM     17  O   UNL     1      49.241   6.562  13.097  0.00  0.00    +0.000 OA
ATOM     18  H   UNL     1      47.211   6.860  15.510  0.00  0.00    +0.000 HD
BRANCH  16  19
ATOM     19  C   UNL     1      46.891   6.435  13.036  0.00  0.00    +0.000 A 
ATOM     20  C   UNL     1      46.234   7.546  12.528  0.00  0.00    +0.000 A 
ATOM     21  S   UNL     1      44.756   7.173  11.760  0.00  0.00    +0.000 S 
ATOM     22  C   UNL     1      44.914   5.518  12.130  0.00  0.00    +0.000 A 
ATOM     23  N   UNL     1      43.954   4.622  11.776  0.00  0.00    +0.000 NA
ATOM     24  C   UNL     1      44.182   3.412  12.168  0.00  0.00    +0.000 A 
ATOM     25  N   UNL     1      45.287   3.015  12.871  0.00  0.00    +0.000 N 
ATOM     26  C   UNL     1      46.327   3.864  13.155  0.00  0.00    +0.000 A 
ATOM     27  O   UNL     1      47.379   3.433  13.610  0.00  0.00    +0.000 OA
ATOM     28  C   UNL     1      46.096   5.249  12.799  0.00  0.00    +0.000 A 
ATOM     29  H   UNL     1      45.432   2.046  13.111  0.00  0.00    +0.000 HD
ENDBRANCH  16  19
ENDBRANCH   1  15
BRANCH   1  30
ATOM     30  C   UNL     1      49.664   5.662  16.694  0.00  0.00    +0.000 C 
BRANCH  30  31
ATOM     31  O   UNL     1      48.673   4.641  16.539  0.00  0.00    +0.000 OA
BRANCH  31  33
ATOM     32  C   UNL     1      47.104   5.116  18.265  0.00  0.00    +0.000 C 
ATOM     33  C   UNL     1      48.174   4.140  17.784  0.00  0.00    +0.000 C 
ATOM     34  C   UNL     1      47.578   2.744  17.625  0.00  0.00    +0.000 C 
ENDBRANCH  31  33
ENDBRANCH  30  31
ENDBRANCH   1  30
TORSDOF 8
ENDMDL
