MODEL 1
REMARK VINA RESULT:    -6.988      0.000      0.000
REMARK INTER + INTRA:         -10.090
REMARK INTER:                  -9.031
REMARK INTRA:                  -1.059
REMARK UNBOUND:                -1.059
REMARK  Name = 
REMARK  5 active torsions:
REMARK  status: ('A' for Active; 'I' for Inactive)
REMARK    1  A    between atoms: C_2  and  C_4
REMARK    2  A    between atoms: C_8  and  O_9
REMARK    3  A    between atoms: O_9  and  C_10
REMARK    4  A    between atoms: C_10  and  C_11
REMARK    5  A    between atoms: C_15  and  C_16
REMARK                            x       y       z     vdW  Elec       q    Type
REMARK                         _______ _______ _______ _____ _____    ______ ____
ROOT
ATOM      1  C   UNL     1      46.928   4.227  13.422  0.00  0.00    +0.000 C 
ENDROOT
BRANCH   1   2
ATOM      2  C   UNL     1      45.567   4.028  12.799  0.00  0.00    +0.000 A 
ATOM      3  C   UNL     1      44.424   4.564  13.405  0.00  0.00    +0.000 A 
ATOM      4  C   UNL     1      43.193   4.500  12.756  0.00  0.00    +0.000 A 
ATOM      5  C   UNL     1      43.108   3.947  11.478  0.00  0.00    +0.000 A 
ATOM      6  C   UNL     1      44.249   3.441  10.833  0.00  0.00    +0.000 A 
ATOM      7  C   UNL     1      45.457   3.410  11.542  0.00  0.00    +0.000 A 
BRANCH   6   8
ATOM      8  C   UNL     1      44.170   3.122   9.344  0.00  0.00    +0.000 C 
ATOM      9  C   UNL     1      44.750   1.755   8.951  0.00  0.00    +0.000 C 
ATOM     10  C   UNL     1      46.187   1.823   8.444  0.00  0.00    +0.000 C 
ATOM     11  C   UNL     1      46.350   2.917   7.400  0.00  0.00    +0.000 C 
ATOM     12  N   UNL     1      46.044   4.217   7.989  0.00  0.00    +0.000 NA
ATOM     13  C   UNL     1      44.640   4.277   8.415  0.00  0.00    +0.000 C 
ATOM     14  H   UNL     1      46.213   4.952   7.298  0.00  0.00    +0.000 HD
ENDBRANCH   6   8
ENDBRANCH   1   2
BRANCH   1  15
ATOM     15  O   UNL     1      47.011   5.480  14.094  0.00  0.00    +0.000 OA
BRANCH  15  20
ATOM     16  C   UNL     1      46.922   8.675  12.367  0.00  0.00    +0.000 A 
ATOM     17  C   UNL     1      48.202   8.761  11.809  0.00  0.00    +0.000 A 
ATOM     18  C   UNL     1      49.123   7.741  12.028  0.00  0.00    +0.000 A 
ATOM     19  C   UNL     1      48.767   6.628  12.793  0.00  0.00    +0.000 A 
ATOM     20  C   UNL     1      47.483   6.525  13.340  0.00  0.00    +0.000 A 
ATOM     21  C   UNL     1      46.562   7.552  13.122  0.00  0.00    +0.000 A 
BRANCH  16  23
ATOM     22  N   UNL     1      44.738   9.700  12.693  0.00  0.00    +0.000 N 
ATOM     23  C   UNL     1      45.972   9.790  12.121  0.00  0.00    +0.000 C 
ATOM     24  O   UNL     1      46.296  10.774  11.462  0.00  0.00    +0.000 OA
ATOM     25  H   UNL     1      44.145  10.513  12.610  0.00  0.00    +0.000 HD
ATOM     26  H   UNL     1      44.528   9.037  13.427  0.00  0.00    +0.000 HD
ENDBRANCH  16  23
ENDBRANCH  15  20
ENDBRANCH   1  15
TORSDOF 5
ENDMDL
MODEL 2
REMARK VINA RESULT:    -6.893      2.667      3.958
REMARK INTER + INTRA:          -9.967
REMARK INTER:                  -9.210
REMARK INTRA:                  -0.757
REMARK UNBOUND:                -1.059
REMARK  Name = 
REMARK  5 active torsions:
REMARK  status: ('A' for Active; 'I' for Inactive)
REMARK    1  A    between atoms: C_2  and  C_4
REMARK    2  A    between atoms: C_8  and  O_9
REMARK    3  A    between atoms: O_9  and  C_10
REMARK    4  A    between atoms: C_10  and  C_11
REMARK    5  A    between atoms: C_15  and  C_16
REMARK                            x       y       z     vdW  Elec       q    Type
REMARK                         _______ _______ _______ _____ _____    ______ ____
ROOT
ATOM      1  C   UNL     1      45.883   6.341  12.717  0.00  0.00    +0.000 C 
ENDROOT
BRANCH   1   2
ATOM      2  C   UNL     1      45.125   5.093  12.333  0.00  0.00    +0.000 A 
ATOM      3  C   UNL     1      44.157   4.558  13.193  0.00  0.00    +0.000 A 
ATOM      4  C   UNL     1      43.363   3.493  12.776  0.00  0.00    +0.000 A 
ATOM      5  C   UNL     1      43.498   2.990  11.482  0.00  0.00    +0.000 A 
ATOM      6  C   UNL     1      44.433   3.538  10.587  0.00  0.00    +0.000 A 
ATOM      7  C   UNL     1      45.300   4.532  11.057  0.00  0.00    +0.000 A 
BRANCH   6   8
ATOM      8  C   UNL     1      44.345   3.164   9.112  0.00  0.00    +0.000 C 
ATOM      9  C   UNL     1      44.798   1.733   8.786  0.00  0.00    +0.000 C 
ATOM     10  C   UNL     1      46.242   1.645   8.303  0.00  0.00    +0.000 C 
ATOM     11  C   UNL     1      46.523   2.673   7.217  0.00  0.00    +0.000 C 
ATOM     12  N   UNL     1      46.332   4.020   7.747  0.00  0.00    +0.000 NA
ATOM     13  C   UNL     1      44.934   4.229   8.145  0.00  0.00    +0.000 C 
ATOM     14  H   UNL     1      46.579   4.705   7.029  0.00  0.00    +0.000 HD
ENDBRANCH   6   8
ENDBRANCH   1   2
BRANCH   1  15
ATOM     15  O   UNL     1      47.279   6.082  12.837  0.00  0.00    +0.000 OA
BRANCH  15  20
ATOM     16  C   UNL     1      47.879   4.573  16.087  0.00  0.00    +0.000 A 
ATOM     17  C   UNL     1      48.596   5.567  16.762  0.00  0.00    +0.000 A 
ATOM     18  C   UNL     1      48.904   6.760  16.115  0.00  0.00    +0.000 A 
ATOM     19  C   UNL     1      48.488   6.969  14.798  0.00  0.00    +0.000 A 
ATOM     20  C   UNL     1      47.754   5.989  14.121  0.00  0.00    +0.000 A 
ATOM     21  C   UNL     1      47.450   4.790  14.771  0.00  0.00    +0.000 A 
BRANCH  16  23
ATOM     22  N   UNL     1      48.592   2.403  16.926  0.00  0.00    +0.000 N 
ATOM     23  C   UNL     1      47.581   3.309  16.808  0.00  0.00    +0.000 C 
ATOM     24  O   UNL     1      46.481   3.103  17.313  0.00  0.00    +0.000 OA
ATOM     25  H   UNL     1      48.408   1.600  17.513  0.00  0.00    +0.000 HD
ATOM     26  H   UNL     1      49.557   2.640  16.742  0.00  0.00    +0.000 HD
ENDBRANCH  16  23
ENDBRANCH  15  20
ENDBRANCH   1  15
TORSDOF 5
ENDMDL
MODEL 3
REMARK VINA RESULT:    -6.788      3.967      5.527
REMARK INTER + INTRA:          -9.831
REMARK INTER:                  -9.057
REMARK INTRA:                  -0.774
REMARK UNBOUND:                -1.059
REMARK  Name = 
REMARK  5 active torsions:
REMARK  status: ('A' for Active; 'I' for Inactive)
REMARK    1  A    between atoms: C_2  and  C_4
REMARK    2  A    between atoms: C_8  and  O_9
REMARK    3  A    between atoms: O_9  and  C_10
REMARK    4  A    between atoms: C_10  and  C_11
REMARK    5  A    between atoms: C_15  and  C_16
REMARK                            x       y       z     vdW  Elec       q    Type
REMARK                         _______ _______ _______ _____ _____    ______ ____
ROOT
ATOM      1  C   UNL     1      47.032   3.563  14.426  0.00  0.00    +0.000 C 
ENDROOT
BRANCH   1   2
ATOM      2  C   UNL     1      46.460   4.442  13.340  0.00  0.00    +0.000 A 
ATOM      3  C   UNL     1      46.991   5.717  13.106  0.00  0.00    +0.000 A 
ATOM      4  C   UNL     1      46.557   6.466  12.015  0.00  0.00    +0.000 A 
ATOM      5  C   UNL     1      45.628   5.925  11.125  0.00  0.00    +0.000 A 
ATOM      6  C   UNL     1      45.114   4.631  11.316  0.00  0.00    +0.000 A 
ATOM      7  C   UNL     1      45.475   3.936  12.477  0.00  0.00    +0.000 A 
BRANCH   6   8
ATOM      8  C   UNL     1      44.341   3.973  10.179  0.00  0.00    +0.000 C 
ATOM      9  C   UNL     1      44.525   2.451  10.076  0.00  0.00    +0.000 C 
ATOM     10  C   UNL     1      45.580   2.030   9.059  0.00  0.00    +0.000 C 
ATOM     11  C   UNL     1      45.382   2.746   7.731  0.00  0.00    +0.000 C 
ATOM     12  N   UNL     1      45.520   4.187   7.918  0.00  0.00    +0.000 NA
ATOM     13  C   UNL     1      44.473   4.700   8.810  0.00  0.00    +0.000 C 
ATOM     14  H   UNL     1      45.444   4.656   7.012  0.00  0.00    +0.000 HD
ENDBRANCH   6   8
ENDBRANCH   1   2
BRANCH   1  15
ATOM     15  O   UNL     1      46.495   3.902  15.702  0.00  0.00    +0.000 OA
BRANCH  15  20
ATOM     16  C   UNL     1      49.522   3.149  17.565  0.00  0.00    +0.000 A 
ATOM     17  C   UNL     1      49.406   3.972  18.690  0.00  0.00    +0.000 A 
ATOM     18  C   UNL     1      48.304   4.812  18.824  0.00  0.00    +0.000 A 
ATOM     19  C   UNL     1      47.310   4.824  17.842  0.00  0.00    +0.000 A 
ATOM     20  C   UNL     1      47.409   3.991  16.722  0.00  0.00    +0.000 A 
ATOM     21  C   UNL     1      48.518   3.152  16.589  0.00  0.00    +0.000 A 
BRANCH  16  23
ATOM     22  N   UNL     1      51.799   2.595  18.220  0.00  0.00    +0.000 N 
ATOM     23  C   UNL     1      50.718   2.276  17.453  0.00  0.00    +0.000 C 
ATOM     24  O   UNL     1      50.723   1.284  16.730  0.00  0.00    +0.000 OA
ATOM     25  H   UNL     1      52.562   1.931  18.217  0.00  0.00    +0.000 HD
ATOM     26  H   UNL     1      51.744   3.245  18.992  0.00  0.00    +0.000 HD
ENDBRANCH  16  23
ENDBRANCH  15  20
ENDBRANCH   1  15
TORSDOF 5
ENDMDL
MODEL 4
REMARK VINA RESULT:    -6.708      1.946      2.735
REMARK INTER + INTRA:          -9.728
REMARK INTER:                  -8.853
REMARK INTRA:                  -0.875
REMARK UNBOUND:                -1.059
REMARK  Name = 
REMARK  5 active torsions:
REMARK  status: ('A' for Active; 'I' for Inactive)
REMARK    1  A    between atoms: C_2  and  C_4
REMARK    2  A    between atoms: C_8  and  O_9
REMARK    3  A    between atoms: O_9  and  C_10
REMARK    4  A    between atoms: C_10  and  C_11
REMARK    5  A    between atoms: C_15  and  C_16
REMARK                            x       y       z     vdW  Elec       q    Type
REMARK                         _______ _______ _______ _____ _____    ______ ____
ROOT
ATOM      1  C   UNL     1      45.426   6.693  12.471  0.00  0.00    +0.000 C 
ENDROOT
BRANCH   1   2
ATOM      2  C   UNL     1      44.914   5.306  12.167  0.00  0.00    +0.000 A 
ATOM      3  C   UNL     1      44.114   4.625  13.094  0.00  0.00    +0.000 A 
ATOM      4  C   UNL     1      43.529   3.408  12.753  0.00  0.00    +0.000 A 
ATOM      5  C   UNL     1      43.698   2.890  11.469  0.00  0.00    +0.000 A 
ATOM      6  C   UNL     1      44.462   3.576  10.509  0.00  0.00    +0.000 A 
ATOM      7  C   UNL     1      45.135   4.740  10.900  0.00  0.00    +0.000 A 
BRANCH   6   8
ATOM      8  C   UNL     1      44.378   3.134   9.052  0.00  0.00    +0.000 C 
ATOM      9  C   UNL     1      44.862   1.700   8.790  0.00  0.00    +0.000 C 
ATOM     10  C   UNL     1      46.307   1.622   8.306  0.00  0.00    +0.000 C 
ATOM     11  C   UNL     1      46.562   2.606   7.174  0.00  0.00    +0.000 C 
ATOM     12  N   UNL     1      46.342   3.971   7.643  0.00  0.00    +0.000 NA
ATOM     13  C   UNL     1      44.942   4.167   8.036  0.00  0.00    +0.000 C 
ATOM     14  H   UNL     1      46.573   4.628   6.894  0.00  0.00    +0.000 HD
ENDBRANCH   6   8
ENDBRANCH   1   2
BRANCH   1  15
ATOM     15  O   UNL     1      46.450   7.078  11.558  0.00  0.00    +0.000 OA
BRANCH  15  20
ATOM     16  C   UNL     1      48.989   7.174  14.154  0.00  0.00    +0.000 A 
ATOM     17  C   UNL     1      50.088   7.731  13.492  0.00  0.00    +0.000 A 
ATOM     18  C   UNL     1      49.989   8.066  12.145  0.00  0.00    +0.000 A 
ATOM     19  C   UNL     1      48.790   7.856  11.459  0.00  0.00    +0.000 A 
ATOM     20  C   UNL     1      47.680   7.317  12.117  0.00  0.00    +0.000 A 
ATOM     21  C   UNL     1      47.784   6.978  13.468  0.00  0.00    +0.000 A 
BRANCH  16  23
ATOM     22  N   UNL     1      48.205   7.303  16.455  0.00  0.00    +0.000 N 
ATOM     23  C   UNL     1      49.140   6.819  15.588  0.00  0.00    +0.000 C 
ATOM     24  O   UNL     1      50.045   6.085  15.976  0.00  0.00    +0.000 OA
ATOM     25  H   UNL     1      48.257   6.963  17.406  0.00  0.00    +0.000 HD
ATOM     26  H   UNL     1      47.329   7.697  16.143  0.00  0.00    +0.000 HD
ENDBRANCH  16  23
ENDBRANCH  15  20
ENDBRANCH   1  15
TORSDOF 5
ENDMDL
MODEL 5
REMARK VINA RESULT:    -6.696      2.785      6.998
REMARK INTER + INTRA:          -9.712
REMARK INTER:                  -8.772
REMARK INTRA:                  -0.940
REMARK UNBOUND:                -1.059
REMARK  Name = 
REMARK  5 active torsions:
REMARK  status: ('A' for Active; 'I' for Inactive)
REMARK    1  A    between atoms: C_2  and  C_4
REMARK    2  A    between atoms: C_8  and  O_9
REMARK    3  A    between atoms: O_9  and  C_10
REMARK    4  A    between atoms: C_10  and  C_11
REMARK    5  A    between atoms: C_15  and  C_16
REMARK                            x       y       z     vdW  Elec       q    Type
REMARK                         _______ _______ _______ _____ _____    ______ ____
ROOT
ATOM      1  C   UNL     1      46.209   7.252  12.582  0.00  0.00    +0.000 C 
ENDROOT
BRANCH   1   2
ATOM      2  C   UNL     1      46.027   8.728  12.322  0.00  0.00    +0.000 A 
ATOM      3  C   UNL     1      47.130   9.591  12.322  0.00  0.00    +0.000 A 
ATOM      4  C   UNL     1      46.977  10.922  11.944  0.00  0.00    +0.000 A 
ATOM      5  C   UNL     1      45.733  11.386  11.517  0.00  0.00    +0.000 A 
ATOM      6  C   UNL     1      44.621  10.528  11.468  0.00  0.00    +0.000 A 
ATOM      7  C   UNL     1      44.764   9.224  11.957  0.00  0.00    +0.000 A 
BRANCH   6   8
ATOM      8  C   UNL     1      43.371  10.988  10.725  0.00  0.00    +0.000 C 
ATOM      9  C   UNL     1      42.597  12.121  11.415  0.00  0.00    +0.000 C 
ATOM     10  C   UNL     1      41.422  11.633  12.257  0.00  0.00    +0.000 C 
ATOM     11  C   UNL     1      40.564  10.643  11.483  0.00  0.00    +0.000 C 
ATOM     12  N   UNL     1      41.354   9.467  11.133  0.00  0.00    +0.000 NA
ATOM     13  C   UNL     1      42.456   9.830  10.234  0.00  0.00    +0.000 C 
ATOM     14  H   UNL     1      40.755   8.783  10.665  0.00  0.00    +0.000 HD
ENDBRANCH   6   8
ENDBRANCH   1   2
BRANCH   1  15
ATOM     15  O   UNL     1      44.999   6.654  13.039  0.00  0.00    +0.000 OA
BRANCH  15  20
ATOM     16  C   UNL     1      44.664   4.340  10.259  0.00  0.00    +0.000 A 
ATOM     17  C   UNL     1      43.946   3.280  10.823  0.00  0.00    +0.000 A 
ATOM     18  C   UNL     1      43.580   3.327  12.164  0.00  0.00    +0.000 A 
ATOM     19  C   UNL     1      43.919   4.436  12.943  0.00  0.00    +0.000 A 
ATOM     20  C   UNL     1      44.622   5.509  12.384  0.00  0.00    +0.000 A 
ATOM     21  C   UNL     1      44.991   5.457  11.037  0.00  0.00    +0.000 A 
BRANCH  16  23
ATOM     22  N   UNL     1      44.334   3.387   8.043  0.00  0.00    +0.000 N 
ATOM     23  C   UNL     1      45.046   4.246   8.827  0.00  0.00    +0.000 C 
ATOM     24  O   UNL     1      45.941   4.943   8.355  0.00  0.00    +0.000 OA
ATOM     25  H   UNL     1      44.532   3.416   7.052  0.00  0.00    +0.000 HD
ATOM     26  H   UNL     1      43.452   2.991   8.336  0.00  0.00    +0.000 HD
ENDBRANCH  16  23
ENDBRANCH  15  20
ENDBRANCH   1  15
TORSDOF 5
ENDMDL
MODEL 6
REMARK VINA RESULT:    -6.686      3.630      5.532
REMARK INTER + INTRA:          -9.699
REMARK INTER:                  -8.749
REMARK INTRA:                  -0.950
REMARK UNBOUND:                -1.059
REMARK  Name = 
REMARK  5 active torsions:
REMARK  status: ('A' for Active; 'I' for Inactive)
REMARK    1  A    between atoms: C_2  and  C_4
REMARK    2  A    between atoms: C_8  and  O_9
REMARK    3  A    between atoms: O_9  and  C_10
REMARK    4  A    between atoms: C_10  and  C_11
REMARK    5  A    between atoms: C_15  and  C_16
REMARK                            x       y       z     vdW  Elec       q    Type
REMARK                         _______ _______ _______ _____ _____    ______ ____
ROOT
ATOM      1  C   UNL     1      48.983   7.830  14.044  0.00  0.00    +0.000 C 
ENDROOT
BRANCH   1   2
ATOM      2  C   UNL     1      47.573   7.623  13.544  0.00  0.00    +0.000 A 
ATOM      3  C   UNL     1      46.710   8.714  13.382  0.00  0.00    +0.000 A 
ATOM      4  C   UNL     1      45.462   8.537  12.790  0.00  0.00    +0.000 A 
ATOM      5  C   UNL     1      45.091   7.280  12.311  0.00  0.00    +0.000 A 
ATOM      6  C   UNL     1      45.958   6.180  12.424  0.00  0.00    +0.000 A 
ATOM      7  C   UNL     1      47.161   6.348  13.122  0.00  0.00    +0.000 A 
BRANCH   6   8
ATOM      8  C   UNL     1      45.644   4.913  11.636  0.00  0.00    +0.000 C 
ATOM      9  C   UNL     1      44.511   5.063  10.610  0.00  0.00    +0.000 C 
ATOM     10  C   UNL     1      43.155   4.590  11.124  0.00  0.00    +0.000 C 
ATOM     11  C   UNL     1      43.260   3.218  11.773  0.00  0.00    +0.000 C 
ATOM     12  N   UNL     1      44.155   3.280  12.925  0.00  0.00    +0.000 NA
ATOM     13  C   UNL     1      45.518   3.631  12.506  0.00  0.00    +0.000 C 
ATOM     14  H   UNL     1      44.174   2.369  13.389  0.00  0.00    +0.000 HD
ENDBRANCH   6   8
ENDBRANCH   1   2
BRANCH   1  15
ATOM     15  O   UNL     1      49.453   6.688  14.754  0.00  0.00    +0.000 OA
BRANCH  15  20
ATOM     16  C   UNL     1      48.030   4.989  17.634  0.00  0.00    +0.000 A 
ATOM     17  C   UNL     1      47.931   6.015  18.580  0.00  0.00    +0.000 A 
ATOM     18  C   UNL     1      48.364   7.298  18.260  0.00  0.00    +0.000 A 
ATOM     19  C   UNL     1      48.887   7.563  16.992  0.00  0.00    +0.000 A 
ATOM     20  C   UNL     1      48.974   6.549  16.033  0.00  0.00    +0.000 A 
ATOM     21  C   UNL     1      48.542   5.261  16.358  0.00  0.00    +0.000 A 
BRANCH  16  23
ATOM     22  N   UNL     1      48.169   3.047  19.094  0.00  0.00    +0.000 N 
ATOM     23  C   UNL     1      47.569   3.631  18.018  0.00  0.00    +0.000 C 
ATOM     24  O   UNL     1      46.656   3.070  17.419  0.00  0.00    +0.000 OA
ATOM     25  H   UNL     1      47.770   2.174  19.411  0.00  0.00    +0.000 HD
ATOM     26  H   UNL     1      48.739   3.568  19.746  0.00  0.00    +0.000 HD
ENDBRANCH  16  23
ENDBRANCH  15  20
ENDBRANCH   1  15
TORSDOF 5
ENDMDL
MODEL 7
REMARK VINA RESULT:    -6.464      3.342      6.998
REMARK INTER + INTRA:          -9.412
REMARK INTER:                  -8.516
REMARK INTRA:                  -0.897
REMARK UNBOUND:                -1.059
REMARK  Name = 
REMARK  5 active torsions:
REMARK  status: ('A' for Active; 'I' for Inactive)
REMARK    1  A    between atoms: C_2  and  C_4
REMARK    2  A    between atoms: C_8  and  O_9
REMARK    3  A    between atoms: O_9  and  C_10
REMARK    4  A    between atoms: C_10  and  C_11
REMARK    5  A    between atoms: C_15  and  C_16
REMARK                            x       y       z     vdW  Elec       q    Type
REMARK                         _______ _______ _______ _____ _____    ______ ____
ROOT
ATOM      1  C   UNL     1      46.615   7.031  12.287  0.00  0.00    +0.000 C 
ENDROOT
BRANCH   1   2
ATOM      2  C   UNL     1      47.711   6.971  13.323  0.00  0.00    +0.000 A 
ATOM      3  C   UNL     1      48.680   7.980  13.391  0.00  0.00    +0.000 A 
ATOM      4  C   UNL     1      49.604   7.994  14.433  0.00  0.00    +0.000 A 
ATOM      5  C   UNL     1      49.532   7.031  15.439  0.00  0.00    +0.000 A 
ATOM      6  C   UNL     1      48.542   6.033  15.415  0.00  0.00    +0.000 A 
ATOM      7  C   UNL     1      47.693   5.965  14.303  0.00  0.00    +0.000 A 
BRANCH   6   8
ATOM      8  C   UNL     1      48.316   5.193  16.666  0.00  0.00    +0.000 C 
ATOM      9  C   UNL     1      49.523   5.116  17.613  0.00  0.00    +0.000 C 
ATOM     10  C   UNL     1      50.372   3.863  17.419  0.00  0.00    +0.000 C 
ATOM     11  C   UNL     1      49.506   2.613  17.376  0.00  0.00    +0.000 C 
ATOM     12  N   UNL     1      48.587   2.684  16.244  0.00  0.00    +0.000 NA
ATOM     13  C   UNL     1      47.657   3.809  16.398  0.00  0.00    +0.000 C 
ATOM     14  H   UNL     1      48.051   1.815  16.187  0.00  0.00    +0.000 HD
ENDBRANCH   6   8
ENDBRANCH   1   2
BRANCH   1  15
ATOM     15  O   UNL     1      45.384   6.536  12.807  0.00  0.00    +0.000 OA
BRANCH  15  20
ATOM     16  C   UNL     1      44.749   4.276  10.034  0.00  0.00    +0.000 A 
ATOM     17  C   UNL     1      43.909   3.313  10.606  0.00  0.00    +0.000 A 
ATOM     18  C   UNL     1      43.561   3.407  11.950  0.00  0.00    +0.000 A 
ATOM     19  C   UNL     1      44.039   4.467  12.724  0.00  0.00    +0.000 A 
ATOM     20  C   UNL     1      44.865   5.445  12.157  0.00  0.00    +0.000 A 
ATOM     21  C   UNL     1      45.216   5.346  10.809  0.00  0.00    +0.000 A 
BRANCH  16  23
ATOM     22  N   UNL     1      44.318   3.328   7.834  0.00  0.00    +0.000 N 
ATOM     23  C   UNL     1      45.107   4.133   8.600  0.00  0.00    +0.000 C 
ATOM     24  O   UNL     1      46.053   4.747   8.112  0.00  0.00    +0.000 OA
ATOM     25  H   UNL     1      44.507   3.328   6.841  0.00  0.00    +0.000 HD
ATOM     26  H   UNL     1      43.409   3.010   8.140  0.00  0.00    +0.000 HD
ENDBRANCH  16  23
ENDBRANCH  15  20
ENDBRANCH   1  15
TORSDOF 5
ENDMDL
MODEL 8
REMARK VINA RESULT:    -6.129      3.992      6.492
REMARK INTER + INTRA:          -8.980
REMARK INTER:                  -8.060
REMARK INTRA:                  -0.920
REMARK UNBOUND:                -1.059
REMARK  Name = 
REMARK  5 active torsions:
REMARK  status: ('A' for Active; 'I' for Inactive)
REMARK    1  A    between atoms: C_2  and  C_4
REMARK    2  A    between atoms: C_8  and  O_9
REMARK    3  A    between atoms: O_9  and  C_10
REMARK    4  A    between atoms: C_10  and  C_11
REMARK    5  A    between atoms: C_15  and  C_16
REMARK                            x       y       z     vdW  Elec       q    Type
REMARK                         _______ _______ _______ _____ _____    ______ ____
ROOT
ATOM      1  C   UNL     1      49.686   6.860  15.490  0.00  0.00    +0.000 C 
ENDROOT
BRANCH   1   2
ATOM      2  C   UNL     1      48.956   7.153  14.201  0.00  0.00    +0.000 A 
ATOM      3  C   UNL     1      49.670   7.452  13.033  0.00  0.00    +0.000 A 
ATOM      4  C   UNL     1      49.001   7.582  11.819  0.00  0.00    +0.000 A 
ATOM      5  C   UNL     1      47.624   7.365  11.756  0.00  0.00    +0.000 A 
ATOM      6  C   UNL     1      46.894   7.023  12.907  0.00  0.00    +0.000 A 
ATOM      7  C   UNL     1      47.561   7.006  14.138  0.00  0.00    +0.000 A 
BRANCH   6   8
ATOM      8  C   UNL     1      45.467   6.510  12.746  0.00  0.00    +0.000 C 
ATOM      9  C   UNL     1      45.239   5.080  13.258  0.00  0.00    +0.000 C 
ATOM     10  C   UNL     1      45.309   4.021  12.163  0.00  0.00    +0.000 C 
ATOM     11  C   UNL     1      44.467   4.416  10.959  0.00  0.00    +0.000 C 
ATOM     12  N   UNL     1      44.975   5.658  10.384  0.00  0.00    +0.000 NA
ATOM     13  C   UNL     1      44.850   6.764  11.341  0.00  0.00    +0.000 C 
ATOM     14  H   UNL     1      44.441   5.886   9.542  0.00  0.00    +0.000 HD
ENDBRANCH   6   8
ENDBRANCH   1   2
BRANCH   1  15
ATOM     15  O   UNL     1      48.773   6.608  16.555  0.00  0.00    +0.000 OA
BRANCH  15  20
ATOM     16  C   UNL     1      49.695   3.182  17.339  0.00  0.00    +0.000 A 
ATOM     17  C   UNL     1      48.454   2.553  17.485  0.00  0.00    +0.000 A 
ATOM     18  C   UNL     1      47.282   3.289  17.337  0.00  0.00    +0.000 A 
ATOM     19  C   UNL     1      47.346   4.651  17.032  0.00  0.00    +0.000 A 
ATOM     20  C   UNL     1      48.582   5.285  16.867  0.00  0.00    +0.000 A 
ATOM     21  C   UNL     1      49.756   4.544  17.020  0.00  0.00    +0.000 A 
BRANCH  16  23
ATOM     22  N   UNL     1      51.894   2.862  18.333  0.00  0.00    +0.000 N 
ATOM     23  C   UNL     1      50.922   2.364  17.517  0.00  0.00    +0.000 C 
ATOM     24  O   UNL     1      51.042   1.264  16.984  0.00  0.00    +0.000 OA
ATOM     25  H   UNL     1      52.671   2.247  18.532  0.00  0.00    +0.000 HD
ATOM     26  H   UNL     1      51.727   3.631  18.968  0.00  0.00    +0.000 HD
ENDBRANCH  16  23
ENDBRANCH  15  20
ENDBRANCH   1  15
TORSDOF 5
ENDMDL
MODEL 9
REMARK VINA RESULT:    -6.100      3.722      7.155
REMARK INTER + INTRA:          -8.943
REMARK INTER:                  -7.952
REMARK INTRA:                  -0.991
REMARK UNBOUND:                -1.059
REMARK  Name = 
REMARK  5 active torsions:
REMARK  status: ('A' for Active; 'I' for Inactive)
REMARK    1  A    between atoms: C_2  and  C_4
REMARK    2  A    between atoms: C_8  and  O_9
REMARK    3  A    between atoms: O_9  and  C_10
REMARK    4  A    between atoms: C_10  and  C_11
REMARK    5  A    between atoms: C_15  and  C_16
REMARK                            x       y       z     vdW  Elec       q    Type
REMARK                         _______ _______ _______ _____ _____    ______ ____
ROOT
ATOM      1  C   UNL     1      48.911   7.237  13.497  0.00  0.00    +0.000 C 
ENDROOT
BRANCH   1   2
ATOM      2  C   UNL     1      48.905   7.504  14.982  0.00  0.00    +0.000 A 
ATOM      3  C   UNL     1      48.539   8.763  15.476  0.00  0.00    +0.000 A 
ATOM      4  C   UNL     1      48.398   8.963  16.847  0.00  0.00    +0.000 A 
ATOM      5  C   UNL     1      48.573   7.895  17.727  0.00  0.00    +0.000 A 
ATOM      6  C   UNL     1      48.899   6.613  17.252  0.00  0.00    +0.000 A 
ATOM      7  C   UNL     1      49.147   6.454  15.884  0.00  0.00    +0.000 A 
BRANCH   6   8
ATOM      8  C   UNL     1      48.790   5.428  18.205  0.00  0.00    +0.000 C 
ATOM      9  C   UNL     1      49.639   4.210  17.810  0.00  0.00    +0.000 C 
ATOM     10  C   UNL     1      48.861   3.145  17.045  0.00  0.00    +0.000 C 
ATOM     11  C   UNL     1      47.547   2.817  17.740  0.00  0.00    +0.000 C 
ATOM     12  N   UNL     1      46.703   4.007  17.793  0.00  0.00    +0.000 NA
ATOM     13  C   UNL     1      47.334   5.057  18.603  0.00  0.00    +0.000 C 
ATOM     14  H   UNL     1      45.800   3.764  18.208  0.00  0.00    +0.000 HD
ENDBRANCH   6   8
ENDBRANCH   1   2
BRANCH   1  15
ATOM     15  O   UNL     1      48.227   6.026  13.186  0.00  0.00    +0.000 OA
BRANCH  15  20
ATOM     16  C   UNL     1      44.864   5.044  12.226  0.00  0.00    +0.000 A 
ATOM     17  C   UNL     1      44.340   6.222  11.683  0.00  0.00    +0.000 A 
ATOM     18  C   UNL     1      45.118   7.376  11.652  0.00  0.00    +0.000 A 
ATOM     19  C   UNL     1      46.422   7.354  12.151  0.00  0.00    +0.000 A 
ATOM     20  C   UNL     1      46.961   6.176  12.680  0.00  0.00    +0.000 A 
ATOM     21  C   UNL     1      46.176   5.020  12.714  0.00  0.00    +0.000 A 
BRANCH  16  23
ATOM     22  N   UNL     1      43.592   3.331  11.054  0.00  0.00    +0.000 N 
ATOM     23  C   UNL     1      43.998   3.837  12.253  0.00  0.00    +0.000 C 
ATOM     24  O   UNL     1      43.691   3.291  13.309  0.00  0.00    +0.000 OA
ATOM     25  H   UNL     1      43.098   2.449  11.084  0.00  0.00    +0.000 HD
ATOM     26  H   UNL     1      44.018   3.602  10.179  0.00  0.00    +0.000 HD
ENDBRANCH  16  23
ENDBRANCH  15  20
ENDBRANCH   1  15
TORSDOF 5
ENDMDL
