MODEL 1
REMARK VINA RESULT:    -8.212      0.000      0.000
REMARK INTER + INTRA:         -11.462
REMARK INTER:                 -10.613
REMARK INTRA:                  -0.849
REMARK UNBOUND:                -0.849
REMARK  Name = 
REMARK  5 active torsions:
REMARK  status: ('A' for Active; 'I' for Inactive)
REMARK    1  A    between atoms: C_2  and  C_4
REMARK    2  A    between atoms: C_7  and  S_8
REMARK    3  A    between atoms: S_8  and  C_9
REMARK    4  A    between atoms: C_9  and  C_10
REMARK    5  A    between atoms: C_14  and  C_15
REMARK                            x       y       z     vdW  Elec       q    Type
REMARK                         _______ _______ _______ _____ _____    ______ ____
ROOT
ATOM      1  C   UNL     1      44.232   4.033  12.060  0.00  0.00    +0.000 C 
ENDROOT
BRANCH   1   2
ATOM      2  C   UNL     1      45.447   4.765  12.575  0.00  0.00    +0.000 A 
ATOM      3  C   UNL     1      45.975   5.850  11.867  0.00  0.00    +0.000 A 
ATOM      4  C   UNL     1      47.101   6.514  12.345  0.00  0.00    +0.000 A 
ATOM      5  C   UNL     1      47.693   6.118  13.547  0.00  0.00    +0.000 A 
ATOM      6  C   UNL     1      47.161   5.070  14.318  0.00  0.00    +0.000 A 
ATOM      7  C   UNL     1      46.043   4.391  13.792  0.00  0.00    +0.000 A 
BRANCH   6   8
ATOM      8  C   UNL     1      47.692   4.747  15.666  0.00  0.00    +0.000 A 
ATOM      9  C   UNL     1      48.482   5.674  16.370  0.00  0.00    +0.000 A 
ATOM     10  C   UNL     1      48.903   5.435  17.682  0.00  0.00    +0.000 A 
ATOM     11  C   UNL     1      48.539   4.257  18.325  0.00  0.00    +0.000 A 
ATOM     12  C   UNL     1      47.780   3.309  17.645  0.00  0.00    +0.000 A 
ATOM     13  C   UNL     1      47.372   3.547  16.328  0.00  0.00    +0.000 A 
ENDBRANCH   6   8
ENDBRANCH   1   2
BRANCH   1  14
ATOM     14  S   UNL     1      43.759   4.597  10.392  0.00  0.00    +0.000 S 
BRANCH  14  18
ATOM     15  C   UNL     1      46.601   2.396   7.507  0.00  0.00    +0.000 A 
ATOM     16  C   UNL     1      45.870   1.645   8.434  0.00  0.00    +0.000 A 
ATOM     17  C   UNL     1      44.999   2.283   9.325  0.00  0.00    +0.000 A 
ATOM     18  C   UNL     1      44.847   3.674   9.311  0.00  0.00    +0.000 A 
ATOM     19  C   UNL     1      45.596   4.417   8.387  0.00  0.00    +0.000 A 
ATOM     20  C   UNL     1      46.473   3.788   7.495  0.00  0.00    +0.000 A 
BRANCH  15  22
ATOM     21  N   UNL     1      48.692   2.425   6.261  0.00  0.00    +0.000 N 
ATOM     22  C   UNL     1      47.532   1.758   6.540  0.00  0.00    +0.000 C 
ATOM     23  O   UNL     1      47.298   0.664   6.045  0.00  0.00    +0.000 OA
ATOM     24  H   UNL     1      49.367   1.925   5.696  0.00  0.00    +0.000 HD
ATOM     25  H   UNL     1      49.035   3.178   6.840  0.00  0.00    +0.000 HD
ENDBRANCH  15  22
ENDBRANCH  14  18
ENDBRANCH   1  14
TORSDOF 5
ENDMDL
MODEL 2
REMARK VINA RESULT:    -8.180      2.067      4.063
REMARK INTER + INTRA:         -11.420
REMARK INTER:                 -10.438
REMARK INTRA:                  -0.981
REMARK UNBOUND:                -0.849
REMARK  Name = 
REMARK  5 active torsions:
REMARK  status: ('A' for Active; 'I' for Inactive)
REMARK    1  A    between atoms: C_2  and  C_4
REMARK    2  A    between atoms: C_7  and  S_8
REMARK    3  A    between atoms: S_8  and  C_9
REMARK    4  A    between atoms: C_9  and  C_10
REMARK    5  A    between atoms: C_14  and  C_15
REMARK                            x       y       z     vdW  Elec       q    Type
REMARK                         _______ _______ _______ _____ _____    ______ ____
ROOT
ATOM      1  C   UNL     1      44.064   5.725  11.095  0.00  0.00    +0.000 C 
ENDROOT
BRANCH   1   2
ATOM      2  C   UNL     1      45.351   5.818  11.878  0.00  0.00    +0.000 A 
ATOM      3  C   UNL     1      45.637   4.892  12.886  0.00  0.00    +0.000 A 
ATOM      4  C   UNL     1      46.823   4.990  13.609  0.00  0.00    +0.000 A 
ATOM      5  C   UNL     1      47.745   5.998  13.313  0.00  0.00    +0.000 A 
ATOM      6  C   UNL     1      47.522   6.914  12.271  0.00  0.00    +0.000 A 
ATOM      7  C   UNL     1      46.298   6.815  11.580  0.00  0.00    +0.000 A 
BRANCH   6   8
ATOM      8  C   UNL     1      48.564   7.886  11.853  0.00  0.00    +0.000 A 
ATOM      9  C   UNL     1      48.270   9.259  11.757  0.00  0.00    +0.000 A 
ATOM     10  C   UNL     1      49.261  10.204  11.469  0.00  0.00    +0.000 A 
ATOM     11  C   UNL     1      50.575   9.795  11.273  0.00  0.00    +0.000 A 
ATOM     12  C   UNL     1      50.891   8.442  11.336  0.00  0.00    +0.000 A 
ATOM     13  C   UNL     1      49.895   7.499  11.611  0.00  0.00    +0.000 A 
ENDBRANCH   6   8
ENDBRANCH   1   2
BRANCH   1  14
ATOM     14  S   UNL     1      43.605   3.995  10.752  0.00  0.00    +0.000 S 
BRANCH  14  18
ATOM     15  C   UNL     1      46.583   2.506   7.564  0.00  0.00    +0.000 A 
ATOM     16  C   UNL     1      46.354   3.882   7.681  0.00  0.00    +0.000 A 
ATOM     17  C   UNL     1      45.455   4.367   8.638  0.00  0.00    +0.000 A 
ATOM     18  C   UNL     1      44.768   3.492   9.488  0.00  0.00    +0.000 A 
ATOM     19  C   UNL     1      44.995   2.115   9.352  0.00  0.00    +0.000 A 
ATOM     20  C   UNL     1      45.888   1.621   8.395  0.00  0.00    +0.000 A 
BRANCH  15  22
ATOM     21  N   UNL     1      48.606   2.727   6.230  0.00  0.00    +0.000 N 
ATOM     22  C   UNL     1      47.532   1.951   6.566  0.00  0.00    +0.000 C 
ATOM     23  O   UNL     1      47.391   0.831   6.094  0.00  0.00    +0.000 OA
ATOM     24  H   UNL     1      49.304   2.288   5.642  0.00  0.00    +0.000 HD
ATOM     25  H   UNL     1      48.894   3.520   6.784  0.00  0.00    +0.000 HD
ENDBRANCH  15  22
ENDBRANCH  14  18
ENDBRANCH   1  14
TORSDOF 5
ENDMDL
MODEL 3
REMARK VINA RESULT:    -7.812      2.426      4.787
REMARK INTER + INTRA:         -10.945
REMARK INTER:                  -9.886
REMARK INTRA:                  -1.059
REMARK UNBOUND:                -0.849
REMARK  Name = 
REMARK  5 active torsions:
REMARK  status: ('A' for Active; 'I' for Inactive)
REMARK    1  A    between atoms: C_2  and  C_4
REMARK    2  A    between atoms: C_7  and  S_8
REMARK    3  A    between atoms: S_8  and  C_9
REMARK    4  A    between atoms: C_9  and  C_10
REMARK    5  A    between atoms: C_14  and  C_15
REMARK                            x       y       z     vdW  Elec       q    Type
REMARK                         _______ _______ _______ _____ _____    ______ ____
ROOT
ATOM      1  C   UNL     1      44.542   3.854  12.578  0.00  0.00    +0.000 C 
ENDROOT
BRANCH   1   2
ATOM      2  C   UNL     1      45.388   5.091  12.746  0.00  0.00    +0.000 A 
ATOM      3  C   UNL     1      46.679   5.001  13.278  0.00  0.00    +0.000 A 
ATOM      4  C   UNL     1      47.450   6.149  13.439  0.00  0.00    +0.000 A 
ATOM      5  C   UNL     1      46.950   7.392  13.043  0.00  0.00    +0.000 A 
ATOM      6  C   UNL     1      45.681   7.520  12.452  0.00  0.00    +0.000 A 
ATOM      7  C   UNL     1      44.907   6.348  12.336  0.00  0.00    +0.000 A 
BRANCH   6   8
ATOM      8  C   UNL     1      45.208   8.811  11.892  0.00  0.00    +0.000 A 
ATOM      9  C   UNL     1      45.919  10.002  12.128  0.00  0.00    +0.000 A 
ATOM     10  C   UNL     1      45.553  11.209  11.523  0.00  0.00    +0.000 A 
ATOM     11  C   UNL     1      44.464  11.252  10.660  0.00  0.00    +0.000 A 
ATOM     12  C   UNL     1      43.726  10.096  10.427  0.00  0.00    +0.000 A 
ATOM     13  C   UNL     1      44.088   8.893  11.045  0.00  0.00    +0.000 A 
ENDBRANCH   6   8
ENDBRANCH   1   2
BRANCH   1  14
ATOM     14  S   UNL     1      43.509   3.939  11.079  0.00  0.00    +0.000 S 
BRANCH  14  18
ATOM     15  C   UNL     1      46.475   2.904   7.706  0.00  0.00    +0.000 A 
ATOM     16  C   UNL     1      46.209   4.251   7.978  0.00  0.00    +0.000 A 
ATOM     17  C   UNL     1      45.312   4.599   8.995  0.00  0.00    +0.000 A 
ATOM     18  C   UNL     1      44.665   3.615   9.751  0.00  0.00    +0.000 A 
ATOM     19  C   UNL     1      44.929   2.269   9.460  0.00  0.00    +0.000 A 
ATOM     20  C   UNL     1      45.820   1.911   8.442  0.00  0.00    +0.000 A 
BRANCH  15  22
ATOM     21  N   UNL     1      47.273   3.076   5.413  0.00  0.00    +0.000 N 
ATOM     22  C   UNL     1      47.424   2.492   6.640  0.00  0.00    +0.000 C 
ATOM     23  O   UNL     1      48.330   1.699   6.854  0.00  0.00    +0.000 OA
ATOM     24  H   UNL     1      47.997   2.875   4.734  0.00  0.00    +0.000 HD
ATOM     25  H   UNL     1      46.724   3.911   5.277  0.00  0.00    +0.000 HD
ENDBRANCH  15  22
ENDBRANCH  14  18
ENDBRANCH   1  14
TORSDOF 5
ENDMDL
MODEL 4
REMARK VINA RESULT:    -7.692      3.769      7.795
REMARK INTER + INTRA:         -10.790
REMARK INTER:                  -9.958
REMARK INTRA:                  -0.832
REMARK UNBOUND:                -0.849
REMARK  Name = 
REMARK  5 active torsions:
REMARK  status: ('A' for Active; 'I' for Inactive)
REMARK    1  A    between atoms: C_2  and  C_4
REMARK    2  A    between atoms: C_7  and  S_8
REMARK    3  A    between atoms: S_8  and  C_9
REMARK    4  A    between atoms: C_9  and  C_10
REMARK    5  A    between atoms: C_14  and  C_15
REMARK                            x       y       z     vdW  Elec       q    Type
REMARK                         _______ _______ _______ _____ _____    ______ ____
ROOT
ATOM      1  C   UNL     1      45.924   7.586  11.873  0.00  0.00    +0.000 C 
ENDROOT
BRANCH   1   2
ATOM      2  C   UNL     1      45.116   6.434  11.329  0.00  0.00    +0.000 A 
ATOM      3  C   UNL     1      43.769   6.285  11.676  0.00  0.00    +0.000 A 
ATOM      4  C   UNL     1      43.033   5.214  11.176  0.00  0.00    +0.000 A 
ATOM      5  C   UNL     1      43.629   4.299  10.304  0.00  0.00    +0.000 A 
ATOM      6  C   UNL     1      44.962   4.444   9.885  0.00  0.00    +0.000 A 
ATOM      7  C   UNL     1      45.695   5.515  10.435  0.00  0.00    +0.000 A 
BRANCH   6   8
ATOM      8  C   UNL     1      45.551   3.566   8.842  0.00  0.00    +0.000 A 
ATOM      9  C   UNL     1      46.215   4.115   7.729  0.00  0.00    +0.000 A 
ATOM     10  C   UNL     1      46.868   3.309   6.791  0.00  0.00    +0.000 A 
ATOM     11  C   UNL     1      46.876   1.927   6.948  0.00  0.00    +0.000 A 
ATOM     12  C   UNL     1      46.206   1.354   8.024  0.00  0.00    +0.000 A 
ATOM     13  C   UNL     1      45.542   2.164   8.953  0.00  0.00    +0.000 A 
ENDBRANCH   6   8
ENDBRANCH   1   2
BRANCH   1  14
ATOM     14  S   UNL     1      47.660   7.116  12.169  0.00  0.00    +0.000 S 
BRANCH  14  18
ATOM     15  C   UNL     1      47.541   4.435  15.917  0.00  0.00    +0.000 A 
ATOM     16  C   UNL     1      46.915   3.986  14.748  0.00  0.00    +0.000 A 
ATOM     17  C   UNL     1      46.933   4.776  13.593  0.00  0.00    +0.000 A 
ATOM     18  C   UNL     1      47.565   6.025  13.585  0.00  0.00    +0.000 A 
ATOM     19  C   UNL     1      48.176   6.470  14.766  0.00  0.00    +0.000 A 
ATOM     20  C   UNL     1      48.160   5.689  15.927  0.00  0.00    +0.000 A 
BRANCH  15  22
ATOM     21  N   UNL     1      48.675   3.693  17.938  0.00  0.00    +0.000 N 
ATOM     22  C   UNL     1      47.551   3.625  17.163  0.00  0.00    +0.000 C 
ATOM     23  O   UNL     1      46.585   2.960  17.508  0.00  0.00    +0.000 OA
ATOM     24  H   UNL     1      48.621   3.232  18.838  0.00  0.00    +0.000 HD
ATOM     25  H   UNL     1      49.365   4.420  17.827  0.00  0.00    +0.000 HD
ENDBRANCH  15  22
ENDBRANCH  14  18
ENDBRANCH   1  14
TORSDOF 5
ENDMDL
MODEL 5
REMARK VINA RESULT:    -7.052      2.702      3.653
REMARK INTER + INTRA:          -9.963
REMARK INTER:                  -9.096
REMARK INTRA:                  -0.867
REMARK UNBOUND:                -0.849
REMARK  Name = 
REMARK  5 active torsions:
REMARK  status: ('A' for Active; 'I' for Inactive)
REMARK    1  A    between atoms: C_2  and  C_4
REMARK    2  A    between atoms: C_7  and  S_8
REMARK    3  A    between atoms: S_8  and  C_9
REMARK    4  A    between atoms: C_9  and  C_10
REMARK    5  A    between atoms: C_14  and  C_15
REMARK                            x       y       z     vdW  Elec       q    Type
REMARK                         _______ _______ _______ _____ _____    ______ ____
ROOT
ATOM      1  C   UNL     1      45.033   4.543  12.210  0.00  0.00    +0.000 C 
ENDROOT
BRANCH   1   2
ATOM      2  C   UNL     1      45.506   5.972  12.105  0.00  0.00    +0.000 A 
ATOM      3  C   UNL     1      44.589   7.010  11.908  0.00  0.00    +0.000 A 
ATOM      4  C   UNL     1      45.035   8.325  11.803  0.00  0.00    +0.000 A 
ATOM      5  C   UNL     1      46.397   8.616  11.922  0.00  0.00    +0.000 A 
ATOM      6  C   UNL     1      47.344   7.610  12.176  0.00  0.00    +0.000 A 
ATOM      7  C   UNL     1      46.870   6.284  12.240  0.00  0.00    +0.000 A 
BRANCH   6   8
ATOM      8  C   UNL     1      48.766   7.932  12.455  0.00  0.00    +0.000 A 
ATOM      9  C   UNL     1      49.257   7.945  13.775  0.00  0.00    +0.000 A 
ATOM     10  C   UNL     1      50.613   8.141  14.053  0.00  0.00    +0.000 A 
ATOM     11  C   UNL     1      51.517   8.324  13.012  0.00  0.00    +0.000 A 
ATOM     12  C   UNL     1      51.058   8.342  11.699  0.00  0.00    +0.000 A 
ATOM     13  C   UNL     1      49.698   8.159  11.425  0.00  0.00    +0.000 A 
ENDBRANCH   6   8
ENDBRANCH   1   2
BRANCH   1  14
ATOM     14  S   UNL     1      43.850   4.123  10.889  0.00  0.00    +0.000 S 
BRANCH  14  18
ATOM     15  C   UNL     1      46.545   2.654   7.450  0.00  0.00    +0.000 A 
ATOM     16  C   UNL     1      46.293   4.025   7.568  0.00  0.00    +0.000 A 
ATOM     17  C   UNL     1      45.479   4.504   8.601  0.00  0.00    +0.000 A 
ATOM     18  C   UNL     1      44.898   3.628   9.525  0.00  0.00    +0.000 A 
ATOM     19  C   UNL     1      45.146   2.254   9.387  0.00  0.00    +0.000 A 
ATOM     20  C   UNL     1      45.956   1.766   8.356  0.00  0.00    +0.000 A 
BRANCH  15  22
ATOM     21  N   UNL     1      46.898   2.109   5.105  0.00  0.00    +0.000 N 
ATOM     22  C   UNL     1      47.408   2.104   6.373  0.00  0.00    +0.000 C 
ATOM     23  O   UNL     1      48.543   1.705   6.596  0.00  0.00    +0.000 OA
ATOM     24  H   UNL     1      47.540   1.843   4.367  0.00  0.00    +0.000 HD
ATOM     25  H   UNL     1      46.096   2.663   4.847  0.00  0.00    +0.000 HD
ENDBRANCH  15  22
ENDBRANCH  14  18
ENDBRANCH   1  14
TORSDOF 5
ENDMDL
MODEL 6
REMARK VINA RESULT:    -7.039      3.905      7.847
REMARK INTER + INTRA:          -9.946
REMARK INTER:                  -9.202
REMARK INTRA:                  -0.744
REMARK UNBOUND:                -0.849
REMARK  Name = 
REMARK  5 active torsions:
REMARK  status: ('A' for Active; 'I' for Inactive)
REMARK    1  A    between atoms: C_2  and  C_4
REMARK    2  A    between atoms: C_7  and  S_8
REMARK    3  A    between atoms: S_8  and  C_9
REMARK    4  A    between atoms: C_9  and  C_10
REMARK    5  A    between atoms: C_14  and  C_15
REMARK                            x       y       z     vdW  Elec       q    Type
REMARK                         _______ _______ _______ _____ _____    ______ ____
ROOT
ATOM      1  C   UNL     1      44.919   6.446  11.143  0.00  0.00    +0.000 C 
ENDROOT
BRANCH   1   2
ATOM      2  C   UNL     1      44.718   5.013  10.717  0.00  0.00    +0.000 A 
ATOM      3  C   UNL     1      43.767   4.210  11.356  0.00  0.00    +0.000 A 
ATOM      4  C   UNL     1      43.594   2.885  10.963  0.00  0.00    +0.000 A 
ATOM      5  C   UNL     1      44.350   2.360   9.912  0.00  0.00    +0.000 A 
ATOM      6  C   UNL     1      45.276   3.148   9.207  0.00  0.00    +0.000 A 
ATOM      7  C   UNL     1      45.458   4.474   9.650  0.00  0.00    +0.000 A 
BRANCH   6   8
ATOM      8  C   UNL     1      45.968   2.641   7.995  0.00  0.00    +0.000 A 
ATOM      9  C   UNL     1      46.160   3.471   6.875  0.00  0.00    +0.000 A 
ATOM     10  C   UNL     1      46.900   3.049   5.766  0.00  0.00    +0.000 A 
ATOM     11  C   UNL     1      47.473   1.782   5.754  0.00  0.00    +0.000 A 
ATOM     12  C   UNL     1      47.279   0.930   6.836  0.00  0.00    +0.000 A 
ATOM     13  C   UNL     1      46.526   1.351   7.938  0.00  0.00    +0.000 A 
ENDBRANCH   6   8
ENDBRANCH   1   2
BRANCH   1  14
ATOM     14  S   UNL     1      45.368   6.573  12.904  0.00  0.00    +0.000 S 
BRANCH  14  18
ATOM     15  C   UNL     1      49.774   7.896  12.609  0.00  0.00    +0.000 A 
ATOM     16  C   UNL     1      49.338   7.268  13.781  0.00  0.00    +0.000 A 
ATOM     17  C   UNL     1      48.006   6.854  13.903  0.00  0.00    +0.000 A 
ATOM     18  C   UNL     1      47.089   7.065  12.866  0.00  0.00    +0.000 A 
ATOM     19  C   UNL     1      47.535   7.709  11.703  0.00  0.00    +0.000 A 
ATOM     20  C   UNL     1      48.863   8.130  11.574  0.00  0.00    +0.000 A 
BRANCH  15  22
ATOM     21  N   UNL     1      51.954   7.640  11.558  0.00  0.00    +0.000 N 
ATOM     22  C   UNL     1      51.180   8.345  12.436  0.00  0.00    +0.000 C 
ATOM     23  O   UNL     1      51.619   9.328  13.017  0.00  0.00    +0.000 OA
ATOM     24  H   UNL     1      52.869   8.028  11.362  0.00  0.00    +0.000 HD
ATOM     25  H   UNL     1      51.560   7.008  10.877  0.00  0.00    +0.000 HD
ENDBRANCH  15  22
ENDBRANCH  14  18
ENDBRANCH   1  14
TORSDOF 5
ENDMDL
MODEL 7
REMARK VINA RESULT:    -6.582      4.084      7.909
REMARK INTER + INTRA:          -9.356
REMARK INTER:                  -8.761
REMARK INTRA:                  -0.594
REMARK UNBOUND:                -0.849
REMARK  Name = 
REMARK  5 active torsions:
REMARK  status: ('A' for Active; 'I' for Inactive)
REMARK    1  A    between atoms: C_2  and  C_4
REMARK    2  A    between atoms: C_7  and  S_8
REMARK    3  A    between atoms: S_8  and  C_9
REMARK    4  A    between atoms: C_9  and  C_10
REMARK    5  A    between atoms: C_14  and  C_15
REMARK                            x       y       z     vdW  Elec       q    Type
REMARK                         _______ _______ _______ _____ _____    ______ ____
ROOT
ATOM      1  C   UNL     1      48.795   7.882  12.533  0.00  0.00    +0.000 C 
ENDROOT
BRANCH   1   2
ATOM      2  C   UNL     1      47.352   7.671  12.145  0.00  0.00    +0.000 A 
ATOM      3  C   UNL     1      46.395   8.656  12.410  0.00  0.00    +0.000 A 
ATOM      4  C   UNL     1      45.064   8.450  12.057  0.00  0.00    +0.000 A 
ATOM      5  C   UNL     1      44.683   7.270  11.412  0.00  0.00    +0.000 A 
ATOM      6  C   UNL     1      45.623   6.280  11.076  0.00  0.00    +0.000 A 
ATOM      7  C   UNL     1      46.956   6.498  11.479  0.00  0.00    +0.000 A 
BRANCH   6   8
ATOM      8  C   UNL     1      45.251   5.099  10.257  0.00  0.00    +0.000 A 
ATOM      9  C   UNL     1      45.695   4.976   8.927  0.00  0.00    +0.000 A 
ATOM     10  C   UNL     1      45.446   3.825   8.173  0.00  0.00    +0.000 A 
ATOM     11  C   UNL     1      44.747   2.763   8.735  0.00  0.00    +0.000 A 
ATOM     12  C   UNL     1      44.272   2.866  10.039  0.00  0.00    +0.000 A 
ATOM     13  C   UNL     1      44.512   4.024  10.786  0.00  0.00    +0.000 A 
ENDBRANCH   6   8
ENDBRANCH   1   2
BRANCH   1  14
ATOM     14  S   UNL     1      48.962   8.360  14.283  0.00  0.00    +0.000 S 
BRANCH  14  18
ATOM     15  C   UNL     1      47.966   4.581  16.727  0.00  0.00    +0.000 A 
ATOM     16  C   UNL     1      47.477   4.685  15.420  0.00  0.00    +0.000 A 
ATOM     17  C   UNL     1      47.761   5.820  14.651  0.00  0.00    +0.000 A 
ATOM     18  C   UNL     1      48.528   6.869  15.172  0.00  0.00    +0.000 A 
ATOM     19  C   UNL     1      49.000   6.759  16.488  0.00  0.00    +0.000 A 
ATOM     20  C   UNL     1      48.718   5.630  17.266  0.00  0.00    +0.000 A 
BRANCH  15  22
ATOM     21  N   UNL     1      48.659   3.035  18.473  0.00  0.00    +0.000 N 
ATOM     22  C   UNL     1      47.693   3.392  17.574  0.00  0.00    +0.000 C 
ATOM     23  O   UNL     1      46.636   2.781  17.508  0.00  0.00    +0.000 OA
ATOM     24  H   UNL     1      48.410   2.298  19.123  0.00  0.00    +0.000 HD
ATOM     25  H   UNL     1      49.407   3.657  18.739  0.00  0.00    +0.000 HD
ENDBRANCH  15  22
ENDBRANCH  14  18
ENDBRANCH   1  14
TORSDOF 5
ENDMDL
MODEL 8
REMARK VINA RESULT:    -6.469      4.177      7.550
REMARK INTER + INTRA:          -9.209
REMARK INTER:                  -8.390
REMARK INTRA:                  -0.820
REMARK UNBOUND:                -0.849
REMARK  Name = 
REMARK  5 active torsions:
REMARK  status: ('A' for Active; 'I' for Inactive)
REMARK    1  A    between atoms: C_2  and  C_4
REMARK    2  A    between atoms: C_7  and  S_8
REMARK    3  A    between atoms: S_8  and  C_9
REMARK    4  A    between atoms: C_9  and  C_10
REMARK    5  A    between atoms: C_14  and  C_15
REMARK                            x       y       z     vdW  Elec       q    Type
REMARK                         _______ _______ _______ _____ _____    ______ ____
ROOT
ATOM      1  C   UNL     1      46.142   6.615  13.070  0.00  0.00    +0.000 C 
ENDROOT
BRANCH   1   2
ATOM      2  C   UNL     1      45.212   5.906  12.117  0.00  0.00    +0.000 A 
ATOM      3  C   UNL     1      43.831   6.123  12.180  0.00  0.00    +0.000 A 
ATOM      4  C   UNL     1      42.978   5.459  11.303  0.00  0.00    +0.000 A 
ATOM      5  C   UNL     1      43.500   4.594  10.337  0.00  0.00    +0.000 A 
ATOM      6  C   UNL     1      44.884   4.391  10.202  0.00  0.00    +0.000 A 
ATOM      7  C   UNL     1      45.721   5.047  11.127  0.00  0.00    +0.000 A 
BRANCH   6   8
ATOM      8  C   UNL     1      45.450   3.596   9.083  0.00  0.00    +0.000 A 
ATOM      9  C   UNL     1      46.027   4.232   7.967  0.00  0.00    +0.000 A 
ATOM     10  C   UNL     1      46.659   3.505   6.954  0.00  0.00    +0.000 A 
ATOM     11  C   UNL     1      46.734   2.119   7.034  0.00  0.00    +0.000 A 
ATOM     12  C   UNL     1      46.150   1.461   8.112  0.00  0.00    +0.000 A 
ATOM     13  C   UNL     1      45.506   2.191   9.117  0.00  0.00    +0.000 A 
ENDBRANCH   6   8
ENDBRANCH   1   2
BRANCH   1  14
ATOM     14  S   UNL     1      46.207   8.407  12.745  0.00  0.00    +0.000 S 
BRANCH  14  18
ATOM     15  C   UNL     1      50.544   8.881  11.258  0.00  0.00    +0.000 A 
ATOM     16  C   UNL     1      49.742  10.022  11.367  0.00  0.00    +0.000 A 
ATOM     17  C   UNL     1      48.420   9.913  11.815  0.00  0.00    +0.000 A 
ATOM     18  C   UNL     1      47.876   8.669  12.154  0.00  0.00    +0.000 A 
ATOM     19  C   UNL     1      48.685   7.530  12.026  0.00  0.00    +0.000 A 
ATOM     20  C   UNL     1      50.006   7.629  11.575  0.00  0.00    +0.000 A 
BRANCH  15  22
ATOM     21  N   UNL     1      52.739   9.928  11.341  0.00  0.00    +0.000 N 
ATOM     22  C   UNL     1      51.953   8.953  10.793  0.00  0.00    +0.000 C 
ATOM     23  O   UNL     1      52.410   8.152   9.989  0.00  0.00    +0.000 OA
ATOM     24  H   UNL     1      53.723   9.890  11.104  0.00  0.00    +0.000 HD
ATOM     25  H   UNL     1      52.481  10.421  12.183  0.00  0.00    +0.000 HD
ENDBRANCH  15  22
ENDBRANCH  14  18
ENDBRANCH   1  14
TORSDOF 5
ENDMDL
MODEL 9
REMARK VINA RESULT:    -6.411      4.877      8.012
REMARK INTER + INTRA:          -9.134
REMARK INTER:                  -8.361
REMARK INTRA:                  -0.774
REMARK UNBOUND:                -0.849
REMARK  Name = 
REMARK  5 active torsions:
REMARK  status: ('A' for Active; 'I' for Inactive)
REMARK    1  A    between atoms: C_2  and  C_4
REMARK    2  A    between atoms: C_7  and  S_8
REMARK    3  A    between atoms: S_8  and  C_9
REMARK    4  A    between atoms: C_9  and  C_10
REMARK    5  A    between atoms: C_14  and  C_15
REMARK                            x       y       z     vdW  Elec       q    Type
REMARK                         _______ _______ _______ _____ _____    ______ ____
ROOT
ATOM      1  C   UNL     1      49.004   6.758  15.749  0.00  0.00    +0.000 C 
ENDROOT
BRANCH   1   2
ATOM      2  C   UNL     1      48.483   6.803  14.334  0.00  0.00    +0.000 A 
ATOM      3  C   UNL     1      49.209   7.456  13.331  0.00  0.00    +0.000 A 
ATOM      4  C   UNL     1      48.717   7.500  12.030  0.00  0.00    +0.000 A 
ATOM      5  C   UNL     1      47.511   6.869  11.712  0.00  0.00    +0.000 A 
ATOM      6  C   UNL     1      46.780   6.155  12.677  0.00  0.00    +0.000 A 
ATOM      7  C   UNL     1      47.281   6.158  13.994  0.00  0.00    +0.000 A 
BRANCH   6   8
ATOM      8  C   UNL     1      45.582   5.357  12.312  0.00  0.00    +0.000 A 
ATOM      9  C   UNL     1      44.549   5.919  11.538  0.00  0.00    +0.000 A 
ATOM     10  C   UNL     1      43.465   5.156  11.095  0.00  0.00    +0.000 A 
ATOM     11  C   UNL     1      43.389   3.805  11.412  0.00  0.00    +0.000 A 
ATOM     12  C   UNL     1      44.381   3.227  12.198  0.00  0.00    +0.000 A 
ATOM     13  C   UNL     1      45.458   3.997  12.651  0.00  0.00    +0.000 A 
ENDBRANCH   6   8
ENDBRANCH   1   2
BRANCH   1  14
ATOM     14  S   UNL     1      48.060   5.589  16.781  0.00  0.00    +0.000 S 
BRANCH  14  18
ATOM     15  C   UNL     1      51.139   2.223  17.443  0.00  0.00    +0.000 A 
ATOM     16  C   UNL     1      49.848   1.881  17.025  0.00  0.00    +0.000 A 
ATOM     17  C   UNL     1      48.889   2.879  16.816  0.00  0.00    +0.000 A 
ATOM     18  C   UNL     1      49.198   4.229  17.024  0.00  0.00    +0.000 A 
ATOM     19  C   UNL     1      50.491   4.557  17.456  0.00  0.00    +0.000 A 
ATOM     20  C   UNL     1      51.455   3.566  17.673  0.00  0.00    +0.000 A 
BRANCH  15  22
ATOM     21  N   UNL     1      51.787   0.008  18.215  0.00  0.00    +0.000 N 
ATOM     22  C   UNL     1      52.189   1.196  17.671  0.00  0.00    +0.000 C 
ATOM     23  O   UNL     1      53.353   1.381  17.348  0.00  0.00    +0.000 OA
ATOM     24  H   UNL     1      52.489  -0.721  18.253  0.00  0.00    +0.000 HD
ATOM     25  H   UNL     1      50.819  -0.274  18.243  0.00  0.00    +0.000 HD
ENDBRANCH  15  22
ENDBRANCH  14  18
ENDBRANCH   1  14
TORSDOF 5
ENDMDL
