MODEL 1
REMARK VINA RESULT:    -8.375      0.000      0.000
REMARK INTER + INTRA:         -13.513
REMARK INTER:                 -12.047
REMARK INTRA:                  -1.466
REMARK UNBOUND:                -1.466
REMARK  Name = 
REMARK  9 active torsions:
REMARK  status: ('A' for Active; 'I' for Inactive)
REMARK    1  A    between atoms: C_1  and  N_2
REMARK    2  A    between atoms: C_4  and  C_5
REMARK    3  A    between atoms: N_7  and  C_8
REMARK    4  A    between atoms: C_8  and  C_9
REMARK    5  A    between atoms: C_12  and  C_13
REMARK    6  A    between atoms: C_13  and  C_14
REMARK    7  A    between atoms: C_14  and  C_15
REMARK    8  A    between atoms: C_15  and  C_16
REMARK    9  A    between atoms: C_25  and  O_26
REMARK                            x       y       z     vdW  Elec       q    Type
REMARK                         _______ _______ _______ _____ _____    ______ ____
ROOT
ATOM      1  C   UNL     1      48.751   6.940  14.582  0.00  0.00    +0.000 C 
ATOM      2  O   UNL     1      49.566   6.894  13.666  0.00  0.00    +0.000 OA
ATOM      3  N   UNL     1      47.510   7.508  14.454  0.00  0.00    +0.000 N 
ATOM      4  H   UNL     1      46.876   7.542  15.237  0.00  0.00    +0.000 HD
ENDROOT
BRANCH   1   8
ATOM      5  C   UNL     1      50.839   6.074  19.049  0.00  0.00    +0.000 C 
ATOM      6  N   UNL     1      49.976   5.979  17.894  0.00  0.00    +0.000 N 
ATOM      7  C   UNL     1      50.050   6.773  16.778  0.00  0.00    +0.000 A 
ATOM      8  C   UNL     1      49.056   6.379  15.893  0.00  0.00    +0.000 A 
ATOM      9  C   UNL     1      48.358   5.295  16.519  0.00  0.00    +0.000 A 
ATOM     10  C   UNL     1      47.284   4.451  16.214  0.00  0.00    +0.000 A 
ATOM     11  N   UNL     1      46.888   3.509  17.087  0.00  0.00    +0.000 NA
ATOM     12  C   UNL     1      47.561   3.414  18.246  0.00  0.00    +0.000 A 
ATOM     13  N   UNL     1      48.603   4.153  18.664  0.00  0.00    +0.000 NA
ATOM     14  C   UNL     1      48.955   5.079  17.755  0.00  0.00    +0.000 A 
BRANCH  10  15
ATOM     15  O   UNL     1      46.563   4.506  15.046  0.00  0.00    +0.000 OA
ATOM     16  H   UNL     1      46.887   5.274  14.532  0.00  0.00    +0.000 HD
ENDBRANCH  10  15
ENDBRANCH   1   8
BRANCH   3  17
ATOM     17  C   UNL     1      47.094   8.100  13.207  0.00  0.00    +0.000 C 
BRANCH  17  18
ATOM     18  C   UNL     1      46.221   7.161  12.427  0.00  0.00    +0.000 A 
ATOM     19  C   UNL     1      46.645   6.681  11.183  0.00  0.00    +0.000 A 
ATOM     20  C   UNL     1      45.846   5.804  10.448  0.00  0.00    +0.000 A 
ATOM     21  C   UNL     1      44.601   5.391  10.944  0.00  0.00    +0.000 A 
ATOM     22  C   UNL     1      44.169   5.889  12.178  0.00  0.00    +0.000 A 
ATOM     23  C   UNL     1      44.967   6.770  12.911  0.00  0.00    +0.000 A 
BRANCH  21  24
ATOM     24  C   UNL     1      43.726   4.424  10.178  0.00  0.00    +0.000 C 
BRANCH  24  25
ATOM     25  C   UNL     1      44.382   3.961   8.876  0.00  0.00    +0.000 C 
BRANCH  25  26
ATOM     26  C   UNL     1      45.113   2.628   9.040  0.00  0.00    +0.000 C 
BRANCH  26  27
ATOM     27  C   UNL     1      46.005   2.350   7.853  0.00  0.00    +0.000 A 
ATOM     28  C   UNL     1      46.673   1.125   7.717  0.00  0.00    +0.000 A 
ATOM     29  C   UNL     1      47.512   0.895   6.622  0.00  0.00    +0.000 A 
ATOM     30  C   UNL     1      47.695   1.888   5.662  0.00  0.00    +0.000 A 
ATOM     31  C   UNL     1      47.044   3.113   5.794  0.00  0.00    +0.000 A 
ATOM     32  C   UNL     1      46.207   3.343   6.886  0.00  0.00    +0.000 A 
ENDBRANCH  26  27
ENDBRANCH  25  26
ENDBRANCH  24  25
ENDBRANCH  21  24
ENDBRANCH  17  18
ENDBRANCH   3  17
TORSDOF 8
ENDMDL
MODEL 2
REMARK VINA RESULT:    -7.842      1.603      1.967
REMARK INTER + INTRA:         -12.747
REMARK INTER:                 -11.431
REMARK INTRA:                  -1.316
REMARK UNBOUND:                -1.466
REMARK  Name = 
REMARK  9 active torsions:
REMARK  status: ('A' for Active; 'I' for Inactive)
REMARK    1  A    between atoms: C_1  and  N_2
REMARK    2  A    between atoms: C_4  and  C_5
REMARK    3  A    between atoms: N_7  and  C_8
REMARK    4  A    between atoms: C_8  and  C_9
REMARK    5  A    between atoms: C_12  and  C_13
REMARK    6  A    between atoms: C_13  and  C_14
REMARK    7  A    between atoms: C_14  and  C_15
REMARK    8  A    between atoms: C_15  and  C_16
REMARK    9  A    between atoms: C_25  and  O_26
REMARK                            x       y       z     vdW  Elec       q    Type
REMARK                         _______ _______ _______ _____ _____    ______ ____
ROOT
ATOM      1  C   UNL     1      49.177   7.018  15.535  0.00  0.00    +0.000 C 
ATOM      2  O   UNL     1      50.329   6.987  15.114  0.00  0.00    +0.000 OA
ATOM      3  N   UNL     1      48.077   6.964  14.718  0.00  0.00    +0.000 N 
ATOM      4  H   UNL     1      47.146   7.011  15.101  0.00  0.00    +0.000 HD
ENDROOT
BRANCH   1   8
ATOM      5  C   UNL     1      48.095   8.784  20.093  0.00  0.00    +0.000 C 
ATOM      6  N   UNL     1      48.411   7.884  19.008  0.00  0.00    +0.000 N 
ATOM      7  C   UNL     1      48.620   8.254  17.703  0.00  0.00    +0.000 A 
ATOM      8  C   UNL     1      48.896   7.112  16.963  0.00  0.00    +0.000 A 
ATOM      9  C   UNL     1      48.847   6.010  17.878  0.00  0.00    +0.000 A 
ATOM     10  C   UNL     1      49.015   4.621  17.825  0.00  0.00    +0.000 A 
ATOM     11  N   UNL     1      48.881   3.877  18.936  0.00  0.00    +0.000 NA
ATOM     12  C   UNL     1      48.586   4.515  20.080  0.00  0.00    +0.000 A 
ATOM     13  N   UNL     1      48.399   5.832  20.272  0.00  0.00    +0.000 NA
ATOM     14  C   UNL     1      48.542   6.528  19.131  0.00  0.00    +0.000 A 
BRANCH  10  15
ATOM     15  O   UNL     1      49.317   3.921  16.683  0.00  0.00    +0.000 OA
ATOM     16  H   UNL     1      49.206   2.968  16.879  0.00  0.00    +0.000 HD
ENDBRANCH  10  15
ENDBRANCH   1   8
BRANCH   3  17
ATOM     17  C   UNL     1      48.226   6.874  13.286  0.00  0.00    +0.000 C 
BRANCH  17  18
ATOM     18  C   UNL     1      47.074   6.137  12.668  0.00  0.00    +0.000 A 
ATOM     19  C   UNL     1      46.640   6.470  11.379  0.00  0.00    +0.000 A 
ATOM     20  C   UNL     1      45.573   5.790  10.789  0.00  0.00    +0.000 A 
ATOM     21  C   UNL     1      44.914   4.764  11.481  0.00  0.00    +0.000 A 
ATOM     22  C   UNL     1      45.335   4.447  12.777  0.00  0.00    +0.000 A 
ATOM     23  C   UNL     1      46.401   5.130  13.369  0.00  0.00    +0.000 A 
BRANCH  21  24
ATOM     24  C   UNL     1      43.770   3.997  10.857  0.00  0.00    +0.000 C 
BRANCH  24  25
ATOM     25  C   UNL     1      44.100   3.524   9.440  0.00  0.00    +0.000 C 
BRANCH  25  26
ATOM     26  C   UNL     1      45.057   2.332   9.436  0.00  0.00    +0.000 C 
BRANCH  26  27
ATOM     27  C   UNL     1      45.903   2.318   8.186  0.00  0.00    +0.000 A 
ATOM     28  C   UNL     1      45.957   3.429   7.332  0.00  0.00    +0.000 A 
ATOM     29  C   UNL     1      46.729   3.388   6.168  0.00  0.00    +0.000 A 
ATOM     30  C   UNL     1      47.445   2.237   5.843  0.00  0.00    +0.000 A 
ATOM     31  C   UNL     1      47.388   1.124   6.680  0.00  0.00    +0.000 A 
ATOM     32  C   UNL     1      46.619   1.164   7.843  0.00  0.00    +0.000 A 
ENDBRANCH  26  27
ENDBRANCH  25  26
ENDBRANCH  24  25
ENDBRANCH  21  24
ENDBRANCH  17  18
ENDBRANCH   3  17
TORSDOF 8
ENDMDL
MODEL 3
REMARK VINA RESULT:    -7.832      2.054      2.664
REMARK INTER + INTRA:         -12.732
REMARK INTER:                 -11.304
REMARK INTRA:                  -1.428
REMARK UNBOUND:                -1.466
REMARK  Name = 
REMARK  9 active torsions:
REMARK  status: ('A' for Active; 'I' for Inactive)
REMARK    1  A    between atoms: C_1  and  N_2
REMARK    2  A    between atoms: C_4  and  C_5
REMARK    3  A    between atoms: N_7  and  C_8
REMARK    4  A    between atoms: C_8  and  C_9
REMARK    5  A    between atoms: C_12  and  C_13
REMARK    6  A    between atoms: C_13  and  C_14
REMARK    7  A    between atoms: C_14  and  C_15
REMARK    8  A    between atoms: C_15  and  C_16
REMARK    9  A    between atoms: C_25  and  O_26
REMARK                            x       y       z     vdW  Elec       q    Type
REMARK                         _______ _______ _______ _____ _____    ______ ____
ROOT
ATOM      1  C   UNL     1      49.253   6.765  15.703  0.00  0.00    +0.000 C 
ATOM      2  O   UNL     1      50.367   6.853  15.196  0.00  0.00    +0.000 OA
ATOM      3  N   UNL     1      48.093   6.780  14.972  0.00  0.00    +0.000 N 
ATOM      4  H   UNL     1      47.195   6.725  15.428  0.00  0.00    +0.000 HD
ENDROOT
BRANCH   1   8
ATOM      5  C   UNL     1      49.415   5.035  20.398  0.00  0.00    +0.000 C 
ATOM      6  N   UNL     1      49.152   5.874  19.251  0.00  0.00    +0.000 N 
ATOM      7  C   UNL     1      49.509   5.587  17.958  0.00  0.00    +0.000 A 
ATOM      8  C   UNL     1      49.087   6.631  17.145  0.00  0.00    +0.000 A 
ATOM      9  C   UNL     1      48.446   7.583  18.004  0.00  0.00    +0.000 A 
ATOM     10  C   UNL     1      47.813   8.825  17.870  0.00  0.00    +0.000 A 
ATOM     11  N   UNL     1      47.315   9.454  18.948  0.00  0.00    +0.000 NA
ATOM     12  C   UNL     1      47.447   8.847  20.138  0.00  0.00    +0.000 A 
ATOM     13  N   UNL     1      48.027   7.664  20.408  0.00  0.00    +0.000 NA
ATOM     14  C   UNL     1      48.509   7.080  19.298  0.00  0.00    +0.000 A 
BRANCH  10  15
ATOM     15  O   UNL     1      47.653   9.488  16.678  0.00  0.00    +0.000 OA
ATOM     16  H   UNL     1      47.386   8.829  16.004  0.00  0.00    +0.000 HD
ENDBRANCH  10  15
ENDBRANCH   1   8
BRANCH   3  17
ATOM     17  C   UNL     1      48.127   6.913  13.536  0.00  0.00    +0.000 C 
BRANCH  17  18
ATOM     18  C   UNL     1      46.992   6.165  12.898  0.00  0.00    +0.000 A 
ATOM     19  C   UNL     1      46.563   6.511  11.611  0.00  0.00    +0.000 A 
ATOM     20  C   UNL     1      45.512   5.822  11.003  0.00  0.00    +0.000 A 
ATOM     21  C   UNL     1      44.866   4.773  11.673  0.00  0.00    +0.000 A 
ATOM     22  C   UNL     1      45.283   4.444  12.967  0.00  0.00    +0.000 A 
ATOM     23  C   UNL     1      46.331   5.136  13.578  0.00  0.00    +0.000 A 
BRANCH  21  24
ATOM     24  C   UNL     1      43.740   3.997  11.028  0.00  0.00    +0.000 C 
BRANCH  24  25
ATOM     25  C   UNL     1      44.025   3.686   9.557  0.00  0.00    +0.000 C 
BRANCH  25  26
ATOM     26  C   UNL     1      44.685   2.319   9.373  0.00  0.00    +0.000 C 
BRANCH  26  27
ATOM     27  C   UNL     1      45.739   2.367   8.293  0.00  0.00    +0.000 A 
ATOM     28  C   UNL     1      45.976   3.538   7.559  0.00  0.00    +0.000 A 
ATOM     29  C   UNL     1      46.942   3.554   6.548  0.00  0.00    +0.000 A 
ATOM     30  C   UNL     1      47.671   2.403   6.258  0.00  0.00    +0.000 A 
ATOM     31  C   UNL     1      47.435   1.232   6.975  0.00  0.00    +0.000 A 
ATOM     32  C   UNL     1      46.472   1.214   7.985  0.00  0.00    +0.000 A 
ENDBRANCH  26  27
ENDBRANCH  25  26
ENDBRANCH  24  25
ENDBRANCH  21  24
ENDBRANCH  17  18
ENDBRANCH   3  17
TORSDOF 8
ENDMDL
MODEL 4
REMARK VINA RESULT:    -7.623      2.187      3.733
REMARK INTER + INTRA:         -12.431
REMARK INTER:                 -11.048
REMARK INTRA:                  -1.383
REMARK UNBOUND:                -1.466
REMARK  Name = 
REMARK  9 active torsions:
REMARK  status: ('A' for Active; 'I' for Inactive)
REMARK    1  A    between atoms: C_1  and  N_2
REMARK    2  A    between atoms: C_4  and  C_5
REMARK    3  A    between atoms: N_7  and  C_8
REMARK    4  A    between atoms: C_8  and  C_9
REMARK    5  A    between atoms: C_12  and  C_13
REMARK    6  A    between atoms: C_13  and  C_14
REMARK    7  A    between atoms: C_14  and  C_15
REMARK    8  A    between atoms: C_15  and  C_16
REMARK    9  A    between atoms: C_25  and  O_26
REMARK                            x       y       z     vdW  Elec       q    Type
REMARK                         _______ _______ _______ _____ _____    ______ ____
ROOT
ATOM      1  C   UNL     1      48.738   6.076  15.978  0.00  0.00    +0.000 C 
ATOM      2  O   UNL     1      49.166   5.167  16.682  0.00  0.00    +0.000 OA
ATOM      3  N   UNL     1      47.724   5.909  15.071  0.00  0.00    +0.000 N 
ATOM      4  H   UNL     1      47.413   6.678  14.498  0.00  0.00    +0.000 HD
ENDROOT
BRANCH   1   8
ATOM      5  C   UNL     1      50.258  10.522  17.707  0.00  0.00    +0.000 C 
ATOM      6  N   UNL     1      49.977   9.415  16.822  0.00  0.00    +0.000 N 
ATOM      7  C   UNL     1      49.388   8.232  17.190  0.00  0.00    +0.000 A 
ATOM      8  C   UNL     1      49.290   7.423  16.065  0.00  0.00    +0.000 A 
ATOM      9  C   UNL     1      49.849   8.168  14.977  0.00  0.00    +0.000 A 
ATOM     10  C   UNL     1      50.072   7.977  13.608  0.00  0.00    +0.000 A 
ATOM     11  N   UNL     1      50.653   8.940  12.872  0.00  0.00    +0.000 NA
ATOM     12  C   UNL     1      51.002  10.075  13.498  0.00  0.00    +0.000 A 
ATOM     13  N   UNL     1      50.848  10.389  14.796  0.00  0.00    +0.000 NA
ATOM     14  C   UNL     1      50.265   9.393  15.485  0.00  0.00    +0.000 A 
BRANCH  10  15
ATOM     15  O   UNL     1      49.735   6.837  12.920  0.00  0.00    +0.000 OA
ATOM     16  H   UNL     1      50.500   6.588  12.362  0.00  0.00    +0.000 HD
ENDBRANCH  10  15
ENDBRANCH   1   8
BRANCH   3  17
ATOM     17  C   UNL     1      47.100   4.621  14.890  0.00  0.00    +0.000 C 
BRANCH  17  18
ATOM     18  C   UNL     1      46.267   4.595  13.642  0.00  0.00    +0.000 A 
ATOM     19  C   UNL     1      45.959   3.373  13.032  0.00  0.00    +0.000 A 
ATOM     20  C   UNL     1      45.182   3.332  11.873  0.00  0.00    +0.000 A 
ATOM     21  C   UNL     1      44.699   4.516  11.298  0.00  0.00    +0.000 A 
ATOM     22  C   UNL     1      45.027   5.738  11.897  0.00  0.00    +0.000 A 
ATOM     23  C   UNL     1      45.808   5.779  13.054  0.00  0.00    +0.000 A 
BRANCH  21  24
ATOM     24  C   UNL     1      43.838   4.499  10.056  0.00  0.00    +0.000 C 
BRANCH  24  25
ATOM     25  C   UNL     1      44.377   3.536   8.995  0.00  0.00    +0.000 C 
BRANCH  25  26
ATOM     26  C   UNL     1      45.572   4.118   8.241  0.00  0.00    +0.000 C 
BRANCH  26  27
ATOM     27  C   UNL     1      46.254   3.061   7.405  0.00  0.00    +0.000 A 
ATOM     28  C   UNL     1      46.672   3.327   6.094  0.00  0.00    +0.000 A 
ATOM     29  C   UNL     1      47.281   2.328   5.330  0.00  0.00    +0.000 A 
ATOM     30  C   UNL     1      47.469   1.055   5.865  0.00  0.00    +0.000 A 
ATOM     31  C   UNL     1      47.047   0.778   7.164  0.00  0.00    +0.000 A 
ATOM     32  C   UNL     1      46.440   1.774   7.928  0.00  0.00    +0.000 A 
ENDBRANCH  26  27
ENDBRANCH  25  26
ENDBRANCH  24  25
ENDBRANCH  21  24
ENDBRANCH  17  18
ENDBRANCH   3  17
TORSDOF 8
ENDMDL
MODEL 5
REMARK VINA RESULT:    -7.341      3.420      9.717
REMARK INTER + INTRA:         -12.026
REMARK INTER:                  -9.731
REMARK INTRA:                  -2.295
REMARK UNBOUND:                -1.466
REMARK  Name = 
REMARK  9 active torsions:
REMARK  status: ('A' for Active; 'I' for Inactive)
REMARK    1  A    between atoms: C_1  and  N_2
REMARK    2  A    between atoms: C_4  and  C_5
REMARK    3  A    between atoms: N_7  and  C_8
REMARK    4  A    between atoms: C_8  and  C_9
REMARK    5  A    between atoms: C_12  and  C_13
REMARK    6  A    between atoms: C_13  and  C_14
REMARK    7  A    between atoms: C_14  and  C_15
REMARK    8  A    between atoms: C_15  and  C_16
REMARK    9  A    between atoms: C_25  and  O_26
REMARK                            x       y       z     vdW  Elec       q    Type
REMARK                         _______ _______ _______ _____ _____    ______ ____
ROOT
ATOM      1  C   UNL     1      46.796   4.128  14.394  0.00  0.00    +0.000 C 
ATOM      2  O   UNL     1      47.337   3.132  13.923  0.00  0.00    +0.000 OA
ATOM      3  N   UNL     1      46.761   4.398  15.738  0.00  0.00    +0.000 N 
ATOM      4  H   UNL     1      46.290   5.217  16.087  0.00  0.00    +0.000 HD
ENDROOT
BRANCH   1   8
ATOM      5  C   UNL     1      45.549   8.403  12.107  0.00  0.00    +0.000 C 
ATOM      6  N   UNL     1      45.575   7.014  12.503  0.00  0.00    +0.000 N 
ATOM      7  C   UNL     1      46.423   6.468  13.434  0.00  0.00    +0.000 A 
ATOM      8  C   UNL     1      46.145   5.112  13.537  0.00  0.00    +0.000 A 
ATOM      9  C   UNL     1      45.077   4.843  12.620  0.00  0.00    +0.000 A 
ATOM     10  C   UNL     1      44.325   3.733  12.214  0.00  0.00    +0.000 A 
ATOM     11  N   UNL     1      43.366   3.865  11.282  0.00  0.00    +0.000 NA
ATOM     12  C   UNL     1      43.163   5.089  10.768  0.00  0.00    +0.000 A 
ATOM     13  N   UNL     1      43.806   6.231  11.064  0.00  0.00    +0.000 NA
ATOM     14  C   UNL     1      44.755   6.043  11.998  0.00  0.00    +0.000 A 
BRANCH  10  15
ATOM     15  O   UNL     1      44.492   2.463  12.707  0.00  0.00    +0.000 OA
ATOM     16  H   UNL     1      45.452   2.317  12.839  0.00  0.00    +0.000 HD
ENDBRANCH  10  15
ENDBRANCH   1   8
BRANCH   3  17
ATOM     17  C   UNL     1      47.367   3.497  16.688  0.00  0.00    +0.000 C 
BRANCH  17  18
ATOM     18  C   UNL     1      48.747   3.954  17.060  0.00  0.00    +0.000 A 
ATOM     19  C   UNL     1      49.082   5.310  16.976  0.00  0.00    +0.000 A 
ATOM     20  C   UNL     1      50.361   5.751  17.323  0.00  0.00    +0.000 A 
ATOM     21  C   UNL     1      51.333   4.839  17.759  0.00  0.00    +0.000 A 
ATOM     22  C   UNL     1      51.003   3.481  17.822  0.00  0.00    +0.000 A 
ATOM     23  C   UNL     1      49.725   3.040  17.470  0.00  0.00    +0.000 A 
BRANCH  21  24
ATOM     24  C   UNL     1      52.718   5.293  18.162  0.00  0.00    +0.000 C 
BRANCH  24  25
ATOM     25  C   UNL     1      52.679   6.520  19.076  0.00  0.00    +0.000 C 
BRANCH  25  26
ATOM     26  C   UNL     1      52.360   6.151  20.525  0.00  0.00    +0.000 C 
BRANCH  26  27
ATOM     27  C   UNL     1      50.869   6.070  20.749  0.00  0.00    +0.000 A 
ATOM     28  C   UNL     1      50.254   4.868  21.127  0.00  0.00    +0.000 A 
ATOM     29  C   UNL     1      48.870   4.809  21.308  0.00  0.00    +0.000 A 
ATOM     30  C   UNL     1      48.089   5.945  21.105  0.00  0.00    +0.000 A 
ATOM     31  C   UNL     1      48.689   7.142  20.718  0.00  0.00    +0.000 A 
ATOM     32  C   UNL     1      50.071   7.202  20.538  0.00  0.00    +0.000 A 
ENDBRANCH  26  27
ENDBRANCH  25  26
ENDBRANCH  24  25
ENDBRANCH  21  24
ENDBRANCH  17  18
ENDBRANCH   3  17
TORSDOF 8
ENDMDL
MODEL 6
REMARK VINA RESULT:    -7.328      2.922      8.150
REMARK INTER + INTRA:         -12.008
REMARK INTER:                  -9.906
REMARK INTRA:                  -2.102
REMARK UNBOUND:                -1.466
REMARK  Name = 
REMARK  9 active torsions:
REMARK  status: ('A' for Active; 'I' for Inactive)
REMARK    1  A    between atoms: C_1  and  N_2
REMARK    2  A    between atoms: C_4  and  C_5
REMARK    3  A    between atoms: N_7  and  C_8
REMARK    4  A    between atoms: C_8  and  C_9
REMARK    5  A    between atoms: C_12  and  C_13
REMARK    6  A    between atoms: C_13  and  C_14
REMARK    7  A    between atoms: C_14  and  C_15
REMARK    8  A    between atoms: C_15  and  C_16
REMARK    9  A    between atoms: C_25  and  O_26
REMARK                            x       y       z     vdW  Elec       q    Type
REMARK                         _______ _______ _______ _____ _____    ______ ____
ROOT
ATOM      1  C   UNL     1      46.136   7.097  11.418  0.00  0.00    +0.000 C 
ATOM      2  O   UNL     1      45.382   7.981  11.814  0.00  0.00    +0.000 OA
ATOM      3  N   UNL     1      47.500   7.166  11.538  0.00  0.00    +0.000 N 
ATOM      4  H   UNL     1      48.087   6.427  11.182  0.00  0.00    +0.000 HD
ENDROOT
BRANCH   1   8
ATOM      5  C   UNL     1      45.105   3.515   8.076  0.00  0.00    +0.000 C 
ATOM      6  N   UNL     1      45.150   4.278   9.302  0.00  0.00    +0.000 N 
ATOM      7  C   UNL     1      45.806   5.472   9.472  0.00  0.00    +0.000 A 
ATOM      8  C   UNL     1      45.619   5.891  10.783  0.00  0.00    +0.000 A 
ATOM      9  C   UNL     1      44.811   4.894  11.419  0.00  0.00    +0.000 A 
ATOM     10  C   UNL     1      44.259   4.673  12.687  0.00  0.00    +0.000 A 
ATOM     11  N   UNL     1      43.527   3.572  12.928  0.00  0.00    +0.000 NA
ATOM     12  C   UNL     1      43.349   2.709  11.915  0.00  0.00    +0.000 A 
ATOM     13  N   UNL     1      43.818   2.796  10.658  0.00  0.00    +0.000 NA
ATOM     14  C   UNL     1      44.543   3.912  10.472  0.00  0.00    +0.000 A 
BRANCH  10  15
ATOM     15  O   UNL     1      44.410   5.522  13.755  0.00  0.00    +0.000 OA
ATOM     16  H   UNL     1      44.814   6.350  13.424  0.00  0.00    +0.000 HD
ENDBRANCH  10  15
ENDBRANCH   1   8
BRANCH   3  17
ATOM     17  C   UNL     1      48.131   8.312  12.145  0.00  0.00    +0.000 C 
BRANCH  17  18
ATOM     18  C   UNL     1      48.384   8.080  13.606  0.00  0.00    +0.000 A 
ATOM     19  C   UNL     1      48.062   9.073  14.538  0.00  0.00    +0.000 A 
ATOM     20  C   UNL     1      48.287   8.869  15.901  0.00  0.00    +0.000 A 
ATOM     21  C   UNL     1      48.843   7.665  16.358  0.00  0.00    +0.000 A 
ATOM     22  C   UNL     1      49.183   6.682  15.423  0.00  0.00    +0.000 A 
ATOM     23  C   UNL     1      48.962   6.888  14.058  0.00  0.00    +0.000 A 
BRANCH  21  24
ATOM     24  C   UNL     1      49.076   7.410  17.830  0.00  0.00    +0.000 C 
BRANCH  24  25
ATOM     25  C   UNL     1      47.770   7.142  18.582  0.00  0.00    +0.000 C 
BRANCH  25  26
ATOM     26  C   UNL     1      47.791   5.801  19.315  0.00  0.00    +0.000 C 
BRANCH  26  27
ATOM     27  C   UNL     1      48.120   4.670  18.370  0.00  0.00    +0.000 A 
ATOM     28  C   UNL     1      47.222   4.274  17.369  0.00  0.00    +0.000 A 
ATOM     29  C   UNL     1      47.536   3.210  16.519  0.00  0.00    +0.000 A 
ATOM     30  C   UNL     1      48.744   2.530  16.666  0.00  0.00    +0.000 A 
ATOM     31  C   UNL     1      49.638   2.910  17.665  0.00  0.00    +0.000 A 
ATOM     32  C   UNL     1      49.326   3.972  18.514  0.00  0.00    +0.000 A 
ENDBRANCH  26  27
ENDBRANCH  25  26
ENDBRANCH  24  25
ENDBRANCH  21  24
ENDBRANCH  17  18
ENDBRANCH   3  17
TORSDOF 8
ENDMDL
MODEL 7
REMARK VINA RESULT:    -7.167      3.389      9.410
REMARK INTER + INTRA:         -11.775
REMARK INTER:                  -9.559
REMARK INTRA:                  -2.216
REMARK UNBOUND:                -1.466
REMARK  Name = 
REMARK  9 active torsions:
REMARK  status: ('A' for Active; 'I' for Inactive)
REMARK    1  A    between atoms: C_1  and  N_2
REMARK    2  A    between atoms: C_4  and  C_5
REMARK    3  A    between atoms: N_7  and  C_8
REMARK    4  A    between atoms: C_8  and  C_9
REMARK    5  A    between atoms: C_12  and  C_13
REMARK    6  A    between atoms: C_13  and  C_14
REMARK    7  A    between atoms: C_14  and  C_15
REMARK    8  A    between atoms: C_15  and  C_16
REMARK    9  A    between atoms: C_25  and  O_26
REMARK                            x       y       z     vdW  Elec       q    Type
REMARK                         _______ _______ _______ _____ _____    ______ ____
ROOT
ATOM      1  C   UNL     1      46.992   4.259  14.428  0.00  0.00    +0.000 C 
ATOM      2  O   UNL     1      47.330   3.150  14.028  0.00  0.00    +0.000 OA
ATOM      3  N   UNL     1      47.253   4.712  15.696  0.00  0.00    +0.000 N 
ATOM      4  H   UNL     1      46.941   5.623  15.992  0.00  0.00    +0.000 HD
ENDROOT
BRANCH   1   8
ATOM      5  C   UNL     1      45.460   8.424  12.110  0.00  0.00    +0.000 C 
ATOM      6  N   UNL     1      45.582   7.042  12.514  0.00  0.00    +0.000 N 
ATOM      7  C   UNL     1      46.460   6.562  13.453  0.00  0.00    +0.000 A 
ATOM      8  C   UNL     1      46.278   5.190  13.562  0.00  0.00    +0.000 A 
ATOM      9  C   UNL     1      45.238   4.841  12.639  0.00  0.00    +0.000 A 
ATOM     10  C   UNL     1      44.570   3.679  12.235  0.00  0.00    +0.000 A 
ATOM     11  N   UNL     1      43.609   3.738  11.296  0.00  0.00    +0.000 NA
ATOM     12  C   UNL     1      43.324   4.942  10.775  0.00  0.00    +0.000 A 
ATOM     13  N   UNL     1      43.882   6.129  11.068  0.00  0.00    +0.000 NA
ATOM     14  C   UNL     1      44.836   6.013  12.009  0.00  0.00    +0.000 A 
BRANCH  10  15
ATOM     15  O   UNL     1      44.823   2.426  12.736  0.00  0.00    +0.000 OA
ATOM     16  H   UNL     1      45.396   1.959  12.094  0.00  0.00    +0.000 HD
ENDBRANCH  10  15
ENDBRANCH   1   8
BRANCH   3  17
ATOM     17  C   UNL     1      47.949   3.881  16.647  0.00  0.00    +0.000 C 
BRANCH  17  18
ATOM     18  C   UNL     1      47.949   4.505  18.012  0.00  0.00    +0.000 A 
ATOM     19  C   UNL     1      48.960   4.189  18.926  0.00  0.00    +0.000 A 
ATOM     20  C   UNL     1      48.976   4.766  20.198  0.00  0.00    +0.000 A 
ATOM     21  C   UNL     1      47.975   5.670  20.582  0.00  0.00    +0.000 A 
ATOM     22  C   UNL     1      46.953   5.968  19.674  0.00  0.00    +0.000 A 
ATOM     23  C   UNL     1      46.935   5.388  18.403  0.00  0.00    +0.000 A 
BRANCH  21  24
ATOM     24  C   UNL     1      47.981   6.325  21.944  0.00  0.00    +0.000 C 
BRANCH  24  25
ATOM     25  C   UNL     1      47.857   7.847  21.851  0.00  0.00    +0.000 C 
BRANCH  25  26
ATOM     26  C   UNL     1      49.120   8.496  21.284  0.00  0.00    +0.000 C 
BRANCH  26  27
ATOM     27  C   UNL     1      49.014   8.675  19.789  0.00  0.00    +0.000 A 
ATOM     28  C   UNL     1      49.977   8.139  18.922  0.00  0.00    +0.000 A 
ATOM     29  C   UNL     1      49.872   8.336  17.542  0.00  0.00    +0.000 A 
ATOM     30  C   UNL     1      48.812   9.073  17.019  0.00  0.00    +0.000 A 
ATOM     31  C   UNL     1      47.856   9.619  17.873  0.00  0.00    +0.000 A 
ATOM     32  C   UNL     1      47.959   9.423  19.251  0.00  0.00    +0.000 A 
ENDBRANCH  26  27
ENDBRANCH  25  26
ENDBRANCH  24  25
ENDBRANCH  21  24
ENDBRANCH  17  18
ENDBRANCH   3  17
TORSDOF 8
ENDMDL
MODEL 8
REMARK VINA RESULT:    -6.995      3.391      5.460
REMARK INTER + INTRA:         -11.528
REMARK INTER:                 -10.156
REMARK INTRA:                  -1.372
REMARK UNBOUND:                -1.466
REMARK  Name = 
REMARK  9 active torsions:
REMARK  status: ('A' for Active; 'I' for Inactive)
REMARK    1  A    between atoms: C_1  and  N_2
REMARK    2  A    between atoms: C_4  and  C_5
REMARK    3  A    between atoms: N_7  and  C_8
REMARK    4  A    between atoms: C_8  and  C_9
REMARK    5  A    between atoms: C_12  and  C_13
REMARK    6  A    between atoms: C_13  and  C_14
REMARK    7  A    between atoms: C_14  and  C_15
REMARK    8  A    between atoms: C_15  and  C_16
REMARK    9  A    between atoms: C_25  and  O_26
REMARK                            x       y       z     vdW  Elec       q    Type
REMARK                         _______ _______ _______ _____ _____    ______ ____
ROOT
ATOM      1  C   UNL     1      49.360   8.412  13.413  0.00  0.00    +0.000 C 
ATOM      2  O   UNL     1      48.764   9.129  14.211  0.00  0.00    +0.000 OA
ATOM      3  N   UNL     1      49.088   7.077  13.256  0.00  0.00    +0.000 N 
ATOM      4  H   UNL     1      49.613   6.518  12.603  0.00  0.00    +0.000 HD
ENDROOT
BRANCH   1   8
ATOM      5  C   UNL     1      53.792   9.250  11.243  0.00  0.00    +0.000 C 
ATOM      6  N   UNL     1      52.389   9.332  11.577  0.00  0.00    +0.000 N 
ATOM      7  C   UNL     1      51.755   8.583  12.537  0.00  0.00    +0.000 A 
ATOM      8  C   UNL     1      50.415   8.945  12.560  0.00  0.00    +0.000 A 
ATOM      9  C   UNL     1      50.249   9.960  11.562  0.00  0.00    +0.000 A 
ATOM     10  C   UNL     1      49.204  10.744  11.058  0.00  0.00    +0.000 A 
ATOM     11  N   UNL     1      49.432  11.628  10.071  0.00  0.00    +0.000 NA
ATOM     12  C   UNL     1      50.686  11.724   9.600  0.00  0.00    +0.000 A 
ATOM     13  N   UNL     1      51.774  11.039   9.990  0.00  0.00    +0.000 NA
ATOM     14  C   UNL     1      51.491  10.169  10.975  0.00  0.00    +0.000 A 
BRANCH  10  15
ATOM     15  O   UNL     1      47.907  10.685  11.503  0.00  0.00    +0.000 OA
ATOM     16  H   UNL     1      47.732  11.495  12.024  0.00  0.00    +0.000 HD
ENDBRANCH  10  15
ENDBRANCH   1   8
BRANCH   3  17
ATOM     17  C   UNL     1      48.068   6.433  14.047  0.00  0.00    +0.000 C 
BRANCH  17  18
ATOM     18  C   UNL     1      46.943   5.944  13.183  0.00  0.00    +0.000 A 
ATOM     19  C   UNL     1      46.770   6.468  11.896  0.00  0.00    +0.000 A 
ATOM     20  C   UNL     1      45.730   6.019  11.079  0.00  0.00    +0.000 A 
ATOM     21  C   UNL     1      44.840   5.036  11.535  0.00  0.00    +0.000 A 
ATOM     22  C   UNL     1      45.002   4.529  12.829  0.00  0.00    +0.000 A 
ATOM     23  C   UNL     1      46.039   4.982  13.649  0.00  0.00    +0.000 A 
BRANCH  21  24
ATOM     24  C   UNL     1      43.720   4.517  10.662  0.00  0.00    +0.000 C 
BRANCH  24  25
ATOM     25  C   UNL     1      44.222   4.070   9.288  0.00  0.00    +0.000 C 
BRANCH  25  26
ATOM     26  C   UNL     1      44.778   2.646   9.312  0.00  0.00    +0.000 C 
BRANCH  26  27
ATOM     27  C   UNL     1      45.752   2.424   8.179  0.00  0.00    +0.000 A 
ATOM     28  C   UNL     1      46.003   3.424   7.229  0.00  0.00    +0.000 A 
ATOM     29  C   UNL     1      46.891   3.191   6.175  0.00  0.00    +0.000 A 
ATOM     30  C   UNL     1      47.528   1.958   6.058  0.00  0.00    +0.000 A 
ATOM     31  C   UNL     1      47.278   0.954   6.991  0.00  0.00    +0.000 A 
ATOM     32  C   UNL     1      46.392   1.185   8.044  0.00  0.00    +0.000 A 
ENDBRANCH  26  27
ENDBRANCH  25  26
ENDBRANCH  24  25
ENDBRANCH  21  24
ENDBRANCH  17  18
ENDBRANCH   3  17
TORSDOF 8
ENDMDL
MODEL 9
REMARK VINA RESULT:    -6.956      3.736      5.904
REMARK INTER + INTRA:         -11.471
REMARK INTER:                  -9.999
REMARK INTRA:                  -1.473
REMARK UNBOUND:                -1.466
REMARK  Name = 
REMARK  9 active torsions:
REMARK  status: ('A' for Active; 'I' for Inactive)
REMARK    1  A    between atoms: C_1  and  N_2
REMARK    2  A    between atoms: C_4  and  C_5
REMARK    3  A    between atoms: N_7  and  C_8
REMARK    4  A    between atoms: C_8  and  C_9
REMARK    5  A    between atoms: C_12  and  C_13
REMARK    6  A    between atoms: C_13  and  C_14
REMARK    7  A    between atoms: C_14  and  C_15
REMARK    8  A    between atoms: C_15  and  C_16
REMARK    9  A    between atoms: C_25  and  O_26
REMARK                            x       y       z     vdW  Elec       q    Type
REMARK                         _______ _______ _______ _____ _____    ______ ____
ROOT
ATOM      1  C   UNL     1      49.236   9.108  12.793  0.00  0.00    +0.000 C 
ATOM      2  O   UNL     1      48.837   9.631  13.828  0.00  0.00    +0.000 OA
ATOM      3  N   UNL     1      49.131   7.764  12.543  0.00  0.00    +0.000 N 
ATOM      4  H   UNL     1      49.488   7.369  11.687  0.00  0.00    +0.000 HD
ENDROOT
BRANCH   1   8
ATOM      5  C   UNL     1      50.045  12.503   9.204  0.00  0.00    +0.000 C 
ATOM      6  N   UNL     1      50.237  11.411  10.131  0.00  0.00    +0.000 N 
ATOM      7  C   UNL     1      49.301  10.951  11.022  0.00  0.00    +0.000 A 
ATOM      8  C   UNL     1      49.857   9.898  11.737  0.00  0.00    +0.000 A 
ATOM      9  C   UNL     1      51.190   9.727  11.240  0.00  0.00    +0.000 A 
ATOM     10  C   UNL     1      52.282   8.888  11.494  0.00  0.00    +0.000 A 
ATOM     11  N   UNL     1      53.426   9.031  10.804  0.00  0.00    +0.000 NA
ATOM     12  C   UNL     1      53.473   9.999   9.874  0.00  0.00    +0.000 A 
ATOM     13  N   UNL     1      52.508  10.868   9.530  0.00  0.00    +0.000 NA
ATOM     14  C   UNL     1      51.388  10.682  10.251  0.00  0.00    +0.000 A 
BRANCH  10  15
ATOM     15  O   UNL     1      52.285   7.885  12.433  0.00  0.00    +0.000 OA
ATOM     16  H   UNL     1      52.147   8.297  13.310  0.00  0.00    +0.000 HD
ENDBRANCH  10  15
ENDBRANCH   1   8
BRANCH   3  17
ATOM     17  C   UNL     1      48.538   6.876  13.514  0.00  0.00    +0.000 C 
BRANCH  17  18
ATOM     18  C   UNL     1      47.371   6.137  12.928  0.00  0.00    +0.000 A 
ATOM     19  C   UNL     1      46.827   5.039  13.605  0.00  0.00    +0.000 A 
ATOM     20  C   UNL     1      45.738   4.344  13.075  0.00  0.00    +0.000 A 
ATOM     21  C   UNL     1      45.173   4.733  11.852  0.00  0.00    +0.000 A 
ATOM     22  C   UNL     1      45.732   5.817  11.166  0.00  0.00    +0.000 A 
ATOM     23  C   UNL     1      46.824   6.510  11.695  0.00  0.00    +0.000 A 
BRANCH  21  24
ATOM     24  C   UNL     1      43.980   4.012  11.267  0.00  0.00    +0.000 C 
BRANCH  24  25
ATOM     25  C   UNL     1      44.081   3.874   9.746  0.00  0.00    +0.000 C 
BRANCH  25  26
ATOM     26  C   UNL     1      44.428   2.448   9.317  0.00  0.00    +0.000 C 
BRANCH  26  27
ATOM     27  C   UNL     1      45.568   2.442   8.327  0.00  0.00    +0.000 A 
ATOM     28  C   UNL     1      46.312   1.279   8.080  0.00  0.00    +0.000 A 
ATOM     29  C   UNL     1      47.378   1.300   7.177  0.00  0.00    +0.000 A 
ATOM     30  C   UNL     1      47.714   2.482   6.520  0.00  0.00    +0.000 A 
ATOM     31  C   UNL     1      46.988   3.645   6.766  0.00  0.00    +0.000 A 
ATOM     32  C   UNL     1      45.923   3.626   7.667  0.00  0.00    +0.000 A 
ENDBRANCH  26  27
ENDBRANCH  25  26
ENDBRANCH  24  25
ENDBRANCH  21  24
ENDBRANCH  17  18
ENDBRANCH   3  17
TORSDOF 8
ENDMDL
