MODEL 1
REMARK VINA RESULT:    -6.885      0.000      0.000
REMARK INTER + INTRA:          -9.388
REMARK INTER:                  -8.494
REMARK INTRA:                  -0.893
REMARK UNBOUND:                -0.893
REMARK  Name = 
REMARK  4 active torsions:
REMARK  status: ('A' for Active; 'I' for Inactive)
REMARK    1  A    between atoms: C_5  and  N_6
REMARK    2  A    between atoms: N_6  and  C_7
REMARK    3  A    between atoms: C_7  and  C_8
REMARK    4  A    between atoms: C_12  and  N_13
REMARK                            x       y       z     vdW  Elec       q    Type
REMARK                         _______ _______ _______ _____ _____    ______ ____
ROOT
ATOM      1  C   UNL     1      45.025   4.965  12.259  0.00  0.00    +0.000 A 
ATOM      2  C   UNL     1      45.506   3.803  12.877  0.00  0.00    +0.000 A 
ATOM      3  C   UNL     1      46.692   3.813  13.607  0.00  0.00    +0.000 A 
ATOM      4  C   UNL     1      47.422   4.996  13.722  0.00  0.00    +0.000 A 
ATOM      5  C   UNL     1      46.979   6.195  13.152  0.00  0.00    +0.000 A 
ATOM      6  C   UNL     1      45.761   6.154  12.456  0.00  0.00    +0.000 A 
ENDROOT
BRANCH   5   7
ATOM      7  N   UNL     1      47.732   7.351  13.278  0.00  0.00    +0.000 N 
ATOM      8  C   UNL     1      47.124   8.678  13.450  0.00  0.00    +0.000 C 
ATOM      9  C   UNL     1      47.385   9.590  12.231  0.00  0.00    +0.000 C 
ATOM     10  N   UNL     1      48.815   9.686  11.867  0.00  0.00    +0.000 NA
ATOM     11  C   UNL     1      49.318   8.321  11.611  0.00  0.00    +0.000 C 
ATOM     12  C   UNL     1      49.127   7.349  12.799  0.00  0.00    +0.000 C 
ATOM     13  H   UNL     1      49.318  10.059  12.673  0.00  0.00    +0.000 HD
ENDBRANCH   5   7
BRANCH   1  14
ATOM     14  C   UNL     1      43.803   4.926  11.342  0.00  0.00    +0.000 C 
ATOM     15  C   UNL     1      42.452   5.312  11.945  0.00  0.00    +0.000 C 
ATOM     16  C   UNL     1      43.145   6.256  11.022  0.00  0.00    +0.000 C 
BRANCH  14  17
ATOM     17  N   UNL     1      43.748   3.770  10.429  0.00  0.00    +0.000 N 
ATOM     18  H   UNL     1      43.295   2.947  10.812  0.00  0.00    +0.000 HD
BRANCH  17  23
ATOM     19  C   UNL     1      46.228   3.894   7.626  0.00  0.00    +0.000 A 
ATOM     20  C   UNL     1      46.511   2.541   7.555  0.00  0.00    +0.000 A 
ATOM     21  N   UNL     1      45.946   1.621   8.356  0.00  0.00    +0.000 NA
ATOM     22  C   UNL     1      45.064   2.088   9.277  0.00  0.00    +0.000 A 
ATOM     23  C   UNL     1      44.727   3.434   9.470  0.00  0.00    +0.000 A 
ATOM     24  C   UNL     1      45.310   4.337   8.586  0.00  0.00    +0.000 A 
ENDBRANCH  17  23
ENDBRANCH  14  17
ENDBRANCH   1  14
TORSDOF 4
ENDMDL
MODEL 2
REMARK VINA RESULT:    -6.561      2.328      3.788
REMARK INTER + INTRA:          -8.989
REMARK INTER:                  -8.469
REMARK INTRA:                  -0.520
REMARK UNBOUND:                -0.893
REMARK  Name = 
REMARK  4 active torsions:
REMARK  status: ('A' for Active; 'I' for Inactive)
REMARK    1  A    between atoms: C_5  and  N_6
REMARK    2  A    between atoms: N_6  and  C_7
REMARK    3  A    between atoms: C_7  and  C_8
REMARK    4  A    between atoms: C_12  and  N_13
REMARK                            x       y       z     vdW  Elec       q    Type
REMARK                         _______ _______ _______ _____ _____    ______ ____
ROOT
ATOM      1  C   UNL     1      45.620   5.499  12.703  0.00  0.00    +0.000 A 
ATOM      2  C   UNL     1      46.094   6.760  12.317  0.00  0.00    +0.000 A 
ATOM      3  C   UNL     1      47.156   7.365  12.984  0.00  0.00    +0.000 A 
ATOM      4  C   UNL     1      47.758   6.714  14.060  0.00  0.00    +0.000 A 
ATOM      5  C   UNL     1      47.349   5.440  14.474  0.00  0.00    +0.000 A 
ATOM      6  C   UNL     1      46.302   4.846  13.754  0.00  0.00    +0.000 A 
ENDROOT
BRANCH   5   7
ATOM      7  N   UNL     1      47.964   4.823  15.551  0.00  0.00    +0.000 N 
ATOM      8  C   UNL     1      47.669   3.438  15.946  0.00  0.00    +0.000 C 
ATOM      9  C   UNL     1      46.972   3.370  17.321  0.00  0.00    +0.000 C 
ATOM     10  N   UNL     1      47.699   4.098  18.383  0.00  0.00    +0.000 NA
ATOM     11  C   UNL     1      47.860   5.502  17.953  0.00  0.00    +0.000 C 
ATOM     12  C   UNL     1      48.584   5.662  16.594  0.00  0.00    +0.000 C 
ATOM     13  H   UNL     1      48.629   3.687  18.464  0.00  0.00    +0.000 HD
ENDBRANCH   5   7
BRANCH   1  14
ATOM     14  C   UNL     1      44.368   4.895  12.068  0.00  0.00    +0.000 C 
ATOM     15  C   UNL     1      43.072   4.940  12.877  0.00  0.00    +0.000 C 
ATOM     16  C   UNL     1      43.249   5.858  11.715  0.00  0.00    +0.000 C 
BRANCH  14  17
ATOM     17  N   UNL     1      44.586   3.628  11.348  0.00  0.00    +0.000 N 
ATOM     18  H   UNL     1      44.919   2.863  11.924  0.00  0.00    +0.000 HD
BRANCH  17  23
ATOM     19  C   UNL     1      45.685   2.282   8.030  0.00  0.00    +0.000 A 
ATOM     20  C   UNL     1      46.044   3.482   7.442  0.00  0.00    +0.000 A 
ATOM     21  N   UNL     1      45.948   4.671   8.061  0.00  0.00    +0.000 NA
ATOM     22  C   UNL     1      45.455   4.650   9.326  0.00  0.00    +0.000 A 
ATOM     23  C   UNL     1      45.022   3.508  10.011  0.00  0.00    +0.000 A 
ATOM     24  C   UNL     1      45.185   2.300   9.338  0.00  0.00    +0.000 A 
ENDBRANCH  17  23
ENDBRANCH  14  17
ENDBRANCH   1  14
TORSDOF 4
ENDMDL
MODEL 3
REMARK VINA RESULT:    -6.459      2.125      6.405
REMARK INTER + INTRA:          -8.862
REMARK INTER:                  -8.220
REMARK INTRA:                  -0.643
REMARK UNBOUND:                -0.893
REMARK  Name = 
REMARK  4 active torsions:
REMARK  status: ('A' for Active; 'I' for Inactive)
REMARK    1  A    between atoms: C_5  and  N_6
REMARK    2  A    between atoms: N_6  and  C_7
REMARK    3  A    between atoms: C_7  and  C_8
REMARK    4  A    between atoms: C_12  and  N_13
REMARK                            x       y       z     vdW  Elec       q    Type
REMARK                         _______ _______ _______ _____ _____    ______ ____
ROOT
ATOM      1  C   UNL     1      45.202   5.391  12.051  0.00  0.00    +0.000 A 
ATOM      2  C   UNL     1      44.320   4.792  12.961  0.00  0.00    +0.000 A 
ATOM      3  C   UNL     1      43.571   3.673  12.608  0.00  0.00    +0.000 A 
ATOM      4  C   UNL     1      43.689   3.139  11.325  0.00  0.00    +0.000 A 
ATOM      5  C   UNL     1      44.573   3.675  10.381  0.00  0.00    +0.000 A 
ATOM      6  C   UNL     1      45.339   4.779  10.786  0.00  0.00    +0.000 A 
ENDROOT
BRANCH   5   7
ATOM      7  N   UNL     1      44.661   3.126   9.112  0.00  0.00    +0.000 N 
ATOM      8  C   UNL     1      44.855   1.687   8.883  0.00  0.00    +0.000 C 
ATOM      9  C   UNL     1      46.228   1.388   8.245  0.00  0.00    +0.000 C 
ATOM     10  N   UNL     1      46.489   2.177   7.021  0.00  0.00    +0.000 NA
ATOM     11  C   UNL     1      46.378   3.610   7.364  0.00  0.00    +0.000 C 
ATOM     12  C   UNL     1      45.013   4.003   7.979  0.00  0.00    +0.000 C 
ATOM     13  H   UNL     1      45.756   1.959   6.346  0.00  0.00    +0.000 HD
ENDBRANCH   5   7
BRANCH   1  14
ATOM     14  C   UNL     1      45.918   6.699  12.387  0.00  0.00    +0.000 C 
ATOM     15  C   UNL     1      47.128   6.625  13.317  0.00  0.00    +0.000 C 
ATOM     16  C   UNL     1      47.331   6.860  11.859  0.00  0.00    +0.000 C 
BRANCH  14  17
ATOM     17  N   UNL     1      45.028   7.846  12.645  0.00  0.00    +0.000 N 
ATOM     18  H   UNL     1      44.130   7.605  13.049  0.00  0.00    +0.000 HD
BRANCH  17  23
ATOM     19  C   UNL     1      45.563  11.289  11.273  0.00  0.00    +0.000 A 
ATOM     20  C   UNL     1      44.547  11.285  10.333  0.00  0.00    +0.000 A 
ATOM     21  N   UNL     1      43.722  10.243  10.136  0.00  0.00    +0.000 NA
ATOM     22  C   UNL     1      43.939   9.150  10.913  0.00  0.00    +0.000 A 
ATOM     23  C   UNL     1      44.957   9.021  11.866  0.00  0.00    +0.000 A 
ATOM     24  C   UNL     1      45.754  10.146  12.058  0.00  0.00    +0.000 A 
ENDBRANCH  17  23
ENDBRANCH  14  17
ENDBRANCH   1  14
TORSDOF 4
ENDMDL
MODEL 4
REMARK VINA RESULT:    -6.066      1.258      2.492
REMARK INTER + INTRA:          -8.378
REMARK INTER:                  -8.110
REMARK INTRA:                  -0.268
REMARK UNBOUND:                -0.893
REMARK  Name = 
REMARK  4 active torsions:
REMARK  status: ('A' for Active; 'I' for Inactive)
REMARK    1  A    between atoms: C_5  and  N_6
REMARK    2  A    between atoms: N_6  and  C_7
REMARK    3  A    between atoms: C_7  and  C_8
REMARK    4  A    between atoms: C_12  and  N_13
REMARK                            x       y       z     vdW  Elec       q    Type
REMARK                         _______ _______ _______ _____ _____    ______ ____
ROOT
ATOM      1  C   UNL     1      44.589   5.683  11.461  0.00  0.00    +0.000 A 
ATOM      2  C   UNL     1      43.635   6.646  11.104  0.00  0.00    +0.000 A 
ATOM      3  C   UNL     1      43.907   8.007  11.220  0.00  0.00    +0.000 A 
ATOM      4  C   UNL     1      45.146   8.426  11.705  0.00  0.00    +0.000 A 
ATOM      5  C   UNL     1      46.150   7.513  12.051  0.00  0.00    +0.000 A 
ATOM      6  C   UNL     1      45.853   6.151  11.885  0.00  0.00    +0.000 A 
ENDROOT
BRANCH   5   7
ATOM      7  N   UNL     1      47.367   7.961  12.537  0.00  0.00    +0.000 N 
ATOM      8  C   UNL     1      48.550   8.128  11.680  0.00  0.00    +0.000 C 
ATOM      9  C   UNL     1      49.669   7.131  12.049  0.00  0.00    +0.000 C 
ATOM     10  N   UNL     1      50.026   7.156  13.485  0.00  0.00    +0.000 NA
ATOM     11  C   UNL     1      48.804   6.876  14.268  0.00  0.00    +0.000 C 
ATOM     12  C   UNL     1      47.640   7.855  13.983  0.00  0.00    +0.000 C 
ATOM     13  H   UNL     1      50.335   8.100  13.714  0.00  0.00    +0.000 HD
ENDBRANCH   5   7
BRANCH   1  14
ATOM     14  C   UNL     1      44.246   4.194  11.470  0.00  0.00    +0.000 C 
ATOM     15  C   UNL     1      45.034   3.292  12.420  0.00  0.00    +0.000 C 
ATOM     16  C   UNL     1      43.621   3.644  12.739  0.00  0.00    +0.000 C 
BRANCH  14  17
ATOM     17  N   UNL     1      44.002   3.605  10.141  0.00  0.00    +0.000 N 
ATOM     18  H   UNL     1      43.210   2.974  10.095  0.00  0.00    +0.000 HD
BRANCH  17  23
ATOM     19  C   UNL     1      46.519   3.743   7.371  0.00  0.00    +0.000 A 
ATOM     20  C   UNL     1      46.809   2.391   7.303  0.00  0.00    +0.000 A 
ATOM     21  N   UNL     1      46.236   1.468   8.095  0.00  0.00    +0.000 NA
ATOM     22  C   UNL     1      45.340   1.930   9.004  0.00  0.00    +0.000 A 
ATOM     23  C   UNL     1      44.995   3.274   9.195  0.00  0.00    +0.000 A 
ATOM     24  C   UNL     1      45.587   4.181   8.320  0.00  0.00    +0.000 A 
ENDBRANCH  17  23
ENDBRANCH  14  17
ENDBRANCH   1  14
TORSDOF 4
ENDMDL
MODEL 5
REMARK VINA RESULT:    -5.959      2.310      6.810
REMARK INTER + INTRA:          -8.245
REMARK INTER:                  -7.578
REMARK INTRA:                  -0.667
REMARK UNBOUND:                -0.893
REMARK  Name = 
REMARK  4 active torsions:
REMARK  status: ('A' for Active; 'I' for Inactive)
REMARK    1  A    between atoms: C_5  and  N_6
REMARK    2  A    between atoms: N_6  and  C_7
REMARK    3  A    between atoms: C_7  and  C_8
REMARK    4  A    between atoms: C_12  and  N_13
REMARK                            x       y       z     vdW  Elec       q    Type
REMARK                         _______ _______ _______ _____ _____    ______ ____
ROOT
ATOM      1  C   UNL     1      46.644   7.087  12.756  0.00  0.00    +0.000 A 
ATOM      2  C   UNL     1      46.224   8.385  12.434  0.00  0.00    +0.000 A 
ATOM      3  C   UNL     1      45.031   8.608  11.753  0.00  0.00    +0.000 A 
ATOM      4  C   UNL     1      44.238   7.525  11.375  0.00  0.00    +0.000 A 
ATOM      5  C   UNL     1      44.589   6.207  11.693  0.00  0.00    +0.000 A 
ATOM      6  C   UNL     1      45.779   6.024  12.413  0.00  0.00    +0.000 A 
ENDROOT
BRANCH   5   7
ATOM      7  N   UNL     1      43.783   5.152  11.296  0.00  0.00    +0.000 N 
ATOM      8  C   UNL     1      42.996   4.355  12.248  0.00  0.00    +0.000 C 
ATOM      9  C   UNL     1      43.502   2.898  12.330  0.00  0.00    +0.000 C 
ATOM     10  N   UNL     1      43.600   2.237  11.011  0.00  0.00    +0.000 NA
ATOM     11  C   UNL     1      44.490   3.047  10.154  0.00  0.00    +0.000 C 
ATOM     12  C   UNL     1      44.034   4.516   9.989  0.00  0.00    +0.000 C 
ATOM     13  H   UNL     1      42.671   2.240  10.589  0.00  0.00    +0.000 HD
ENDBRANCH   5   7
BRANCH   1  14
ATOM     14  C   UNL     1      48.018   6.830  13.375  0.00  0.00    +0.000 C 
ATOM     15  C   UNL     1      49.246   7.273  12.581  0.00  0.00    +0.000 C 
ATOM     16  C   UNL     1      48.824   8.050  13.781  0.00  0.00    +0.000 C 
BRANCH  14  17
ATOM     17  N   UNL     1      48.166   5.521  14.036  0.00  0.00    +0.000 N 
ATOM     18  H   UNL     1      47.954   4.722  13.449  0.00  0.00    +0.000 HD
BRANCH  17  23
ATOM     19  C   UNL     1      48.248   5.537  17.781  0.00  0.00    +0.000 A 
ATOM     20  C   UNL     1      47.390   4.473  17.999  0.00  0.00    +0.000 A 
ATOM     21  N   UNL     1      46.806   3.774  17.011  0.00  0.00    +0.000 NA
ATOM     22  C   UNL     1      47.092   4.173  15.744  0.00  0.00    +0.000 A 
ATOM     23  C   UNL     1      47.910   5.256  15.399  0.00  0.00    +0.000 A 
ATOM     24  C   UNL     1      48.521   5.916  16.461  0.00  0.00    +0.000 A 
ENDBRANCH  17  23
ENDBRANCH  14  17
ENDBRANCH   1  14
TORSDOF 4
ENDMDL
MODEL 6
REMARK VINA RESULT:    -5.738      1.652      6.511
REMARK INTER + INTRA:          -7.973
REMARK INTER:                  -7.228
REMARK INTRA:                  -0.745
REMARK UNBOUND:                -0.893
REMARK  Name = 
REMARK  4 active torsions:
REMARK  status: ('A' for Active; 'I' for Inactive)
REMARK    1  A    between atoms: C_5  and  N_6
REMARK    2  A    between atoms: N_6  and  C_7
REMARK    3  A    between atoms: C_7  and  C_8
REMARK    4  A    between atoms: C_12  and  N_13
REMARK                            x       y       z     vdW  Elec       q    Type
REMARK                         _______ _______ _______ _____ _____    ______ ____
ROOT
ATOM      1  C   UNL     1      47.419   6.561  12.702  0.00  0.00    +0.000 A 
ATOM      2  C   UNL     1      47.373   5.810  13.885  0.00  0.00    +0.000 A 
ATOM      3  C   UNL     1      46.507   4.729  14.018  0.00  0.00    +0.000 A 
ATOM      4  C   UNL     1      45.662   4.385  12.962  0.00  0.00    +0.000 A 
ATOM      5  C   UNL     1      45.682   5.079  11.746  0.00  0.00    +0.000 A 
ATOM      6  C   UNL     1      46.595   6.139  11.636  0.00  0.00    +0.000 A 
ENDROOT
BRANCH   5   7
ATOM      7  N   UNL     1      44.825   4.717  10.720  0.00  0.00    +0.000 N 
ATOM      8  C   UNL     1      43.862   3.614  10.843  0.00  0.00    +0.000 C 
ATOM      9  C   UNL     1      44.208   2.442   9.899  0.00  0.00    +0.000 C 
ATOM     10  N   UNL     1      44.387   2.857   8.491  0.00  0.00    +0.000 NA
ATOM     11  C   UNL     1      45.444   3.889   8.446  0.00  0.00    +0.000 C 
ATOM     12  C   UNL     1      45.157   5.119   9.339  0.00  0.00    +0.000 C 
ATOM     13  H   UNL     1      43.516   3.287   8.178  0.00  0.00    +0.000 HD
ENDBRANCH   5   7
BRANCH   1  14
ATOM     14  C   UNL     1      48.263   7.832  12.604  0.00  0.00    +0.000 C 
ATOM     15  C   UNL     1      49.747   7.725  12.955  0.00  0.00    +0.000 C 
ATOM     16  C   UNL     1      49.335   7.859  11.529  0.00  0.00    +0.000 C 
BRANCH  14  17
ATOM     17  N   UNL     1      47.610   9.052  13.109  0.00  0.00    +0.000 N 
ATOM     18  H   UNL     1      47.478   9.079  14.113  0.00  0.00    +0.000 HD
BRANCH  17  23
ATOM     19  C   UNL     1      44.374  10.244  11.645  0.00  0.00    +0.000 A 
ATOM     20  C   UNL     1      44.874  11.295  10.896  0.00  0.00    +0.000 A 
ATOM     21  N   UNL     1      46.178  11.620  10.849  0.00  0.00    +0.000 NA
ATOM     22  C   UNL     1      47.013  10.857  11.600  0.00  0.00    +0.000 A 
ATOM     23  C   UNL     1      46.623   9.797  12.427  0.00  0.00    +0.000 A 
ATOM     24  C   UNL     1      45.268   9.478  12.404  0.00  0.00    +0.000 A 
ENDBRANCH  17  23
ENDBRANCH  14  17
ENDBRANCH   1  14
TORSDOF 4
ENDMDL
MODEL 7
REMARK VINA RESULT:    -5.736      2.264      7.311
REMARK INTER + INTRA:          -7.971
REMARK INTER:                  -7.103
REMARK INTRA:                  -0.867
REMARK UNBOUND:                -0.893
REMARK  Name = 
REMARK  4 active torsions:
REMARK  status: ('A' for Active; 'I' for Inactive)
REMARK    1  A    between atoms: C_5  and  N_6
REMARK    2  A    between atoms: N_6  and  C_7
REMARK    3  A    between atoms: C_7  and  C_8
REMARK    4  A    between atoms: C_12  and  N_13
REMARK                            x       y       z     vdW  Elec       q    Type
REMARK                         _______ _______ _______ _____ _____    ______ ____
ROOT
ATOM      1  C   UNL     1      47.962   7.817  12.423  0.00  0.00    +0.000 A 
ATOM      2  C   UNL     1      47.122   8.935  12.320  0.00  0.00    +0.000 A 
ATOM      3  C   UNL     1      45.764   8.794  12.052  0.00  0.00    +0.000 A 
ATOM      4  C   UNL     1      45.223   7.520  11.875  0.00  0.00    +0.000 A 
ATOM      5  C   UNL     1      46.003   6.364  11.994  0.00  0.00    +0.000 A 
ATOM      6  C   UNL     1      47.360   6.544  12.302  0.00  0.00    +0.000 A 
ENDROOT
BRANCH   5   7
ATOM      7  N   UNL     1      45.437   5.114  11.805  0.00  0.00    +0.000 N 
ATOM      8  C   UNL     1      45.031   4.619  10.482  0.00  0.00    +0.000 C 
ATOM      9  C   UNL     1      43.500   4.453  10.376  0.00  0.00    +0.000 C 
ATOM     10  N   UNL     1      42.924   3.636  11.466  0.00  0.00    +0.000 NA
ATOM     11  C   UNL     1      43.290   4.260  12.754  0.00  0.00    +0.000 C 
ATOM     12  C   UNL     1      44.814   4.432  12.956  0.00  0.00    +0.000 C 
ATOM     13  H   UNL     1      43.360   2.714  11.430  0.00  0.00    +0.000 HD
ENDBRANCH   5   7
BRANCH   1  14
ATOM     14  C   UNL     1      49.474   7.973  12.575  0.00  0.00    +0.000 C 
ATOM     15  C   UNL     1      50.341   7.706  11.345  0.00  0.00    +0.000 C 
ATOM     16  C   UNL     1      50.125   9.107  11.804  0.00  0.00    +0.000 C 
BRANCH  14  17
ATOM     17  N   UNL     1      50.030   7.442  13.832  0.00  0.00    +0.000 N 
ATOM     18  H   UNL     1      50.488   6.541  13.748  0.00  0.00    +0.000 HD
BRANCH  17  23
ATOM     19  C   UNL     1      48.643   8.969  16.959  0.00  0.00    +0.000 A 
ATOM     20  C   UNL     1      48.577   7.819  17.725  0.00  0.00    +0.000 A 
ATOM     21  N   UNL     1      48.954   6.608  17.281  0.00  0.00    +0.000 NA
ATOM     22  C   UNL     1      49.407   6.552  16.002  0.00  0.00    +0.000 A 
ATOM     23  C   UNL     1      49.482   7.636  15.119  0.00  0.00    +0.000 A 
ATOM     24  C   UNL     1      49.120   8.872  15.645  0.00  0.00    +0.000 A 
ENDBRANCH  17  23
ENDBRANCH  14  17
ENDBRANCH   1  14
TORSDOF 4
ENDMDL
MODEL 8
REMARK VINA RESULT:    -5.610      4.009      7.389
REMARK INTER + INTRA:          -7.814
REMARK INTER:                  -7.600
REMARK INTRA:                  -0.215
REMARK UNBOUND:                -0.893
REMARK  Name = 
REMARK  4 active torsions:
REMARK  status: ('A' for Active; 'I' for Inactive)
REMARK    1  A    between atoms: C_5  and  N_6
REMARK    2  A    between atoms: N_6  and  C_7
REMARK    3  A    between atoms: C_7  and  C_8
REMARK    4  A    between atoms: C_12  and  N_13
REMARK                            x       y       z     vdW  Elec       q    Type
REMARK                         _______ _______ _______ _____ _____    ______ ____
ROOT
ATOM      1  C   UNL     1      47.966   5.432  15.685  0.00  0.00    +0.000 A 
ATOM      2  C   UNL     1      48.767   6.524  15.322  0.00  0.00    +0.000 A 
ATOM      3  C   UNL     1      48.682   7.089  14.052  0.00  0.00    +0.000 A 
ATOM      4  C   UNL     1      47.791   6.560  13.119  0.00  0.00    +0.000 A 
ATOM      5  C   UNL     1      46.944   5.489  13.431  0.00  0.00    +0.000 A 
ATOM      6  C   UNL     1      47.032   4.971  14.732  0.00  0.00    +0.000 A 
ENDROOT
BRANCH   5   7
ATOM      7  N   UNL     1      46.076   4.982  12.478  0.00  0.00    +0.000 N 
ATOM      8  C   UNL     1      45.634   5.762  11.313  0.00  0.00    +0.000 C 
ATOM      9  C   UNL     1      44.124   6.077  11.373  0.00  0.00    +0.000 C 
ATOM     10  N   UNL     1      43.284   4.877  11.578  0.00  0.00    +0.000 NA
ATOM     11  C   UNL     1      43.725   4.213  12.823  0.00  0.00    +0.000 C 
ATOM     12  C   UNL     1      45.224   3.831  12.832  0.00  0.00    +0.000 C 
ATOM     13  H   UNL     1      43.457   4.237  10.804  0.00  0.00    +0.000 HD
ENDBRANCH   5   7
BRANCH   1  14
ATOM     14  C   UNL     1      48.157   4.721  17.025  0.00  0.00    +0.000 C 
ATOM     15  C   UNL     1      47.081   4.920  18.091  0.00  0.00    +0.000 C 
ATOM     16  C   UNL     1      47.167   3.623  17.363  0.00  0.00    +0.000 C 
BRANCH  14  17
ATOM     17  N   UNL     1      49.535   4.740  17.547  0.00  0.00    +0.000 N 
ATOM     18  H   UNL     1      50.036   5.609  17.394  0.00  0.00    +0.000 HD
BRANCH  17  23
ATOM     19  C   UNL     1      52.534   2.542  17.999  0.00  0.00    +0.000 A 
ATOM     20  C   UNL     1      52.001   1.375  17.480  0.00  0.00    +0.000 A 
ATOM     21  N   UNL     1      50.747   1.278  17.004  0.00  0.00    +0.000 NA
ATOM     22  C   UNL     1      49.994   2.406  17.065  0.00  0.00    +0.000 A 
ATOM     23  C   UNL     1      50.408   3.632  17.603  0.00  0.00    +0.000 A 
ATOM     24  C   UNL     1      51.728   3.686  18.041  0.00  0.00    +0.000 A 
ENDBRANCH  17  23
ENDBRANCH  14  17
ENDBRANCH   1  14
TORSDOF 4
ENDMDL
MODEL 9
REMARK VINA RESULT:    -5.550      3.728      6.121
REMARK INTER + INTRA:          -7.741
REMARK INTER:                  -7.128
REMARK INTRA:                  -0.613
REMARK UNBOUND:                -0.893
REMARK  Name = 
REMARK  4 active torsions:
REMARK  status: ('A' for Active; 'I' for Inactive)
REMARK    1  A    between atoms: C_5  and  N_6
REMARK    2  A    between atoms: N_6  and  C_7
REMARK    3  A    between atoms: C_7  and  C_8
REMARK    4  A    between atoms: C_12  and  N_13
REMARK                            x       y       z     vdW  Elec       q    Type
REMARK                         _______ _______ _______ _____ _____    ______ ____
ROOT
ATOM      1  C   UNL     1      48.445   7.635  14.997  0.00  0.00    +0.000 A 
ATOM      2  C   UNL     1      48.293   8.873  15.637  0.00  0.00    +0.000 A 
ATOM      3  C   UNL     1      48.535   9.013  17.001  0.00  0.00    +0.000 A 
ATOM      4  C   UNL     1      48.928   7.905  17.751  0.00  0.00    +0.000 A 
ATOM      5  C   UNL     1      49.124   6.649  17.164  0.00  0.00    +0.000 A 
ATOM      6  C   UNL     1      48.908   6.555  15.781  0.00  0.00    +0.000 A 
ENDROOT
BRANCH   5   7
ATOM      7  N   UNL     1      49.507   5.566  17.938  0.00  0.00    +0.000 N 
ATOM      8  C   UNL     1      49.380   4.177  17.476  0.00  0.00    +0.000 C 
ATOM      9  C   UNL     1      48.342   3.390  18.305  0.00  0.00    +0.000 C 
ATOM     10  N   UNL     1      48.580   3.462  19.763  0.00  0.00    +0.000 NA
ATOM     11  C   UNL     1      48.588   4.886  20.159  0.00  0.00    +0.000 C 
ATOM     12  C   UNL     1      49.629   5.742  19.398  0.00  0.00    +0.000 C 
ATOM     13  H   UNL     1      49.508   3.081  19.948  0.00  0.00    +0.000 HD
ENDBRANCH   5   7
BRANCH   1  14
ATOM     14  C   UNL     1      48.045   7.446  13.534  0.00  0.00    +0.000 C 
ATOM     15  C   UNL     1      48.608   8.434  12.513  0.00  0.00    +0.000 C 
ATOM     16  C   UNL     1      49.147   7.045  12.570  0.00  0.00    +0.000 C 
BRANCH  14  17
ATOM     17  N   UNL     1      46.630   7.095  13.317  0.00  0.00    +0.000 N 
ATOM     18  H   UNL     1      45.983   7.508  13.980  0.00  0.00    +0.000 HD
BRANCH  17  23
ATOM     19  C   UNL     1      45.011   4.445  11.224  0.00  0.00    +0.000 A 
ATOM     20  C   UNL     1      45.165   3.383  12.099  0.00  0.00    +0.000 A 
ATOM     21  N   UNL     1      45.754   3.492  13.302  0.00  0.00    +0.000 NA
ATOM     22  C   UNL     1      46.219   4.724  13.634  0.00  0.00    +0.000 A 
ATOM     23  C   UNL     1      46.157   5.862  12.819  0.00  0.00    +0.000 A 
ATOM     24  C   UNL     1      45.500   5.701  11.603  0.00  0.00    +0.000 A 
ENDBRANCH  17  23
ENDBRANCH  14  17
ENDBRANCH   1  14
TORSDOF 4
ENDMDL
