MODEL 1
REMARK VINA RESULT:    -8.476      0.000      0.000
REMARK INTER + INTRA:         -12.519
REMARK INTER:                 -11.449
REMARK INTRA:                  -1.070
REMARK UNBOUND:                -1.070
REMARK  Name = 
REMARK  6 active torsions:
REMARK  status: ('A' for Active; 'I' for Inactive)
REMARK    1  A    between atoms: C_2  and  C_19
REMARK    2  A    between atoms: N_3  and  C_4
REMARK    3  A    between atoms: C_4  and  C_5
REMARK    4  A    between atoms: C_8  and  C_9
REMARK    5  A    between atoms: C_9  and  N_10
REMARK    6  A    between atoms: N_10  and  C_11
REMARK                            x       y       z     vdW  Elec       q    Type
REMARK                         _______ _______ _______ _____ _____    ______ ____
ROOT
ATOM      1  C   UNL     1      46.878   7.895  13.239  0.00  0.00    +0.000 C 
ENDROOT
BRANCH   1   2
ATOM      2  C   UNL     1      46.101   6.918  12.397  0.00  0.00    +0.000 A 
ATOM      3  C   UNL     1      46.511   6.642  11.088  0.00  0.00    +0.000 A 
ATOM      4  C   UNL     1      45.804   5.734  10.298  0.00  0.00    +0.000 A 
ATOM      5  C   UNL     1      44.655   5.102  10.790  0.00  0.00    +0.000 A 
ATOM      6  C   UNL     1      44.240   5.377  12.101  0.00  0.00    +0.000 A 
ATOM      7  C   UNL     1      44.952   6.285  12.893  0.00  0.00    +0.000 A 
BRANCH   5   8
ATOM      8  C   UNL     1      43.871   4.157   9.907  0.00  0.00    +0.000 C 
BRANCH   8   9
ATOM      9  N   UNL     1      44.316   4.262   8.524  0.00  0.00    +0.000 N 
ATOM     10  H   UNL     1      44.587   5.211   8.280  0.00  0.00    +0.000 HD
BRANCH   9  11
ATOM     11  C   UNL     1      45.214   3.301   8.040  0.00  0.00    +0.000 A 
ATOM     12  C   UNL     1      46.152   3.558   7.035  0.00  0.00    +0.000 A 
ATOM     13  C   UNL     1      47.082   2.586   6.660  0.00  0.00    +0.000 A 
ATOM     14  C   UNL     1      47.067   1.372   7.319  0.00  0.00    +0.000 A 
ATOM     15  N   UNL     1      46.209   1.077   8.314  0.00  0.00    +0.000 NA
ATOM     16  C   UNL     1      45.327   2.050   8.657  0.00  0.00    +0.000 A 
ENDBRANCH   9  11
ENDBRANCH   8   9
ENDBRANCH   5   8
ENDBRANCH   1   2
BRANCH   1  19
ATOM     17  O   UNL     1      49.454   6.796  13.599  0.00  0.00    +0.000 OA
ATOM     18  C   UNL     1      48.665   6.789  14.539  0.00  0.00    +0.000 C 
ATOM     19  N   UNL     1      47.388   7.276  14.436  0.00  0.00    +0.000 N 
ATOM     20  H   UNL     1      46.837   7.409  15.275  0.00  0.00    +0.000 HD
BRANCH  18  21
ATOM     21  C   UNL     1      49.027   6.198  15.835  0.00  0.00    +0.000 A 
ATOM     22  C   UNL     1      50.048   6.762  16.590  0.00  0.00    +0.000 A 
ATOM     23  S   UNL     1      50.355   5.940  18.052  0.00  0.00    +0.000 S 
ATOM     24  C   UNL     1      49.106   4.826  17.752  0.00  0.00    +0.000 A 
ATOM     25  N   UNL     1      48.810   3.848  18.652  0.00  0.00    +0.000 NA
ATOM     26  C   UNL     1      47.815   3.097  18.317  0.00  0.00    +0.000 A 
ATOM     27  N   UNL     1      47.097   3.225  17.158  0.00  0.00    +0.000 N 
ATOM     28  C   UNL     1      47.405   4.150  16.189  0.00  0.00    +0.000 A 
ATOM     29  O   UNL     1      46.820   4.151  15.112  0.00  0.00    +0.000 OA
ATOM     30  C   UNL     1      48.483   5.058  16.538  0.00  0.00    +0.000 A 
ATOM     31  H   UNL     1      46.351   2.584  16.938  0.00  0.00    +0.000 HD
ENDBRANCH  18  21
ENDBRANCH   1  19
TORSDOF 6
ENDMDL
MODEL 2
REMARK VINA RESULT:    -7.891      1.975      2.449
REMARK INTER + INTRA:         -11.730
REMARK INTER:                 -10.886
REMARK INTRA:                  -0.844
REMARK UNBOUND:                -1.070
REMARK  Name = 
REMARK  6 active torsions:
REMARK  status: ('A' for Active; 'I' for Inactive)
REMARK    1  A    between atoms: C_2  and  C_19
REMARK    2  A    between atoms: N_3  and  C_4
REMARK    3  A    between atoms: C_4  and  C_5
REMARK    4  A    between atoms: C_8  and  C_9
REMARK    5  A    between atoms: C_9  and  N_10
REMARK    6  A    between atoms: N_10  and  C_11
REMARK                            x       y       z     vdW  Elec       q    Type
REMARK                         _______ _______ _______ _____ _____    ______ ____
ROOT
ATOM      1  C   UNL     1      47.853   6.722  13.626  0.00  0.00    +0.000 C 
ENDROOT
BRANCH   1   2
ATOM      2  C   UNL     1      46.833   6.066  12.733  0.00  0.00    +0.000 A 
ATOM      3  C   UNL     1      46.230   4.865  13.126  0.00  0.00    +0.000 A 
ATOM      4  C   UNL     1      45.278   4.248  12.311  0.00  0.00    +0.000 A 
ATOM      5  C   UNL     1      44.929   4.804  11.073  0.00  0.00    +0.000 A 
ATOM      6  C   UNL     1      45.533   6.006  10.677  0.00  0.00    +0.000 A 
ATOM      7  C   UNL     1      46.484   6.625  11.496  0.00  0.00    +0.000 A 
BRANCH   5   8
ATOM      8  C   UNL     1      43.932   4.100  10.180  0.00  0.00    +0.000 C 
BRANCH   8   9
ATOM      9  N   UNL     1      44.300   4.259   8.779  0.00  0.00    +0.000 N 
ATOM     10  H   UNL     1      44.539   5.220   8.552  0.00  0.00    +0.000 HD
BRANCH   9  11
ATOM     11  C   UNL     1      45.189   3.333   8.217  0.00  0.00    +0.000 A 
ATOM     12  C   UNL     1      46.120   3.661   7.226  0.00  0.00    +0.000 A 
ATOM     13  C   UNL     1      47.042   2.716   6.771  0.00  0.00    +0.000 A 
ATOM     14  C   UNL     1      47.026   1.455   7.336  0.00  0.00    +0.000 A 
ATOM     15  N   UNL     1      46.175   1.091   8.313  0.00  0.00    +0.000 NA
ATOM     16  C   UNL     1      45.301   2.039   8.736  0.00  0.00    +0.000 A 
ENDBRANCH   9  11
ENDBRANCH   8   9
ENDBRANCH   5   8
ENDBRANCH   1   2
BRANCH   1  19
ATOM     17  O   UNL     1      49.997   6.612  15.460  0.00  0.00    +0.000 OA
ATOM     18  C   UNL     1      48.897   6.190  15.802  0.00  0.00    +0.000 C 
ATOM     19  N   UNL     1      47.815   6.181  14.961  0.00  0.00    +0.000 N 
ATOM     20  H   UNL     1      46.894   5.989  15.337  0.00  0.00    +0.000 HD
BRANCH  18  21
ATOM     21  C   UNL     1      48.683   5.607  17.134  0.00  0.00    +0.000 A 
ATOM     22  C   UNL     1      48.874   4.245  17.331  0.00  0.00    +0.000 A 
ATOM     23  S   UNL     1      48.559   3.732  18.927  0.00  0.00    +0.000 S 
ATOM     24  C   UNL     1      48.198   5.317  19.424  0.00  0.00    +0.000 A 
ATOM     25  N   UNL     1      47.872   5.586  20.719  0.00  0.00    +0.000 NA
ATOM     26  C   UNL     1      47.660   6.836  20.967  0.00  0.00    +0.000 A 
ATOM     27  N   UNL     1      47.731   7.838  20.037  0.00  0.00    +0.000 N 
ATOM     28  C   UNL     1      47.986   7.605  18.708  0.00  0.00    +0.000 A 
ATOM     29  O   UNL     1      47.916   8.511  17.885  0.00  0.00    +0.000 OA
ATOM     30  C   UNL     1      48.286   6.222  18.381  0.00  0.00    +0.000 A 
ATOM     31  H   UNL     1      47.521   8.792  20.288  0.00  0.00    +0.000 HD
ENDBRANCH  18  21
ENDBRANCH   1  19
TORSDOF 6
ENDMDL
MODEL 3
REMARK VINA RESULT:    -7.876      1.627      1.984
REMARK INTER + INTRA:         -11.709
REMARK INTER:                 -10.816
REMARK INTRA:                  -0.893
REMARK UNBOUND:                -1.070
REMARK  Name = 
REMARK  6 active torsions:
REMARK  status: ('A' for Active; 'I' for Inactive)
REMARK    1  A    between atoms: C_2  and  C_19
REMARK    2  A    between atoms: N_3  and  C_4
REMARK    3  A    between atoms: C_4  and  C_5
REMARK    4  A    between atoms: C_8  and  C_9
REMARK    5  A    between atoms: C_9  and  N_10
REMARK    6  A    between atoms: N_10  and  C_11
REMARK                            x       y       z     vdW  Elec       q    Type
REMARK                         _______ _______ _______ _____ _____    ______ ____
ROOT
ATOM      1  C   UNL     1      48.396   6.657  13.448  0.00  0.00    +0.000 C 
ENDROOT
BRANCH   1   2
ATOM      2  C   UNL     1      47.200   6.073  12.743  0.00  0.00    +0.000 A 
ATOM      3  C   UNL     1      46.620   4.889  13.214  0.00  0.00    +0.000 A 
ATOM      4  C   UNL     1      45.507   4.339  12.575  0.00  0.00    +0.000 A 
ATOM      5  C   UNL     1      44.967   4.946  11.433  0.00  0.00    +0.000 A 
ATOM      6  C   UNL     1      45.547   6.131  10.958  0.00  0.00    +0.000 A 
ATOM      7  C   UNL     1      46.660   6.683  11.602  0.00  0.00    +0.000 A 
BRANCH   5   8
ATOM      8  C   UNL     1      43.791   4.313  10.722  0.00  0.00    +0.000 C 
BRANCH   8   9
ATOM      9  N   UNL     1      43.962   4.396   9.278  0.00  0.00    +0.000 N 
ATOM     10  H   UNL     1      44.093   5.353   8.961  0.00  0.00    +0.000 HD
BRANCH   9  11
ATOM     11  C   UNL     1      44.843   3.497   8.661  0.00  0.00    +0.000 A 
ATOM     12  C   UNL     1      45.802   3.881   7.718  0.00  0.00    +0.000 A 
ATOM     13  C   UNL     1      46.712   2.954   7.207  0.00  0.00    +0.000 A 
ATOM     14  C   UNL     1      46.657   1.653   7.669  0.00  0.00    +0.000 A 
ATOM     15  N   UNL     1      45.777   1.232   8.596  0.00  0.00    +0.000 NA
ATOM     16  C   UNL     1      44.915   2.164   9.077  0.00  0.00    +0.000 A 
ENDBRANCH   9  11
ENDBRANCH   8   9
ENDBRANCH   5   8
ENDBRANCH   1   2
BRANCH   1  19
ATOM     17  O   UNL     1      50.380   7.160  15.393  0.00  0.00    +0.000 OA
ATOM     18  C   UNL     1      49.227   6.950  15.757  0.00  0.00    +0.000 C 
ATOM     19  N   UNL     1      48.215   6.669  14.877  0.00  0.00    +0.000 N 
ATOM     20  H   UNL     1      47.256   6.677  15.204  0.00  0.00    +0.000 HD
BRANCH  18  21
ATOM     21  C   UNL     1      48.868   6.931  17.182  0.00  0.00    +0.000 A 
ATOM     22  C   UNL     1      48.381   8.083  17.787  0.00  0.00    +0.000 A 
ATOM     23  S   UNL     1      48.038   7.894  19.446  0.00  0.00    +0.000 S 
ATOM     24  C   UNL     1      48.485   6.254  19.408  0.00  0.00    +0.000 A 
ATOM     25  N   UNL     1      48.393   5.479  20.524  0.00  0.00    +0.000 NA
ATOM     26  C   UNL     1      48.727   4.244  20.345  0.00  0.00    +0.000 A 
ATOM     27  N   UNL     1      49.156   3.717  19.156  0.00  0.00    +0.000 N 
ATOM     28  C   UNL     1      49.332   4.476  18.025  0.00  0.00    +0.000 A 
ATOM     29  O   UNL     1      49.837   3.996  17.017  0.00  0.00    +0.000 OA
ATOM     30  C   UNL     1      48.920   5.863  18.154  0.00  0.00    +0.000 A 
ATOM     31  H   UNL     1      49.435   2.750  19.090  0.00  0.00    +0.000 HD
ENDBRANCH  18  21
ENDBRANCH   1  19
TORSDOF 6
ENDMDL
MODEL 4
REMARK VINA RESULT:    -7.328      2.581      4.469
REMARK INTER + INTRA:         -10.969
REMARK INTER:                  -9.881
REMARK INTRA:                  -1.089
REMARK UNBOUND:                -1.070
REMARK  Name = 
REMARK  6 active torsions:
REMARK  status: ('A' for Active; 'I' for Inactive)
REMARK    1  A    between atoms: C_2  and  C_19
REMARK    2  A    between atoms: N_3  and  C_4
REMARK    3  A    between atoms: C_4  and  C_5
REMARK    4  A    between atoms: C_8  and  C_9
REMARK    5  A    between atoms: C_9  and  N_10
REMARK    6  A    between atoms: N_10  and  C_11
REMARK                            x       y       z     vdW  Elec       q    Type
REMARK                         _______ _______ _______ _____ _____    ______ ____
ROOT
ATOM      1  C   UNL     1      47.333   5.386  14.310  0.00  0.00    +0.000 C 
ENDROOT
BRANCH   1   2
ATOM      2  C   UNL     1      46.476   4.986  13.138  0.00  0.00    +0.000 A 
ATOM      3  C   UNL     1      46.225   5.903  12.111  0.00  0.00    +0.000 A 
ATOM      4  C   UNL     1      45.437   5.545  11.015  0.00  0.00    +0.000 A 
ATOM      5  C   UNL     1      44.860   4.270  10.937  0.00  0.00    +0.000 A 
ATOM      6  C   UNL     1      45.108   3.351  11.965  0.00  0.00    +0.000 A 
ATOM      7  C   UNL     1      45.900   3.710  13.061  0.00  0.00    +0.000 A 
BRANCH   5   8
ATOM      8  C   UNL     1      43.969   3.911   9.768  0.00  0.00    +0.000 C 
BRANCH   8   9
ATOM      9  N   UNL     1      44.651   4.172   8.507  0.00  0.00    +0.000 N 
ATOM     10  H   UNL     1      45.025   5.116   8.461  0.00  0.00    +0.000 HD
BRANCH   9  11
ATOM     11  C   UNL     1      45.552   3.210   8.028  0.00  0.00    +0.000 A 
ATOM     12  C   UNL     1      46.656   3.518   7.228  0.00  0.00    +0.000 A 
ATOM     13  C   UNL     1      47.569   2.528   6.858  0.00  0.00    +0.000 A 
ATOM     14  C   UNL     1      47.367   1.241   7.318  0.00  0.00    +0.000 A 
ATOM     15  N   UNL     1      46.339   0.890   8.115  0.00  0.00    +0.000 NA
ATOM     16  C   UNL     1      45.479   1.882   8.461  0.00  0.00    +0.000 A 
ENDBRANCH   9  11
ENDBRANCH   8   9
ENDBRANCH   5   8
ENDBRANCH   1   2
BRANCH   1  19
ATOM     17  O   UNL     1      49.735   6.585  15.187  0.00  0.00    +0.000 OA
ATOM     18  C   UNL     1      48.859   7.291  14.697  0.00  0.00    +0.000 C 
ATOM     19  N   UNL     1      47.655   6.790  14.277  0.00  0.00    +0.000 N 
ATOM     20  H   UNL     1      47.039   7.374  13.724  0.00  0.00    +0.000 HD
BRANCH  18  21
ATOM     21  C   UNL     1      49.027   8.747  14.583  0.00  0.00    +0.000 A 
ATOM     22  C   UNL     1      49.178   9.517  15.730  0.00  0.00    +0.000 A 
ATOM     23  S   UNL     1      49.336  11.186  15.420  0.00  0.00    +0.000 S 
ATOM     24  C   UNL     1      49.251  10.938  13.740  0.00  0.00    +0.000 A 
ATOM     25  N   UNL     1      49.358  11.983  12.873  0.00  0.00    +0.000 NA
ATOM     26  C   UNL     1      49.317  11.649  11.627  0.00  0.00    +0.000 A 
ATOM     27  N   UNL     1      49.165  10.367  11.168  0.00  0.00    +0.000 N 
ATOM     28  C   UNL     1      48.982   9.293  12.004  0.00  0.00    +0.000 A 
ATOM     29  O   UNL     1      48.723   8.182  11.555  0.00  0.00    +0.000 OA
ATOM     30  C   UNL     1      49.074   9.604  13.420  0.00  0.00    +0.000 A 
ATOM     31  H   UNL     1      49.105  10.175  10.179  0.00  0.00    +0.000 HD
ENDBRANCH  18  21
ENDBRANCH   1  19
TORSDOF 6
ENDMDL
MODEL 5
REMARK VINA RESULT:    -6.954      2.865      3.772
REMARK INTER + INTRA:         -10.464
REMARK INTER:                  -9.576
REMARK INTRA:                  -0.888
REMARK UNBOUND:                -1.070
REMARK  Name = 
REMARK  6 active torsions:
REMARK  status: ('A' for Active; 'I' for Inactive)
REMARK    1  A    between atoms: C_2  and  C_19
REMARK    2  A    between atoms: N_3  and  C_4
REMARK    3  A    between atoms: C_4  and  C_5
REMARK    4  A    between atoms: C_8  and  C_9
REMARK    5  A    between atoms: C_9  and  N_10
REMARK    6  A    between atoms: N_10  and  C_11
REMARK                            x       y       z     vdW  Elec       q    Type
REMARK                         _______ _______ _______ _____ _____    ______ ____
ROOT
ATOM      1  C   UNL     1      47.460   5.063  14.634  0.00  0.00    +0.000 C 
ENDROOT
BRANCH   1   2
ATOM      2  C   UNL     1      46.585   4.837  13.430  0.00  0.00    +0.000 A 
ATOM      3  C   UNL     1      46.373   5.874  12.514  0.00  0.00    +0.000 A 
ATOM      4  C   UNL     1      45.569   5.677  11.390  0.00  0.00    +0.000 A 
ATOM      5  C   UNL     1      44.935   4.447  11.172  0.00  0.00    +0.000 A 
ATOM      6  C   UNL     1      45.143   3.407  12.088  0.00  0.00    +0.000 A 
ATOM      7  C   UNL     1      45.953   3.604  13.213  0.00  0.00    +0.000 A 
BRANCH   5   8
ATOM      8  C   UNL     1      44.028   4.262   9.976  0.00  0.00    +0.000 C 
BRANCH   8   9
ATOM      9  N   UNL     1      44.760   4.494   8.738  0.00  0.00    +0.000 N 
ATOM     10  H   UNL     1      45.178   5.420   8.707  0.00  0.00    +0.000 HD
BRANCH   9  11
ATOM     11  C   UNL     1      45.630   3.492   8.284  0.00  0.00    +0.000 A 
ATOM     12  C   UNL     1      45.474   2.138   8.592  0.00  0.00    +0.000 A 
ATOM     13  C   UNL     1      46.319   1.176   8.034  0.00  0.00    +0.000 A 
ATOM     14  C   UNL     1      47.300   1.592   7.155  0.00  0.00    +0.000 A 
ATOM     15  N   UNL     1      47.480   2.878   6.797  0.00  0.00    +0.000 NA
ATOM     16  C   UNL     1      46.632   3.782   7.352  0.00  0.00    +0.000 A 
ENDBRANCH   9  11
ENDBRANCH   8   9
ENDBRANCH   5   8
ENDBRANCH   1   2
BRANCH   1  19
ATOM     17  O   UNL     1      49.744   6.236  15.810  0.00  0.00    +0.000 OA
ATOM     18  C   UNL     1      48.831   6.961  15.427  0.00  0.00    +0.000 C 
ATOM     19  N   UNL     1      47.678   6.467  14.874  0.00  0.00    +0.000 N 
ATOM     20  H   UNL     1      47.035   7.101  14.417  0.00  0.00    +0.000 HD
BRANCH  18  21
ATOM     21  C   UNL     1      48.893   8.420  15.592  0.00  0.00    +0.000 A 
ATOM     22  C   UNL     1      49.369   9.212  14.554  0.00  0.00    +0.000 A 
ATOM     23  S   UNL     1      49.398  10.877  14.921  0.00  0.00    +0.000 S 
ATOM     24  C   UNL     1      48.735  10.606  16.463  0.00  0.00    +0.000 A 
ATOM     25  N   UNL     1      48.468  11.645  17.302  0.00  0.00    +0.000 NA
ATOM     26  C   UNL     1      47.930  11.300  18.424  0.00  0.00    +0.000 A 
ATOM     27  N   UNL     1      47.647  10.011  18.790  0.00  0.00    +0.000 N 
ATOM     28  C   UNL     1      47.965   8.928  18.007  0.00  0.00    +0.000 A 
ATOM     29  O   UNL     1      47.812   7.784  18.422  0.00  0.00    +0.000 OA
ATOM     30  C   UNL     1      48.523   9.260  16.708  0.00  0.00    +0.000 A 
ATOM     31  H   UNL     1      47.257   9.804  19.697  0.00  0.00    +0.000 HD
ENDBRANCH  18  21
ENDBRANCH   1  19
TORSDOF 6
ENDMDL
MODEL 6
REMARK VINA RESULT:    -6.861      3.712      5.531
REMARK INTER + INTRA:         -10.338
REMARK INTER:                  -9.636
REMARK INTRA:                  -0.702
REMARK UNBOUND:                -1.070
REMARK  Name = 
REMARK  6 active torsions:
REMARK  status: ('A' for Active; 'I' for Inactive)
REMARK    1  A    between atoms: C_2  and  C_19
REMARK    2  A    between atoms: N_3  and  C_4
REMARK    3  A    between atoms: C_4  and  C_5
REMARK    4  A    between atoms: C_8  and  C_9
REMARK    5  A    between atoms: C_9  and  N_10
REMARK    6  A    between atoms: N_10  and  C_11
REMARK                            x       y       z     vdW  Elec       q    Type
REMARK                         _______ _______ _______ _____ _____    ______ ____
ROOT
ATOM      1  C   UNL     1      46.372   4.052  14.180  0.00  0.00    +0.000 C 
ENDROOT
BRANCH   1   2
ATOM      2  C   UNL     1      45.903   5.245  13.390  0.00  0.00    +0.000 A 
ATOM      3  C   UNL     1      46.683   6.406  13.347  0.00  0.00    +0.000 A 
ATOM      4  C   UNL     1      46.264   7.519  12.614  0.00  0.00    +0.000 A 
ATOM      5  C   UNL     1      45.041   7.503  11.931  0.00  0.00    +0.000 A 
ATOM      6  C   UNL     1      44.257   6.342  11.973  0.00  0.00    +0.000 A 
ATOM      7  C   UNL     1      44.680   5.227  12.705  0.00  0.00    +0.000 A 
BRANCH   5   8
ATOM      8  C   UNL     1      44.577   8.732  11.180  0.00  0.00    +0.000 C 
BRANCH   8   9
ATOM      9  N   UNL     1      43.127   8.729  11.042  0.00  0.00    +0.000 N 
ATOM     10  H   UNL     1      42.662   8.396  11.883  0.00  0.00    +0.000 HD
BRANCH   9  11
ATOM     11  C   UNL     1      42.509   9.863  10.496  0.00  0.00    +0.000 A 
ATOM     12  C   UNL     1      43.092  10.655   9.503  0.00  0.00    +0.000 A 
ATOM     13  C   UNL     1      42.389  11.719   8.933  0.00  0.00    +0.000 A 
ATOM     14  C   UNL     1      41.096  11.957   9.359  0.00  0.00    +0.000 A 
ATOM     15  N   UNL     1      40.472  11.211  10.290  0.00  0.00    +0.000 NA
ATOM     16  C   UNL     1      41.184  10.180  10.813  0.00  0.00    +0.000 A 
ENDBRANCH   9  11
ENDBRANCH   8   9
ENDBRANCH   5   8
ENDBRANCH   1   2
BRANCH   1  19
ATOM     17  O   UNL     1      46.564   3.357  16.910  0.00  0.00    +0.000 OA
ATOM     18  C   UNL     1      47.473   4.000  16.392  0.00  0.00    +0.000 C 
ATOM     19  N   UNL     1      47.440   4.401  15.083  0.00  0.00    +0.000 N 
ATOM     20  H   UNL     1      48.280   4.773  14.655  0.00  0.00    +0.000 HD
BRANCH  18  21
ATOM     21  C   UNL     1      48.641   4.435  17.171  0.00  0.00    +0.000 A 
ATOM     22  C   UNL     1      48.644   5.688  17.770  0.00  0.00    +0.000 A 
ATOM     23  S   UNL     1      50.084   6.042  18.613  0.00  0.00    +0.000 S 
ATOM     24  C   UNL     1      50.739   4.517  18.245  0.00  0.00    +0.000 A 
ATOM     25  N   UNL     1      51.968   4.154  18.706  0.00  0.00    +0.000 NA
ATOM     26  C   UNL     1      52.327   2.956  18.386  0.00  0.00    +0.000 A 
ATOM     27  N   UNL     1      51.574   2.091  17.636  0.00  0.00    +0.000 N 
ATOM     28  C   UNL     1      50.362   2.439  17.091  0.00  0.00    +0.000 A 
ATOM     29  O   UNL     1      49.778   1.684  16.322  0.00  0.00    +0.000 OA
ATOM     30  C   UNL     1      49.885   3.759  17.464  0.00  0.00    +0.000 A 
ATOM     31  H   UNL     1      51.926   1.179  17.391  0.00  0.00    +0.000 HD
ENDBRANCH  18  21
ENDBRANCH   1  19
TORSDOF 6
ENDMDL
MODEL 7
REMARK VINA RESULT:    -6.724      4.225      8.976
REMARK INTER + INTRA:         -10.153
REMARK INTER:                  -9.375
REMARK INTRA:                  -0.778
REMARK UNBOUND:                -1.070
REMARK  Name = 
REMARK  6 active torsions:
REMARK  status: ('A' for Active; 'I' for Inactive)
REMARK    1  A    between atoms: C_2  and  C_19
REMARK    2  A    between atoms: N_3  and  C_4
REMARK    3  A    between atoms: C_4  and  C_5
REMARK    4  A    between atoms: C_8  and  C_9
REMARK    5  A    between atoms: C_9  and  N_10
REMARK    6  A    between atoms: N_10  and  C_11
REMARK                            x       y       z     vdW  Elec       q    Type
REMARK                         _______ _______ _______ _____ _____    ______ ____
ROOT
ATOM      1  C   UNL     1      47.079   3.383  16.908  0.00  0.00    +0.000 C 
ENDROOT
BRANCH   1   2
ATOM      2  C   UNL     1      48.560   3.314  17.168  0.00  0.00    +0.000 A 
ATOM      3  C   UNL     1      49.213   4.388  17.783  0.00  0.00    +0.000 A 
ATOM      4  C   UNL     1      50.585   4.337  18.036  0.00  0.00    +0.000 A 
ATOM      5  C   UNL     1      51.340   3.220  17.654  0.00  0.00    +0.000 A 
ATOM      6  C   UNL     1      50.689   2.143  17.036  0.00  0.00    +0.000 A 
ATOM      7  C   UNL     1      49.313   2.195  16.786  0.00  0.00    +0.000 A 
BRANCH   5   8
ATOM      8  C   UNL     1      52.834   3.197  17.890  0.00  0.00    +0.000 C 
BRANCH   8   9
ATOM      9  N   UNL     1      53.195   2.096  18.773  0.00  0.00    +0.000 N 
ATOM     10  H   UNL     1      52.435   1.841  19.398  0.00  0.00    +0.000 HD
BRANCH   9  11
ATOM     11  C   UNL     1      53.834   0.980  18.215  0.00  0.00    +0.000 A 
ATOM     12  C   UNL     1      53.623  -0.330  18.655  0.00  0.00    +0.000 A 
ATOM     13  C   UNL     1      54.219  -1.409  17.999  0.00  0.00    +0.000 A 
ATOM     14  C   UNL     1      55.007  -1.153  16.893  0.00  0.00    +0.000 A 
ATOM     15  N   UNL     1      55.223   0.083  16.405  0.00  0.00    +0.000 NA
ATOM     16  C   UNL     1      54.618   1.105  17.063  0.00  0.00    +0.000 A 
ENDBRANCH   9  11
ENDBRANCH   8   9
ENDBRANCH   5   8
ENDBRANCH   1   2
BRANCH   1  19
ATOM     17  O   UNL     1      47.352   3.084  14.113  0.00  0.00    +0.000 OA
ATOM     18  C   UNL     1      46.898   4.133  14.560  0.00  0.00    +0.000 C 
ATOM     19  N   UNL     1      46.762   4.366  15.903  0.00  0.00    +0.000 N 
ATOM     20  H   UNL     1      46.226   5.166  16.218  0.00  0.00    +0.000 HD
BRANCH  18  21
ATOM     21  C   UNL     1      46.519   5.241  13.671  0.00  0.00    +0.000 A 
ATOM     22  C   UNL     1      47.435   6.249  13.395  0.00  0.00    +0.000 A 
ATOM     23  S   UNL     1      46.826   7.466  12.369  0.00  0.00    +0.000 S 
ATOM     24  C   UNL     1      45.331   6.671  12.220  0.00  0.00    +0.000 A 
ATOM     25  N   UNL     1      44.343   7.180  11.433  0.00  0.00    +0.000 NA
ATOM     26  C   UNL     1      43.276   6.455  11.379  0.00  0.00    +0.000 A 
ATOM     27  N   UNL     1      43.101   5.274  12.051  0.00  0.00    +0.000 N 
ATOM     28  C   UNL     1      44.041   4.759  12.910  0.00  0.00    +0.000 A 
ATOM     29  O   UNL     1      43.797   3.768  13.589  0.00  0.00    +0.000 OA
ATOM     30  C   UNL     1      45.285   5.507  12.968  0.00  0.00    +0.000 A 
ATOM     31  H   UNL     1      42.229   4.771  11.994  0.00  0.00    +0.000 HD
ENDBRANCH  18  21
ENDBRANCH   1  19
TORSDOF 6
ENDMDL
MODEL 8
REMARK VINA RESULT:    -6.691      3.352      7.651
REMARK INTER + INTRA:         -10.108
REMARK INTER:                  -8.752
REMARK INTRA:                  -1.356
REMARK UNBOUND:                -1.070
REMARK  Name = 
REMARK  6 active torsions:
REMARK  status: ('A' for Active; 'I' for Inactive)
REMARK    1  A    between atoms: C_2  and  C_19
REMARK    2  A    between atoms: N_3  and  C_4
REMARK    3  A    between atoms: C_4  and  C_5
REMARK    4  A    between atoms: C_8  and  C_9
REMARK    5  A    between atoms: C_9  and  N_10
REMARK    6  A    between atoms: N_10  and  C_11
REMARK                            x       y       z     vdW  Elec       q    Type
REMARK                         _______ _______ _______ _____ _____    ______ ____
ROOT
ATOM      1  C   UNL     1      48.195   8.996  15.093  0.00  0.00    +0.000 C 
ENDROOT
BRANCH   1   2
ATOM      2  C   UNL     1      48.972   8.099  16.021  0.00  0.00    +0.000 A 
ATOM      3  C   UNL     1      48.649   8.052  17.382  0.00  0.00    +0.000 A 
ATOM      4  C   UNL     1      49.357   7.222  18.253  0.00  0.00    +0.000 A 
ATOM      5  C   UNL     1      50.422   6.441  17.786  0.00  0.00    +0.000 A 
ATOM      6  C   UNL     1      50.750   6.487  16.424  0.00  0.00    +0.000 A 
ATOM      7  C   UNL     1      50.037   7.317  15.552  0.00  0.00    +0.000 A 
BRANCH   5   8
ATOM      8  C   UNL     1      51.212   5.582  18.749  0.00  0.00    +0.000 C 
BRANCH   8   9
ATOM      9  N   UNL     1      50.383   4.501  19.267  0.00  0.00    +0.000 N 
ATOM     10  H   UNL     1      49.765   4.813  20.010  0.00  0.00    +0.000 HD
BRANCH   9  11
ATOM     11  C   UNL     1      49.742   3.658  18.348  0.00  0.00    +0.000 A 
ATOM     12  C   UNL     1      48.363   3.680  18.114  0.00  0.00    +0.000 A 
ATOM     13  C   UNL     1      47.795   2.880  17.120  0.00  0.00    +0.000 A 
ATOM     14  C   UNL     1      48.628   2.082  16.360  0.00  0.00    +0.000 A 
ATOM     15  N   UNL     1      49.965   2.041  16.520  0.00  0.00    +0.000 NA
ATOM     16  C   UNL     1      50.481   2.840  17.488  0.00  0.00    +0.000 A 
ENDBRANCH   9  11
ENDBRANCH   8   9
ENDBRANCH   5   8
ENDBRANCH   1   2
BRANCH   1  19
ATOM     17  O   UNL     1      48.355   7.849  12.518  0.00  0.00    +0.000 OA
ATOM     18  C   UNL     1      47.320   7.722  13.165  0.00  0.00    +0.000 C 
ATOM     19  N   UNL     1      47.153   8.274  14.408  0.00  0.00    +0.000 N 
ATOM     20  H   UNL     1      46.358   7.998  14.972  0.00  0.00    +0.000 HD
BRANCH  18  21
ATOM     21  C   UNL     1      46.158   7.008  12.615  0.00  0.00    +0.000 A 
ATOM     22  C   UNL     1      45.186   7.709  11.912  0.00  0.00    +0.000 A 
ATOM     23  S   UNL     1      43.898   6.735  11.366  0.00  0.00    +0.000 S 
ATOM     24  C   UNL     1      44.612   5.333  12.011  0.00  0.00    +0.000 A 
ATOM     25  N   UNL     1      44.021   4.115  11.860  0.00  0.00    +0.000 NA
ATOM     26  C   UNL     1      44.689   3.132  12.364  0.00  0.00    +0.000 A 
ATOM     27  N   UNL     1      45.887   3.257  13.017  0.00  0.00    +0.000 N 
ATOM     28  C   UNL     1      46.484   4.471  13.254  0.00  0.00    +0.000 A 
ATOM     29  O   UNL     1      47.489   4.553  13.951  0.00  0.00    +0.000 OA
ATOM     30  C   UNL     1      45.802   5.608  12.662  0.00  0.00    +0.000 A 
ATOM     31  H   UNL     1      46.343   2.452  13.418  0.00  0.00    +0.000 HD
ENDBRANCH  18  21
ENDBRANCH   1  19
TORSDOF 6
ENDMDL
MODEL 9
REMARK VINA RESULT:    -6.595      2.465      3.348
REMARK INTER + INTRA:          -9.979
REMARK INTER:                  -8.588
REMARK INTRA:                  -1.390
REMARK UNBOUND:                -1.070
REMARK  Name = 
REMARK  6 active torsions:
REMARK  status: ('A' for Active; 'I' for Inactive)
REMARK    1  A    between atoms: C_2  and  C_19
REMARK    2  A    between atoms: N_3  and  C_4
REMARK    3  A    between atoms: C_4  and  C_5
REMARK    4  A    between atoms: C_8  and  C_9
REMARK    5  A    between atoms: C_9  and  N_10
REMARK    6  A    between atoms: N_10  and  C_11
REMARK                            x       y       z     vdW  Elec       q    Type
REMARK                         _______ _______ _______ _____ _____    ______ ____
ROOT
ATOM      1  C   UNL     1      49.439   7.998  13.929  0.00  0.00    +0.000 C 
ENDROOT
BRANCH   1   2
ATOM      2  C   UNL     1      48.144   7.928  13.163  0.00  0.00    +0.000 A 
ATOM      3  C   UNL     1      47.059   8.723  13.550  0.00  0.00    +0.000 A 
ATOM      4  C   UNL     1      45.854   8.673  12.847  0.00  0.00    +0.000 A 
ATOM      5  C   UNL     1      45.698   7.806  11.758  0.00  0.00    +0.000 A 
ATOM      6  C   UNL     1      46.782   7.007  11.369  0.00  0.00    +0.000 A 
ATOM      7  C   UNL     1      47.991   7.061  12.073  0.00  0.00    +0.000 A 
BRANCH   5   8
ATOM      8  C   UNL     1      44.372   7.727  11.035  0.00  0.00    +0.000 C 
BRANCH   8   9
ATOM      9  N   UNL     1      43.420   6.931  11.798  0.00  0.00    +0.000 N 
ATOM     10  H   UNL     1      42.463   7.245  11.666  0.00  0.00    +0.000 HD
BRANCH   9  11
ATOM     11  C   UNL     1      43.541   5.534  11.760  0.00  0.00    +0.000 A 
ATOM     12  C   UNL     1      43.501   4.724  12.899  0.00  0.00    +0.000 A 
ATOM     13  C   UNL     1      43.534   3.333  12.788  0.00  0.00    +0.000 A 
ATOM     14  C   UNL     1      43.587   2.774  11.525  0.00  0.00    +0.000 A 
ATOM     15  N   UNL     1      43.597   3.501  10.392  0.00  0.00    +0.000 NA
ATOM     16  C   UNL     1      43.554   4.850  10.540  0.00  0.00    +0.000 A 
ENDBRANCH   9  11
ENDBRANCH   8   9
ENDBRANCH   5   8
ENDBRANCH   1   2
BRANCH   1  19
ATOM     17  O   UNL     1      48.921   8.614  16.635  0.00  0.00    +0.000 OA
ATOM     18  C   UNL     1      49.160   7.451  16.323  0.00  0.00    +0.000 C 
ATOM     19  N   UNL     1      49.450   7.077  15.037  0.00  0.00    +0.000 N 
ATOM     20  H   UNL     1      49.467   6.093  14.797  0.00  0.00    +0.000 HD
BRANCH  18  21
ATOM     21  C   UNL     1      49.206   6.383  17.331  0.00  0.00    +0.000 A 
ATOM     22  C   UNL     1      49.923   6.573  18.506  0.00  0.00    +0.000 A 
ATOM     23  S   UNL     1      49.892   5.228  19.553  0.00  0.00    +0.000 S 
ATOM     24  C   UNL     1      48.885   4.358  18.496  0.00  0.00    +0.000 A 
ATOM     25  N   UNL     1      48.447   3.109  18.817  0.00  0.00    +0.000 NA
ATOM     26  C   UNL     1      47.657   2.579  17.943  0.00  0.00    +0.000 A 
ATOM     27  N   UNL     1      47.276   3.178  16.772  0.00  0.00    +0.000 N 
ATOM     28  C   UNL     1      47.749   4.404  16.374  0.00  0.00    +0.000 A 
ATOM     29  O   UNL     1      47.486   4.851  15.263  0.00  0.00    +0.000 OA
ATOM     30  C   UNL     1      48.600   5.071  17.345  0.00  0.00    +0.000 A 
ATOM     31  H   UNL     1      46.683   2.696  16.114  0.00  0.00    +0.000 HD
ENDBRANCH  18  21
ENDBRANCH   1  19
TORSDOF 6
ENDMDL
