MODEL 1
REMARK VINA RESULT:    -8.551      0.000      0.000
REMARK INTER + INTRA:         -12.540
REMARK INTER:                 -11.300
REMARK INTRA:                  -1.240
REMARK UNBOUND:                -1.240
REMARK  Name = 
REMARK  6 active torsions:
REMARK  status: ('A' for Active; 'I' for Inactive)
REMARK    1  A    between atoms: N_1  and  C_2
REMARK    2  A    between atoms: C_4  and  N_5
REMARK    3  A    between atoms: N_5  and  C_6
REMARK    4  A    between atoms: C_6  and  C_7
REMARK    5  A    between atoms: C_11  and  C_12
REMARK    6  A    between atoms: C_21  and  C_22
REMARK                            x       y       z     vdW  Elec       q    Type
REMARK                         _______ _______ _______ _____ _____    ______ ____
ROOT
ATOM      1  N   UNL     1      43.740   4.772   9.814  0.00  0.00    +0.000 N 
ATOM      2  H   UNL     1      43.659   5.707   9.429  0.00  0.00    +0.000 HD
ENDROOT
BRANCH   1   5
ATOM      3  C   UNL     1      46.317   3.403   7.459  0.00  0.00    +0.000 A 
ATOM      4  C   UNL     1      45.436   4.301   8.095  0.00  0.00    +0.000 A 
ATOM      5  C   UNL     1      44.524   3.898   9.076  0.00  0.00    +0.000 A 
ATOM      6  C   UNL     1      44.492   2.541   9.405  0.00  0.00    +0.000 A 
ATOM      7  C   UNL     1      45.322   1.623   8.758  0.00  0.00    +0.000 A 
ATOM      8  C   UNL     1      46.236   2.039   7.772  0.00  0.00    +0.000 A 
BRANCH   8   9
ATOM      9  C   UNL     1      47.110   0.985   7.137  0.00  0.00    +0.000 C 
ATOM     10  F   UNL     1      46.915   0.810   5.797  0.00  0.00    +0.000 F 
ATOM     11  F   UNL     1      48.437   1.276   7.268  0.00  0.00    +0.000 F 
ATOM     12  F   UNL     1      46.947  -0.243   7.701  0.00  0.00    +0.000 F 
ENDBRANCH   8   9
BRANCH   3  13
ATOM     13  N   UNL     1      47.077   3.883   6.381  0.00  0.00    +0.000 N 
ATOM     14  H   UNL     1      48.025   4.153   6.621  0.00  0.00    +0.000 HD
ATOM     15  H   UNL     1      47.039   3.322   5.531  0.00  0.00    +0.000 HD
ENDBRANCH   3  13
ENDBRANCH   1   5
BRANCH   1  16
ATOM     16  C   UNL     1      43.575   4.704  11.255  0.00  0.00    +0.000 C 
BRANCH  16  17
ATOM     17  C   UNL     1      44.847   4.909  12.049  0.00  0.00    +0.000 A 
ATOM     18  C   UNL     1      45.412   3.938  12.882  0.00  0.00    +0.000 A 
ATOM     19  C   UNL     1      46.600   4.196  13.562  0.00  0.00    +0.000 A 
ATOM     20  C   UNL     1      47.248   5.421  13.402  0.00  0.00    +0.000 A 
ATOM     21  C   UNL     1      46.739   6.413  12.548  0.00  0.00    +0.000 A 
ATOM     22  C   UNL     1      45.516   6.143  11.908  0.00  0.00    +0.000 A 
BRANCH  21  23
ATOM     23  C   UNL     1      47.503   7.650  12.257  0.00  0.00    +0.000 A 
ATOM     24  C   UNL     1      48.860   7.579  11.886  0.00  0.00    +0.000 A 
ATOM     25  C   UNL     1      49.585   8.717  11.528  0.00  0.00    +0.000 A 
ATOM     26  C   UNL     1      48.966   9.961  11.526  0.00  0.00    +0.000 A 
ATOM     27  C   UNL     1      47.628  10.067  11.899  0.00  0.00    +0.000 A 
ATOM     28  C   UNL     1      46.907   8.924  12.269  0.00  0.00    +0.000 A 
ENDBRANCH  21  23
ENDBRANCH  16  17
ENDBRANCH   1  16
TORSDOF 6
ENDMDL
MODEL 2
REMARK VINA RESULT:    -8.171      1.747      3.512
REMARK INTER + INTRA:         -12.039
REMARK INTER:                 -10.987
REMARK INTRA:                  -1.051
REMARK UNBOUND:                -1.240
REMARK  Name = 
REMARK  6 active torsions:
REMARK  status: ('A' for Active; 'I' for Inactive)
REMARK    1  A    between atoms: N_1  and  C_2
REMARK    2  A    between atoms: C_4  and  N_5
REMARK    3  A    between atoms: N_5  and  C_6
REMARK    4  A    between atoms: C_6  and  C_7
REMARK    5  A    between atoms: C_11  and  C_12
REMARK    6  A    between atoms: C_21  and  C_22
REMARK                            x       y       z     vdW  Elec       q    Type
REMARK                         _______ _______ _______ _____ _____    ______ ____
ROOT
ATOM      1  N   UNL     1      43.976   4.910  10.176  0.00  0.00    +0.000 N 
ATOM      2  H   UNL     1      43.729   5.790   9.736  0.00  0.00    +0.000 HD
ENDROOT
BRANCH   1   5
ATOM      3  C   UNL     1      46.350   3.493   7.643  0.00  0.00    +0.000 A 
ATOM      4  C   UNL     1      45.553   4.412   8.354  0.00  0.00    +0.000 A 
ATOM      5  C   UNL     1      44.673   4.023   9.369  0.00  0.00    +0.000 A 
ATOM      6  C   UNL     1      44.586   2.658   9.655  0.00  0.00    +0.000 A 
ATOM      7  C   UNL     1      45.331   1.722   8.936  0.00  0.00    +0.000 A 
ATOM      8  C   UNL     1      46.213   2.125   7.916  0.00  0.00    +0.000 A 
BRANCH   8   9
ATOM      9  C   UNL     1      46.996   1.050   7.201  0.00  0.00    +0.000 C 
ATOM     10  F   UNL     1      46.779  -0.217   7.660  0.00  0.00    +0.000 F 
ATOM     11  F   UNL     1      46.697   1.002   5.870  0.00  0.00    +0.000 F 
ATOM     12  F   UNL     1      48.341   1.247   7.267  0.00  0.00    +0.000 F 
ENDBRANCH   8   9
BRANCH   3  13
ATOM     13  N   UNL     1      47.078   3.971   6.541  0.00  0.00    +0.000 N 
ATOM     14  H   UNL     1      47.303   4.960   6.582  0.00  0.00    +0.000 HD
ATOM     15  H   UNL     1      47.877   3.404   6.263  0.00  0.00    +0.000 HD
ENDBRANCH   3  13
ENDBRANCH   1   5
BRANCH   1  16
ATOM     16  C   UNL     1      44.117   4.985  11.620  0.00  0.00    +0.000 C 
BRANCH  16  17
ATOM     17  C   UNL     1      45.457   5.499  12.100  0.00  0.00    +0.000 A 
ATOM     18  C   UNL     1      46.212   6.463  11.422  0.00  0.00    +0.000 A 
ATOM     19  C   UNL     1      47.426   6.903  11.943  0.00  0.00    +0.000 A 
ATOM     20  C   UNL     1      47.893   6.400  13.158  0.00  0.00    +0.000 A 
ATOM     21  C   UNL     1      47.153   5.460  13.894  0.00  0.00    +0.000 A 
ATOM     22  C   UNL     1      45.951   5.000  13.323  0.00  0.00    +0.000 A 
BRANCH  21  23
ATOM     23  C   UNL     1      47.567   5.042  15.254  0.00  0.00    +0.000 A 
ATOM     24  C   UNL     1      47.077   3.846  15.813  0.00  0.00    +0.000 A 
ATOM     25  C   UNL     1      47.508   3.385  17.058  0.00  0.00    +0.000 A 
ATOM     26  C   UNL     1      48.451   4.110  17.777  0.00  0.00    +0.000 A 
ATOM     27  C   UNL     1      48.947   5.303  17.258  0.00  0.00    +0.000 A 
ATOM     28  C   UNL     1      48.503   5.769  16.013  0.00  0.00    +0.000 A 
ENDBRANCH  21  23
ENDBRANCH  16  17
ENDBRANCH   1  16
TORSDOF 6
ENDMDL
MODEL 3
REMARK VINA RESULT:    -7.591      1.587      2.183
REMARK INTER + INTRA:         -11.272
REMARK INTER:                 -10.052
REMARK INTRA:                  -1.219
REMARK UNBOUND:                -1.240
REMARK  Name = 
REMARK  6 active torsions:
REMARK  status: ('A' for Active; 'I' for Inactive)
REMARK    1  A    between atoms: N_1  and  C_2
REMARK    2  A    between atoms: C_4  and  N_5
REMARK    3  A    between atoms: N_5  and  C_6
REMARK    4  A    between atoms: C_6  and  C_7
REMARK    5  A    between atoms: C_11  and  C_12
REMARK    6  A    between atoms: C_21  and  C_22
REMARK                            x       y       z     vdW  Elec       q    Type
REMARK                         _______ _______ _______ _____ _____    ______ ____
ROOT
ATOM      1  N   UNL     1      43.503   3.531  10.877  0.00  0.00    +0.000 N 
ATOM      2  H   UNL     1      42.746   4.168  10.649  0.00  0.00    +0.000 HD
ENDROOT
BRANCH   1   5
ATOM      3  C   UNL     1      45.706   1.853   8.350  0.00  0.00    +0.000 A 
ATOM      4  C   UNL     1      44.881   2.053   9.476  0.00  0.00    +0.000 A 
ATOM      5  C   UNL     1      44.419   3.316   9.860  0.00  0.00    +0.000 A 
ATOM      6  C   UNL     1      44.823   4.409   9.089  0.00  0.00    +0.000 A 
ATOM      7  C   UNL     1      45.676   4.245   7.996  0.00  0.00    +0.000 A 
ATOM      8  C   UNL     1      46.135   2.969   7.619  0.00  0.00    +0.000 A 
BRANCH   8   9
ATOM      9  C   UNL     1      47.038   2.877   6.412  0.00  0.00    +0.000 C 
ATOM     10  F   UNL     1      46.732   1.870   5.543  0.00  0.00    +0.000 F 
ATOM     11  F   UNL     1      47.003   4.017   5.663  0.00  0.00    +0.000 F 
ATOM     12  F   UNL     1      48.345   2.698   6.746  0.00  0.00    +0.000 F 
ENDBRANCH   8   9
BRANCH   3  13
ATOM     13  N   UNL     1      46.240   0.570   8.148  0.00  0.00    +0.000 N 
ATOM     14  H   UNL     1      46.677   0.162   8.969  0.00  0.00    +0.000 HD
ATOM     15  H   UNL     1      45.630  -0.089   7.667  0.00  0.00    +0.000 HD
ENDBRANCH   3  13
ENDBRANCH   1   5
BRANCH   1  16
ATOM     16  C   UNL     1      43.824   3.473  12.293  0.00  0.00    +0.000 C 
BRANCH  16  17
ATOM     17  C   UNL     1      44.992   4.339  12.714  0.00  0.00    +0.000 A 
ATOM     18  C   UNL     1      46.173   3.838  13.273  0.00  0.00    +0.000 A 
ATOM     19  C   UNL     1      47.213   4.699  13.613  0.00  0.00    +0.000 A 
ATOM     20  C   UNL     1      47.094   6.070  13.380  0.00  0.00    +0.000 A 
ATOM     21  C   UNL     1      45.943   6.615  12.787  0.00  0.00    +0.000 A 
ATOM     22  C   UNL     1      44.891   5.728  12.494  0.00  0.00    +0.000 A 
BRANCH  21  23
ATOM     23  C   UNL     1      45.876   8.043  12.397  0.00  0.00    +0.000 A 
ATOM     24  C   UNL     1      46.994   8.882  12.567  0.00  0.00    +0.000 A 
ATOM     25  C   UNL     1      46.989  10.210  12.138  0.00  0.00    +0.000 A 
ATOM     26  C   UNL     1      45.862  10.734  11.516  0.00  0.00    +0.000 A 
ATOM     27  C   UNL     1      44.736   9.934  11.343  0.00  0.00    +0.000 A 
ATOM     28  C   UNL     1      44.740   8.605  11.786  0.00  0.00    +0.000 A 
ENDBRANCH  21  23
ENDBRANCH  16  17
ENDBRANCH   1  16
TORSDOF 6
ENDMDL
MODEL 4
REMARK VINA RESULT:    -7.417      3.880      7.255
REMARK INTER + INTRA:         -11.042
REMARK INTER:                 -10.042
REMARK INTRA:                  -1.000
REMARK UNBOUND:                -1.240
REMARK  Name = 
REMARK  6 active torsions:
REMARK  status: ('A' for Active; 'I' for Inactive)
REMARK    1  A    between atoms: N_1  and  C_2
REMARK    2  A    between atoms: C_4  and  N_5
REMARK    3  A    between atoms: N_5  and  C_6
REMARK    4  A    between atoms: C_6  and  C_7
REMARK    5  A    between atoms: C_11  and  C_12
REMARK    6  A    between atoms: C_21  and  C_22
REMARK                            x       y       z     vdW  Elec       q    Type
REMARK                         _______ _______ _______ _____ _____    ______ ____
ROOT
ATOM      1  N   UNL     1      44.397   7.055  12.402  0.00  0.00    +0.000 N 
ATOM      2  H   UNL     1      44.297   6.576  13.291  0.00  0.00    +0.000 HD
ENDROOT
BRANCH   1   5
ATOM      3  C   UNL     1      47.130   9.623  12.400  0.00  0.00    +0.000 A 
ATOM      4  C   UNL     1      45.849   9.040  12.476  0.00  0.00    +0.000 A 
ATOM      5  C   UNL     1      45.616   7.687  12.208  0.00  0.00    +0.000 A 
ATOM      6  C   UNL     1      46.714   6.909  11.833  0.00  0.00    +0.000 A 
ATOM      7  C   UNL     1      47.985   7.470  11.705  0.00  0.00    +0.000 A 
ATOM      8  C   UNL     1      48.208   8.833  11.977  0.00  0.00    +0.000 A 
BRANCH   8   9
ATOM      9  C   UNL     1      49.618   9.355  11.835  0.00  0.00    +0.000 C 
ATOM     10  F   UNL     1      50.147   9.895  12.972  0.00  0.00    +0.000 F 
ATOM     11  F   UNL     1      50.490   8.372  11.469  0.00  0.00    +0.000 F 
ATOM     12  F   UNL     1      49.728  10.317  10.879  0.00  0.00    +0.000 F 
ENDBRANCH   8   9
BRANCH   3  13
ATOM     13  N   UNL     1      47.225  11.017  12.533  0.00  0.00    +0.000 N 
ATOM     14  H   UNL     1      46.504  11.435  13.113  0.00  0.00    +0.000 HD
ATOM     15  H   UNL     1      48.153  11.375  12.753  0.00  0.00    +0.000 HD
ENDBRANCH   3  13
ENDBRANCH   1   5
BRANCH   1  16
ATOM     16  C   UNL     1      43.583   6.505  11.333  0.00  0.00    +0.000 C 
BRANCH  16  17
ATOM     17  C   UNL     1      43.745   5.016  11.114  0.00  0.00    +0.000 A 
ATOM     18  C   UNL     1      43.065   4.041  11.850  0.00  0.00    +0.000 A 
ATOM     19  C   UNL     1      43.250   2.689  11.571  0.00  0.00    +0.000 A 
ATOM     20  C   UNL     1      44.104   2.295  10.539  0.00  0.00    +0.000 A 
ATOM     21  C   UNL     1      44.780   3.239   9.748  0.00  0.00    +0.000 A 
ATOM     22  C   UNL     1      44.608   4.596  10.080  0.00  0.00    +0.000 A 
BRANCH  21  23
ATOM     23  C   UNL     1      45.562   2.832   8.556  0.00  0.00    +0.000 A 
ATOM     24  C   UNL     1      45.920   3.783   7.580  0.00  0.00    +0.000 A 
ATOM     25  C   UNL     1      46.721   3.448   6.488  0.00  0.00    +0.000 A 
ATOM     26  C   UNL     1      47.194   2.149   6.346  0.00  0.00    +0.000 A 
ATOM     27  C   UNL     1      46.849   1.183   7.289  0.00  0.00    +0.000 A 
ATOM     28  C   UNL     1      46.034   1.519   8.377  0.00  0.00    +0.000 A 
ENDBRANCH  21  23
ENDBRANCH  16  17
ENDBRANCH   1  16
TORSDOF 6
ENDMDL
MODEL 5
REMARK VINA RESULT:    -7.238      4.306      7.699
REMARK INTER + INTRA:         -10.806
REMARK INTER:                  -9.898
REMARK INTRA:                  -0.908
REMARK UNBOUND:                -1.240
REMARK  Name = 
REMARK  6 active torsions:
REMARK  status: ('A' for Active; 'I' for Inactive)
REMARK    1  A    between atoms: N_1  and  C_2
REMARK    2  A    between atoms: C_4  and  N_5
REMARK    3  A    between atoms: N_5  and  C_6
REMARK    4  A    between atoms: C_6  and  C_7
REMARK    5  A    between atoms: C_11  and  C_12
REMARK    6  A    between atoms: C_21  and  C_22
REMARK                            x       y       z     vdW  Elec       q    Type
REMARK                         _______ _______ _______ _____ _____    ______ ____
ROOT
ATOM      1  N   UNL     1      46.388   6.757  11.572  0.00  0.00    +0.000 N 
ATOM      2  H   UNL     1      46.822   7.530  11.079  0.00  0.00    +0.000 HD
ENDROOT
BRANCH   1   5
ATOM      3  C   UNL     1      47.329   5.042  14.771  0.00  0.00    +0.000 A 
ATOM      4  C   UNL     1      46.692   5.317  13.544  0.00  0.00    +0.000 A 
ATOM      5  C   UNL     1      46.891   6.510  12.840  0.00  0.00    +0.000 A 
ATOM      6  C   UNL     1      47.745   7.457  13.410  0.00  0.00    +0.000 A 
ATOM      7  C   UNL     1      48.353   7.229  14.646  0.00  0.00    +0.000 A 
ATOM      8  C   UNL     1      48.145   6.025  15.345  0.00  0.00    +0.000 A 
BRANCH   8   9
ATOM      9  C   UNL     1      48.857   5.850  16.666  0.00  0.00    +0.000 C 
ATOM     10  F   UNL     1      49.705   4.781  16.723  0.00  0.00    +0.000 F 
ATOM     11  F   UNL     1      49.627   6.933  16.976  0.00  0.00    +0.000 F 
ATOM     12  F   UNL     1      47.997   5.701  17.710  0.00  0.00    +0.000 F 
ENDBRANCH   8   9
BRANCH   3  13
ATOM     13  N   UNL     1      46.937   3.887  15.467  0.00  0.00    +0.000 N 
ATOM     14  H   UNL     1      47.547   3.633  16.238  0.00  0.00    +0.000 HD
ATOM     15  H   UNL     1      45.952   3.841  15.723  0.00  0.00    +0.000 HD
ENDBRANCH   3  13
ENDBRANCH   1   5
BRANCH   1  16
ATOM     16  C   UNL     1      45.019   6.487  11.169  0.00  0.00    +0.000 C 
BRANCH  16  17
ATOM     17  C   UNL     1      44.739   5.046  10.799  0.00  0.00    +0.000 A 
ATOM     18  C   UNL     1      43.761   4.258  11.415  0.00  0.00    +0.000 A 
ATOM     19  C   UNL     1      43.547   2.946  11.001  0.00  0.00    +0.000 A 
ATOM     20  C   UNL     1      44.295   2.411   9.950  0.00  0.00    +0.000 A 
ATOM     21  C   UNL     1      45.261   3.175   9.276  0.00  0.00    +0.000 A 
ATOM     22  C   UNL     1      45.487   4.483   9.744  0.00  0.00    +0.000 A 
BRANCH  21  23
ATOM     23  C   UNL     1      45.944   2.664   8.064  0.00  0.00    +0.000 A 
ATOM     24  C   UNL     1      46.166   3.510   6.960  0.00  0.00    +0.000 A 
ATOM     25  C   UNL     1      46.874   3.082   5.836  0.00  0.00    +0.000 A 
ATOM     26  C   UNL     1      47.390   1.792   5.791  0.00  0.00    +0.000 A 
ATOM     27  C   UNL     1      47.178   0.927   6.862  0.00  0.00    +0.000 A 
ATOM     28  C   UNL     1      46.456   1.356   7.983  0.00  0.00    +0.000 A 
ENDBRANCH  21  23
ENDBRANCH  16  17
ENDBRANCH   1  16
TORSDOF 6
ENDMDL
MODEL 6
REMARK VINA RESULT:    -6.957      4.164      7.388
REMARK INTER + INTRA:         -10.434
REMARK INTER:                  -9.639
REMARK INTRA:                  -0.794
REMARK UNBOUND:                -1.240
REMARK  Name = 
REMARK  6 active torsions:
REMARK  status: ('A' for Active; 'I' for Inactive)
REMARK    1  A    between atoms: N_1  and  C_2
REMARK    2  A    between atoms: C_4  and  N_5
REMARK    3  A    between atoms: N_5  and  C_6
REMARK    4  A    between atoms: C_6  and  C_7
REMARK    5  A    between atoms: C_11  and  C_12
REMARK    6  A    between atoms: C_21  and  C_22
REMARK                            x       y       z     vdW  Elec       q    Type
REMARK                         _______ _______ _______ _____ _____    ______ ____
ROOT
ATOM      1  N   UNL     1      44.699   7.318  11.004  0.00  0.00    +0.000 N 
ATOM      2  H   UNL     1      44.543   8.096  10.372  0.00  0.00    +0.000 HD
ENDROOT
BRANCH   1   5
ATOM      3  C   UNL     1      47.153   8.879  13.370  0.00  0.00    +0.000 A 
ATOM      4  C   UNL     1      46.189   8.737  12.352  0.00  0.00    +0.000 A 
ATOM      5  C   UNL     1      45.738   7.491  11.905  0.00  0.00    +0.000 A 
ATOM      6  C   UNL     1      46.298   6.356  12.497  0.00  0.00    +0.000 A 
ATOM      7  C   UNL     1      47.287   6.467  13.476  0.00  0.00    +0.000 A 
ATOM      8  C   UNL     1      47.733   7.727  13.917  0.00  0.00    +0.000 A 
BRANCH   8   9
ATOM      9  C   UNL     1      48.792   7.758  14.994  0.00  0.00    +0.000 C 
ATOM     10  F   UNL     1      49.935   8.423  14.655  0.00  0.00    +0.000 F 
ATOM     11  F   UNL     1      48.346   8.372  16.129  0.00  0.00    +0.000 F 
ATOM     12  F   UNL     1      49.184   6.513  15.381  0.00  0.00    +0.000 F 
ENDBRANCH   8   9
BRANCH   3  13
ATOM     13  N   UNL     1      47.648  10.167  13.629  0.00  0.00    +0.000 N 
ATOM     14  H   UNL     1      48.445  10.435  13.060  0.00  0.00    +0.000 HD
ATOM     15  H   UNL     1      46.947  10.905  13.684  0.00  0.00    +0.000 HD
ENDBRANCH   3  13
ENDBRANCH   1   5
BRANCH   1  16
ATOM     16  C   UNL     1      43.517   6.514  11.264  0.00  0.00    +0.000 C 
BRANCH  16  17
ATOM     17  C   UNL     1      43.703   5.027  11.057  0.00  0.00    +0.000 A 
ATOM     18  C   UNL     1      43.038   4.046  11.800  0.00  0.00    +0.000 A 
ATOM     19  C   UNL     1      43.245   2.696  11.533  0.00  0.00    +0.000 A 
ATOM     20  C   UNL     1      44.105   2.307  10.504  0.00  0.00    +0.000 A 
ATOM     21  C   UNL     1      44.766   3.255   9.705  0.00  0.00    +0.000 A 
ATOM     22  C   UNL     1      44.572   4.612  10.026  0.00  0.00    +0.000 A 
BRANCH  21  23
ATOM     23  C   UNL     1      45.554   2.851   8.517  0.00  0.00    +0.000 A 
ATOM     24  C   UNL     1      45.907   3.802   7.539  0.00  0.00    +0.000 A 
ATOM     25  C   UNL     1      46.714   3.470   6.450  0.00  0.00    +0.000 A 
ATOM     26  C   UNL     1      47.198   2.174   6.313  0.00  0.00    +0.000 A 
ATOM     27  C   UNL     1      46.857   1.208   7.257  0.00  0.00    +0.000 A 
ATOM     28  C   UNL     1      46.037   1.541   8.343  0.00  0.00    +0.000 A 
ENDBRANCH  21  23
ENDBRANCH  16  17
ENDBRANCH   1  16
TORSDOF 6
ENDMDL
MODEL 7
REMARK VINA RESULT:    -6.573      5.209      7.244
REMARK INTER + INTRA:          -9.927
REMARK INTER:                  -8.983
REMARK INTRA:                  -0.944
REMARK UNBOUND:                -1.240
REMARK  Name = 
REMARK  6 active torsions:
REMARK  status: ('A' for Active; 'I' for Inactive)
REMARK    1  A    between atoms: N_1  and  C_2
REMARK    2  A    between atoms: C_4  and  N_5
REMARK    3  A    between atoms: N_5  and  C_6
REMARK    4  A    between atoms: C_6  and  C_7
REMARK    5  A    between atoms: C_11  and  C_12
REMARK    6  A    between atoms: C_21  and  C_22
REMARK                            x       y       z     vdW  Elec       q    Type
REMARK                         _______ _______ _______ _____ _____    ______ ____
ROOT
ATOM      1  N   UNL     1      48.216   6.122  14.227  0.00  0.00    +0.000 N 
ATOM      2  H   UNL     1      49.107   5.779  13.882  0.00  0.00    +0.000 HD
ENDROOT
BRANCH   1   5
ATOM      3  C   UNL     1      45.410   4.220  12.625  0.00  0.00    +0.000 A 
ATOM      4  C   UNL     1      46.608   4.500  13.314  0.00  0.00    +0.000 A 
ATOM      5  C   UNL     1      47.117   5.796  13.447  0.00  0.00    +0.000 A 
ATOM      6  C   UNL     1      46.400   6.833  12.846  0.00  0.00    +0.000 A 
ATOM      7  C   UNL     1      45.235   6.578  12.120  0.00  0.00    +0.000 A 
ATOM      8  C   UNL     1      44.732   5.270  11.992  0.00  0.00    +0.000 A 
BRANCH   8   9
ATOM      9  C   UNL     1      43.455   5.084  11.207  0.00  0.00    +0.000 C 
ATOM     10  F   UNL     1      42.514   4.306  11.819  0.00  0.00    +0.000 F 
ATOM     11  F   UNL     1      42.830   6.272  10.962  0.00  0.00    +0.000 F 
ATOM     12  F   UNL     1      43.667   4.523   9.986  0.00  0.00    +0.000 F 
ENDBRANCH   8   9
BRANCH   3  13
ATOM     13  N   UNL     1      45.074   2.872  12.417  0.00  0.00    +0.000 N 
ATOM     14  H   UNL     1      44.682   2.673  11.502  0.00  0.00    +0.000 HD
ATOM     15  H   UNL     1      45.786   2.195  12.687  0.00  0.00    +0.000 HD
ENDBRANCH   3  13
ENDBRANCH   1   5
BRANCH   1  16
ATOM     16  C   UNL     1      48.168   6.314  15.666  0.00  0.00    +0.000 C 
BRANCH  16  17
ATOM     17  C   UNL     1      48.260   5.041  16.480  0.00  0.00    +0.000 A 
ATOM     18  C   UNL     1      47.149   4.290  16.879  0.00  0.00    +0.000 A 
ATOM     19  C   UNL     1      47.318   3.114  17.607  0.00  0.00    +0.000 A 
ATOM     20  C   UNL     1      48.600   2.664  17.927  0.00  0.00    +0.000 A 
ATOM     21  C   UNL     1      49.745   3.364  17.515  0.00  0.00    +0.000 A 
ATOM     22  C   UNL     1      49.545   4.571  16.819  0.00  0.00    +0.000 A 
BRANCH  21  23
ATOM     23  C   UNL     1      51.105   2.809  17.716  0.00  0.00    +0.000 A 
ATOM     24  C   UNL     1      51.376   1.460  17.417  0.00  0.00    +0.000 A 
ATOM     25  C   UNL     1      52.662   0.928  17.521  0.00  0.00    +0.000 A 
ATOM     26  C   UNL     1      53.718   1.738  17.922  0.00  0.00    +0.000 A 
ATOM     27  C   UNL     1      53.481   3.074  18.236  0.00  0.00    +0.000 A 
ATOM     28  C   UNL     1      52.187   3.602  18.142  0.00  0.00    +0.000 A 
ENDBRANCH  21  23
ENDBRANCH  16  17
ENDBRANCH   1  16
TORSDOF 6
ENDMDL
MODEL 8
REMARK VINA RESULT:    -6.561      3.754      5.938
REMARK INTER + INTRA:          -9.911
REMARK INTER:                  -8.872
REMARK INTRA:                  -1.039
REMARK UNBOUND:                -1.240
REMARK  Name = 
REMARK  6 active torsions:
REMARK  status: ('A' for Active; 'I' for Inactive)
REMARK    1  A    between atoms: N_1  and  C_2
REMARK    2  A    between atoms: C_4  and  N_5
REMARK    3  A    between atoms: N_5  and  C_6
REMARK    4  A    between atoms: C_6  and  C_7
REMARK    5  A    between atoms: C_11  and  C_12
REMARK    6  A    between atoms: C_21  and  C_22
REMARK                            x       y       z     vdW  Elec       q    Type
REMARK                         _______ _______ _______ _____ _____    ______ ____
ROOT
ATOM      1  N   UNL     1      46.205   7.653  13.237  0.00  0.00    +0.000 N 
ATOM      2  H   UNL     1      45.474   8.356  13.263  0.00  0.00    +0.000 HD
ENDROOT
BRANCH   1   5
ATOM      3  C   UNL     1      45.438   4.093  12.341  0.00  0.00    +0.000 A 
ATOM      4  C   UNL     1      45.888   5.219  13.059  0.00  0.00    +0.000 A 
ATOM      5  C   UNL     1      45.896   6.509  12.518  0.00  0.00    +0.000 A 
ATOM      6  C   UNL     1      45.453   6.654  11.200  0.00  0.00    +0.000 A 
ATOM      7  C   UNL     1      45.045   5.549  10.451  0.00  0.00    +0.000 A 
ATOM      8  C   UNL     1      45.041   4.256  11.007  0.00  0.00    +0.000 A 
BRANCH   8   9
ATOM      9  C   UNL     1      44.565   3.120  10.135  0.00  0.00    +0.000 C 
ATOM     10  F   UNL     1      45.534   2.226   9.779  0.00  0.00    +0.000 F 
ATOM     11  F   UNL     1      43.602   2.374  10.750  0.00  0.00    +0.000 F 
ATOM     12  F   UNL     1      44.007   3.549   8.970  0.00  0.00    +0.000 F 
ENDBRANCH   8   9
BRANCH   3  13
ATOM     13  N   UNL     1      45.621   2.829  12.923  0.00  0.00    +0.000 N 
ATOM     14  H   UNL     1      45.355   2.049  12.329  0.00  0.00    +0.000 HD
ATOM     15  H   UNL     1      46.522   2.679  13.375  0.00  0.00    +0.000 HD
ENDBRANCH   3  13
ENDBRANCH   1   5
BRANCH   1  16
ATOM     16  C   UNL     1      47.548   8.183  13.392  0.00  0.00    +0.000 C 
BRANCH  16  17
ATOM     17  C   UNL     1      48.134   8.032  14.779  0.00  0.00    +0.000 A 
ATOM     18  C   UNL     1      48.211   9.072  15.711  0.00  0.00    +0.000 A 
ATOM     19  C   UNL     1      48.743   8.846  16.978  0.00  0.00    +0.000 A 
ATOM     20  C   UNL     1      49.187   7.572  17.337  0.00  0.00    +0.000 A 
ATOM     21  C   UNL     1      49.095   6.488  16.449  0.00  0.00    +0.000 A 
ATOM     22  C   UNL     1      48.594   6.754  15.161  0.00  0.00    +0.000 A 
BRANCH  21  23
ATOM     23  C   UNL     1      49.418   5.107  16.878  0.00  0.00    +0.000 A 
ATOM     24  C   UNL     1      48.464   4.079  16.750  0.00  0.00    +0.000 A 
ATOM     25  C   UNL     1      48.764   2.754  17.071  0.00  0.00    +0.000 A 
ATOM     26  C   UNL     1      50.035   2.420  17.523  0.00  0.00    +0.000 A 
ATOM     27  C   UNL     1      50.997   3.415  17.672  0.00  0.00    +0.000 A 
ATOM     28  C   UNL     1      50.690   4.746  17.360  0.00  0.00    +0.000 A 
ENDBRANCH  21  23
ENDBRANCH  16  17
ENDBRANCH   1  16
TORSDOF 6
ENDMDL
MODEL 9
REMARK VINA RESULT:    -6.320      5.005      8.073
REMARK INTER + INTRA:          -9.592
REMARK INTER:                  -8.658
REMARK INTRA:                  -0.934
REMARK UNBOUND:                -1.240
REMARK  Name = 
REMARK  6 active torsions:
REMARK  status: ('A' for Active; 'I' for Inactive)
REMARK    1  A    between atoms: N_1  and  C_2
REMARK    2  A    between atoms: C_4  and  N_5
REMARK    3  A    between atoms: N_5  and  C_6
REMARK    4  A    between atoms: C_6  and  C_7
REMARK    5  A    between atoms: C_11  and  C_12
REMARK    6  A    between atoms: C_21  and  C_22
REMARK                            x       y       z     vdW  Elec       q    Type
REMARK                         _______ _______ _______ _____ _____    ______ ____
ROOT
ATOM      1  N   UNL     1      48.934   7.908  14.285  0.00  0.00    +0.000 N 
ATOM      2  H   UNL     1      48.589   8.805  14.610  0.00  0.00    +0.000 HD
ENDROOT
BRANCH   1   5
ATOM      3  C   UNL     1      48.079   4.788  16.181  0.00  0.00    +0.000 A 
ATOM      4  C   UNL     1      47.979   5.877  15.292  0.00  0.00    +0.000 A 
ATOM      5  C   UNL     1      48.933   6.898  15.235  0.00  0.00    +0.000 A 
ATOM      6  C   UNL     1      50.009   6.821  16.122  0.00  0.00    +0.000 A 
ATOM      7  C   UNL     1      50.110   5.778  17.045  0.00  0.00    +0.000 A 
ATOM      8  C   UNL     1      49.143   4.755  17.092  0.00  0.00    +0.000 A 
BRANCH   8   9
ATOM      9  C   UNL     1      49.338   3.654  18.107  0.00  0.00    +0.000 C 
ATOM     10  F   UNL     1      48.311   3.502  18.993  0.00  0.00    +0.000 F 
ATOM     11  F   UNL     1      49.478   2.433  17.512  0.00  0.00    +0.000 F 
ATOM     12  F   UNL     1      50.459   3.825  18.860  0.00  0.00    +0.000 F 
ENDBRANCH   8   9
BRANCH   3  13
ATOM     13  N   UNL     1      46.990   3.907  16.264  0.00  0.00    +0.000 N 
ATOM     14  H   UNL     1      46.308   4.146  16.977  0.00  0.00    +0.000 HD
ATOM     15  H   UNL     1      46.552   3.664  15.377  0.00  0.00    +0.000 HD
ENDBRANCH   3  13
ENDBRANCH   1   5
BRANCH   1  16
ATOM     16  C   UNL     1      48.775   7.688  12.858  0.00  0.00    +0.000 C 
BRANCH  16  17
ATOM     17  C   UNL     1      47.339   7.620  12.384  0.00  0.00    +0.000 A 
ATOM     18  C   UNL     1      46.428   8.675  12.502  0.00  0.00    +0.000 A 
ATOM     19  C   UNL     1      45.129   8.543  12.018  0.00  0.00    +0.000 A 
ATOM     20  C   UNL     1      44.730   7.361  11.391  0.00  0.00    +0.000 A 
ATOM     21  C   UNL     1      45.620   6.289  11.215  0.00  0.00    +0.000 A 
ATOM     22  C   UNL     1      46.913   6.434  11.752  0.00  0.00    +0.000 A 
BRANCH  21  23
ATOM     23  C   UNL     1      45.249   5.098  10.414  0.00  0.00    +0.000 A 
ATOM     24  C   UNL     1      45.617   5.008   9.058  0.00  0.00    +0.000 A 
ATOM     25  C   UNL     1      45.352   3.868   8.298  0.00  0.00    +0.000 A 
ATOM     26  C   UNL     1      44.714   2.779   8.881  0.00  0.00    +0.000 A 
ATOM     27  C   UNL     1      44.327   2.841  10.218  0.00  0.00    +0.000 A 
ATOM     28  C   UNL     1      44.584   3.992  10.974  0.00  0.00    +0.000 A 
ENDBRANCH  21  23
ENDBRANCH  16  17
ENDBRANCH   1  16
TORSDOF 6
ENDMDL
