MODEL 1
REMARK VINA RESULT:    -9.597      0.000      0.000
REMARK INTER + INTRA:         -12.683
REMARK INTER:                 -12.402
REMARK INTRA:                  -0.281
REMARK UNBOUND:                -0.281
REMARK  Name = 
REMARK  6 active torsions:
REMARK  status: ('A' for Active; 'I' for Inactive)
REMARK    1  A    between atoms: C_1  and  C_2
REMARK    2  A    between atoms: C_2  and  N_3
REMARK    3  A    between atoms: C_2  and  C_16
REMARK    4  A    between atoms: C_4  and  C_6
REMARK    5  A    between atoms: C_19  and  O_20
REMARK    6  A    between atoms: O_20  and  C_21
REMARK                            x       y       z     vdW  Elec       q    Type
REMARK                         _______ _______ _______ _____ _____    ______ ____
ROOT
ATOM      1  C   UNL     1      42.905   5.012  13.177  0.00  0.00    +0.000 C 
ATOM      2  C   UNL     1      44.263   4.359  12.914  0.00  0.00    +0.000 C 
ENDROOT
BRANCH   2   3
ATOM      3  C   UNL     1      44.685   4.321  11.455  0.00  0.00    +0.000 A 
ATOM      4  C   UNL     1      45.485   5.369  10.972  0.00  0.00    +0.000 A 
ATOM      5  C   UNL     1      45.861   5.428   9.629  0.00  0.00    +0.000 A 
ATOM      6  C   UNL     1      45.499   4.404   8.754  0.00  0.00    +0.000 A 
ATOM      7  C   UNL     1      44.670   3.378   9.208  0.00  0.00    +0.000 A 
ATOM      8  C   UNL     1      44.257   3.342  10.546  0.00  0.00    +0.000 A 
BRANCH   6   9
ATOM      9  O   UNL     1      45.862   4.356   7.425  0.00  0.00    +0.000 OA
BRANCH   9  10
ATOM     10  C   UNL     1      46.405   3.198   6.909  0.00  0.00    +0.000 A 
ATOM     11  C   UNL     1      46.672   2.051   7.663  0.00  0.00    +0.000 A 
ATOM     12  C   UNL     1      47.275   0.942   7.067  0.00  0.00    +0.000 A 
ATOM     13  C   UNL     1      47.546   0.948   5.701  0.00  0.00    +0.000 A 
ATOM     14  C   UNL     1      47.214   2.062   4.930  0.00  0.00    +0.000 A 
ATOM     15  C   UNL     1      46.647   3.187   5.532  0.00  0.00    +0.000 A 
ENDBRANCH   9  10
ENDBRANCH   6   9
ENDBRANCH   2   3
BRANCH   2  16
ATOM     16  N   UNL     1      45.306   5.008  13.685  0.00  0.00    +0.000 N 
ATOM     17  C   UNL     1      46.435   4.349  14.102  0.00  0.00    +0.000 C 
ATOM     18  O   UNL     1      46.678   3.189  13.781  0.00  0.00    +0.000 OA
ATOM     19  H   UNL     1      45.082   5.914  14.081  0.00  0.00    +0.000 HD
BRANCH  17  20
ATOM     20  C   UNL     1      47.374   5.129  14.914  0.00  0.00    +0.000 A 
ATOM     21  C   UNL     1      48.072   6.185  14.346  0.00  0.00    +0.000 A 
ATOM     22  S   UNL     1      49.115   6.978  15.438  0.00  0.00    +0.000 S 
ATOM     23  C   UNL     1      48.705   5.906  16.693  0.00  0.00    +0.000 A 
ATOM     24  N   UNL     1      49.289   6.004  17.920  0.00  0.00    +0.000 NA
ATOM     25  C   UNL     1      48.919   5.099  18.760  0.00  0.00    +0.000 A 
ATOM     26  N   UNL     1      48.007   4.111  18.494  0.00  0.00    +0.000 N 
ATOM     27  C   UNL     1      47.348   4.007  17.291  0.00  0.00    +0.000 A 
ATOM     28  O   UNL     1      46.469   3.168  17.116  0.00  0.00    +0.000 OA
ATOM     29  C   UNL     1      47.761   4.976  16.296  0.00  0.00    +0.000 A 
ATOM     30  H   UNL     1      47.742   3.446  19.206  0.00  0.00    +0.000 HD
ENDBRANCH  17  20
ENDBRANCH   2  16
TORSDOF 5
ENDMDL
MODEL 2
REMARK VINA RESULT:    -8.704      1.506      2.562
REMARK INTER + INTRA:         -11.530
REMARK INTER:                 -11.567
REMARK INTRA:                   0.038
REMARK UNBOUND:                -0.281
REMARK  Name = 
REMARK  6 active torsions:
REMARK  status: ('A' for Active; 'I' for Inactive)
REMARK    1  A    between atoms: C_1  and  C_2
REMARK    2  A    between atoms: C_2  and  N_3
REMARK    3  A    between atoms: C_2  and  C_16
REMARK    4  A    between atoms: C_4  and  C_6
REMARK    5  A    between atoms: C_19  and  O_20
REMARK    6  A    between atoms: O_20  and  C_21
REMARK                            x       y       z     vdW  Elec       q    Type
REMARK                         _______ _______ _______ _____ _____    ______ ____
ROOT
ATOM      1  C   UNL     1      42.917   4.965  12.938  0.00  0.00    +0.000 C 
ATOM      2  C   UNL     1      44.265   4.282  12.698  0.00  0.00    +0.000 C 
ENDROOT
BRANCH   2   3
ATOM      3  C   UNL     1      44.722   4.256  11.249  0.00  0.00    +0.000 A 
ATOM      4  C   UNL     1      45.434   5.365  10.761  0.00  0.00    +0.000 A 
ATOM      5  C   UNL     1      45.833   5.432   9.426  0.00  0.00    +0.000 A 
ATOM      6  C   UNL     1      45.586   4.364   8.564  0.00  0.00    +0.000 A 
ATOM      7  C   UNL     1      44.844   3.274   9.021  0.00  0.00    +0.000 A 
ATOM      8  C   UNL     1      44.406   3.225  10.351  0.00  0.00    +0.000 A 
BRANCH   6   9
ATOM      9  O   UNL     1      45.983   4.325   7.245  0.00  0.00    +0.000 OA
BRANCH   9  10
ATOM     10  C   UNL     1      46.474   3.151   6.716  0.00  0.00    +0.000 A 
ATOM     11  C   UNL     1      46.769   2.961   5.362  0.00  0.00    +0.000 A 
ATOM     12  C   UNL     1      47.211   1.719   4.904  0.00  0.00    +0.000 A 
ATOM     13  C   UNL     1      47.431   0.683   5.809  0.00  0.00    +0.000 A 
ATOM     14  C   UNL     1      47.210   0.889   7.171  0.00  0.00    +0.000 A 
ATOM     15  C   UNL     1      46.729   2.120   7.625  0.00  0.00    +0.000 A 
ENDBRANCH   9  10
ENDBRANCH   6   9
ENDBRANCH   2   3
BRANCH   2  16
ATOM     16  N   UNL     1      45.304   4.893  13.504  0.00  0.00    +0.000 N 
ATOM     17  C   UNL     1      46.421   4.208  13.911  0.00  0.00    +0.000 C 
ATOM     18  O   UNL     1      46.658   3.058  13.550  0.00  0.00    +0.000 OA
ATOM     19  H   UNL     1      45.084   5.786  13.930  0.00  0.00    +0.000 HD
BRANCH  17  20
ATOM     20  C   UNL     1      47.358   4.949  14.761  0.00  0.00    +0.000 A 
ATOM     21  C   UNL     1      47.569   4.549  16.074  0.00  0.00    +0.000 A 
ATOM     22  S   UNL     1      48.692   5.524  16.910  0.00  0.00    +0.000 S 
ATOM     23  C   UNL     1      48.896   6.541  15.562  0.00  0.00    +0.000 A 
ATOM     24  N   UNL     1      49.713   7.630  15.620  0.00  0.00    +0.000 NA
ATOM     25  C   UNL     1      49.737   8.336  14.542  0.00  0.00    +0.000 A 
ATOM     26  N   UNL     1      49.031   8.048  13.402  0.00  0.00    +0.000 N 
ATOM     27  C   UNL     1      48.240   6.930  13.277  0.00  0.00    +0.000 A 
ATOM     28  O   UNL     1      47.695   6.652  12.212  0.00  0.00    +0.000 OA
ATOM     29  C   UNL     1      48.144   6.125  14.477  0.00  0.00    +0.000 A 
ATOM     30  H   UNL     1      49.114   8.631  12.582  0.00  0.00    +0.000 HD
ENDBRANCH  17  20
ENDBRANCH   2  16
TORSDOF 5
ENDMDL
MODEL 3
REMARK VINA RESULT:    -8.124      1.939      3.055
REMARK INTER + INTRA:         -10.780
REMARK INTER:                 -10.811
REMARK INTRA:                   0.031
REMARK UNBOUND:                -0.281
REMARK  Name = 
REMARK  6 active torsions:
REMARK  status: ('A' for Active; 'I' for Inactive)
REMARK    1  A    between atoms: C_1  and  C_2
REMARK    2  A    between atoms: C_2  and  N_3
REMARK    3  A    between atoms: C_2  and  C_16
REMARK    4  A    between atoms: C_4  and  C_6
REMARK    5  A    between atoms: C_19  and  O_20
REMARK    6  A    between atoms: O_20  and  C_21
REMARK                            x       y       z     vdW  Elec       q    Type
REMARK                         _______ _______ _______ _____ _____    ______ ____
ROOT
ATOM      1  C   UNL     1      47.983   9.020  12.392  0.00  0.00    +0.000 C 
ATOM      2  C   UNL     1      46.859   8.294  13.133  0.00  0.00    +0.000 C 
ENDROOT
BRANCH   2   3
ATOM      3  C   UNL     1      46.139   7.229  12.324  0.00  0.00    +0.000 A 
ATOM      4  C   UNL     1      45.019   6.607  12.898  0.00  0.00    +0.000 A 
ATOM      5  C   UNL     1      44.346   5.580  12.234  0.00  0.00    +0.000 A 
ATOM      6  C   UNL     1      44.739   5.197  10.953  0.00  0.00    +0.000 A 
ATOM      7  C   UNL     1      45.875   5.775  10.385  0.00  0.00    +0.000 A 
ATOM      8  C   UNL     1      46.576   6.776  11.069  0.00  0.00    +0.000 A 
BRANCH   6   9
ATOM      9  O   UNL     1      44.107   4.226  10.206  0.00  0.00    +0.000 OA
BRANCH   9  10
ATOM     10  C   UNL     1      44.831   3.493   9.289  0.00  0.00    +0.000 A 
ATOM     11  C   UNL     1      45.035   2.112   9.373  0.00  0.00    +0.000 A 
ATOM     12  C   UNL     1      45.829   1.460   8.429  0.00  0.00    +0.000 A 
ATOM     13  C   UNL     1      46.362   2.171   7.357  0.00  0.00    +0.000 A 
ATOM     14  C   UNL     1      46.099   3.535   7.227  0.00  0.00    +0.000 A 
ATOM     15  C   UNL     1      45.338   4.197   8.193  0.00  0.00    +0.000 A 
ENDBRANCH   9  10
ENDBRANCH   6   9
ENDBRANCH   2   3
BRANCH   2  16
ATOM     16  N   UNL     1      47.350   7.696  14.360  0.00  0.00    +0.000 N 
ATOM     17  C   UNL     1      48.427   6.847  14.387  0.00  0.00    +0.000 C 
ATOM     18  O   UNL     1      49.099   6.602  13.388  0.00  0.00    +0.000 OA
ATOM     19  H   UNL     1      46.748   7.765  15.172  0.00  0.00    +0.000 HD
BRANCH  17  20
ATOM     20  C   UNL     1      48.774   6.286  15.695  0.00  0.00    +0.000 A 
ATOM     21  C   UNL     1      49.744   6.896  16.478  0.00  0.00    +0.000 A 
ATOM     22  S   UNL     1      50.012   6.108  17.967  0.00  0.00    +0.000 S 
ATOM     23  C   UNL     1      48.876   4.899  17.595  0.00  0.00    +0.000 A 
ATOM     24  N   UNL     1      48.645   3.864  18.451  0.00  0.00    +0.000 NA
ATOM     25  C   UNL     1      47.793   2.997  18.020  0.00  0.00    +0.000 A 
ATOM     26  N   UNL     1      47.137   3.074  16.819  0.00  0.00    +0.000 N 
ATOM     27  C   UNL     1      47.294   4.128  15.949  0.00  0.00    +0.000 A 
ATOM     28  O   UNL     1      46.623   4.214  14.924  0.00  0.00    +0.000 OA
ATOM     29  C   UNL     1      48.275   5.109  16.366  0.00  0.00    +0.000 A 
ATOM     30  H   UNL     1      46.463   2.372  16.552  0.00  0.00    +0.000 HD
ENDBRANCH  17  20
ENDBRANCH   2  16
TORSDOF 5
ENDMDL
MODEL 4
REMARK VINA RESULT:    -7.603      4.187      8.579
REMARK INTER + INTRA:         -10.107
REMARK INTER:                  -8.802
REMARK INTRA:                  -1.305
REMARK UNBOUND:                -0.281
REMARK  Name = 
REMARK  6 active torsions:
REMARK  status: ('A' for Active; 'I' for Inactive)
REMARK    1  A    between atoms: C_1  and  C_2
REMARK    2  A    between atoms: C_2  and  N_3
REMARK    3  A    between atoms: C_2  and  C_16
REMARK    4  A    between atoms: C_4  and  C_6
REMARK    5  A    between atoms: C_19  and  O_20
REMARK    6  A    between atoms: O_20  and  C_21
REMARK                            x       y       z     vdW  Elec       q    Type
REMARK                         _______ _______ _______ _____ _____    ______ ____
ROOT
ATOM      1  C   UNL     1      48.139   8.930  14.887  0.00  0.00    +0.000 C 
ATOM      2  C   UNL     1      48.365   7.484  14.440  0.00  0.00    +0.000 C 
ENDROOT
BRANCH   2   3
ATOM      3  C   UNL     1      48.869   6.549  15.527  0.00  0.00    +0.000 A 
ATOM      4  C   UNL     1      50.174   6.741  16.010  0.00  0.00    +0.000 A 
ATOM      5  C   UNL     1      50.721   5.883  16.965  0.00  0.00    +0.000 A 
ATOM      6  C   UNL     1      49.952   4.854  17.507  0.00  0.00    +0.000 A 
ATOM      7  C   UNL     1      48.670   4.623  17.008  0.00  0.00    +0.000 A 
ATOM      8  C   UNL     1      48.136   5.458  16.018  0.00  0.00    +0.000 A 
BRANCH   6   9
ATOM      9  O   UNL     1      50.394   3.988  18.484  0.00  0.00    +0.000 OA
BRANCH   9  10
ATOM     10  C   UNL     1      51.393   3.085  18.193  0.00  0.00    +0.000 A 
ATOM     11  C   UNL     1      51.200   1.906  17.465  0.00  0.00    +0.000 A 
ATOM     12  C   UNL     1      52.259   1.020  17.265  0.00  0.00    +0.000 A 
ATOM     13  C   UNL     1      53.532   1.342  17.729  0.00  0.00    +0.000 A 
ATOM     14  C   UNL     1      53.747   2.551  18.392  0.00  0.00    +0.000 A 
ATOM     15  C   UNL     1      52.679   3.420  18.627  0.00  0.00    +0.000 A 
ENDBRANCH   9  10
ENDBRANCH   6   9
ENDBRANCH   2   3
BRANCH   2  16
ATOM     16  N   UNL     1      47.155   6.925  13.868  0.00  0.00    +0.000 N 
ATOM     17  C   UNL     1      46.923   6.895  12.516  0.00  0.00    +0.000 C 
ATOM     18  O   UNL     1      47.760   7.262  11.695  0.00  0.00    +0.000 OA
ATOM     19  H   UNL     1      46.393   6.739  14.510  0.00  0.00    +0.000 HD
BRANCH  17  20
ATOM     20  C   UNL     1      45.633   6.342  12.096  0.00  0.00    +0.000 A 
ATOM     21  C   UNL     1      44.675   7.169  11.526  0.00  0.00    +0.000 A 
ATOM     22  S   UNL     1      43.239   6.354  11.096  0.00  0.00    +0.000 S 
ATOM     23  C   UNL     1      43.832   4.879  11.700  0.00  0.00    +0.000 A 
ATOM     24  N   UNL     1      43.066   3.752  11.679  0.00  0.00    +0.000 NA
ATOM     25  C   UNL     1      43.623   2.719  12.211  0.00  0.00    +0.000 A 
ATOM     26  N   UNL     1      44.883   2.700  12.750  0.00  0.00    +0.000 N 
ATOM     27  C   UNL     1      45.715   3.795  12.741  0.00  0.00    +0.000 A 
ATOM     28  O   UNL     1      46.871   3.721  13.148  0.00  0.00    +0.000 OA
ATOM     29  C   UNL     1      45.120   4.997  12.194  0.00  0.00    +0.000 A 
ATOM     30  H   UNL     1      45.271   1.849  13.130  0.00  0.00    +0.000 HD
ENDBRANCH  17  20
ENDBRANCH   2  16
TORSDOF 5
ENDMDL
MODEL 5
REMARK VINA RESULT:    -7.587      2.570      4.070
REMARK INTER + INTRA:         -10.086
REMARK INTER:                  -8.960
REMARK INTRA:                  -1.126
REMARK UNBOUND:                -0.281
REMARK  Name = 
REMARK  6 active torsions:
REMARK  status: ('A' for Active; 'I' for Inactive)
REMARK    1  A    between atoms: C_1  and  C_2
REMARK    2  A    between atoms: C_2  and  N_3
REMARK    3  A    between atoms: C_2  and  C_16
REMARK    4  A    between atoms: C_4  and  C_6
REMARK    5  A    between atoms: C_19  and  O_20
REMARK    6  A    between atoms: O_20  and  C_21
REMARK                            x       y       z     vdW  Elec       q    Type
REMARK                         _______ _______ _______ _____ _____    ______ ____
ROOT
ATOM      1  C   UNL     1      49.877   7.524  13.639  0.00  0.00    +0.000 C 
ATOM      2  C   UNL     1      48.425   7.778  14.047  0.00  0.00    +0.000 C 
ENDROOT
BRANCH   2   3
ATOM      3  C   UNL     1      47.387   7.043  13.215  0.00  0.00    +0.000 A 
ATOM      4  C   UNL     1      46.592   7.796  12.336  0.00  0.00    +0.000 A 
ATOM      5  C   UNL     1      45.581   7.194  11.585  0.00  0.00    +0.000 A 
ATOM      6  C   UNL     1      45.387   5.814  11.647  0.00  0.00    +0.000 A 
ATOM      7  C   UNL     1      46.140   5.058  12.546  0.00  0.00    +0.000 A 
ATOM      8  C   UNL     1      47.125   5.669  13.332  0.00  0.00    +0.000 A 
BRANCH   6   9
ATOM      9  O   UNL     1      44.445   5.130  10.910  0.00  0.00    +0.000 OA
BRANCH   9  10
ATOM     10  C   UNL     1      44.854   4.217   9.961  0.00  0.00    +0.000 A 
ATOM     11  C   UNL     1      44.548   2.853   9.999  0.00  0.00    +0.000 A 
ATOM     12  C   UNL     1      45.052   1.991   9.025  0.00  0.00    +0.000 A 
ATOM     13  C   UNL     1      45.804   2.499   7.968  0.00  0.00    +0.000 A 
ATOM     14  C   UNL     1      46.050   3.870   7.884  0.00  0.00    +0.000 A 
ATOM     15  C   UNL     1      45.579   4.729   8.881  0.00  0.00    +0.000 A 
ENDBRANCH   9  10
ENDBRANCH   6   9
ENDBRANCH   2   3
BRANCH   2  16
ATOM     16  N   UNL     1      48.217   7.453  15.445  0.00  0.00    +0.000 N 
ATOM     17  C   UNL     1      48.638   8.270  16.463  0.00  0.00    +0.000 C 
ATOM     18  O   UNL     1      49.145   9.371  16.259  0.00  0.00    +0.000 OA
ATOM     19  H   UNL     1      47.929   6.504  15.653  0.00  0.00    +0.000 HD
BRANCH  17  20
ATOM     20  C   UNL     1      48.397   7.782  17.824  0.00  0.00    +0.000 A 
ATOM     21  C   UNL     1      47.908   8.644  18.795  0.00  0.00    +0.000 A 
ATOM     22  S   UNL     1      47.686   7.902  20.316  0.00  0.00    +0.000 S 
ATOM     23  C   UNL     1      48.283   6.418  19.739  0.00  0.00    +0.000 A 
ATOM     24  N   UNL     1      48.404   5.340  20.565  0.00  0.00    +0.000 NA
ATOM     25  C   UNL     1      48.913   4.296  20.007  0.00  0.00    +0.000 A 
ATOM     26  N   UNL     1      49.301   4.221  18.694  0.00  0.00    +0.000 N 
ATOM     27  C   UNL     1      49.144   5.262  17.809  0.00  0.00    +0.000 A 
ATOM     28  O   UNL     1      49.416   5.132  16.618  0.00  0.00    +0.000 OA
ATOM     29  C   UNL     1      48.616   6.476  18.397  0.00  0.00    +0.000 A 
ATOM     30  H   UNL     1      49.671   3.363  18.313  0.00  0.00    +0.000 HD
ENDBRANCH  17  20
ENDBRANCH   2  16
TORSDOF 5
ENDMDL
MODEL 6
REMARK VINA RESULT:    -7.378      4.366      8.982
REMARK INTER + INTRA:          -9.816
REMARK INTER:                  -8.554
REMARK INTRA:                  -1.262
REMARK UNBOUND:                -0.281
REMARK  Name = 
REMARK  6 active torsions:
REMARK  status: ('A' for Active; 'I' for Inactive)
REMARK    1  A    between atoms: C_1  and  C_2
REMARK    2  A    between atoms: C_2  and  N_3
REMARK    3  A    between atoms: C_2  and  C_16
REMARK    4  A    between atoms: C_4  and  C_6
REMARK    5  A    between atoms: C_19  and  O_20
REMARK    6  A    between atoms: O_20  and  C_21
REMARK                            x       y       z     vdW  Elec       q    Type
REMARK                         _______ _______ _______ _____ _____    ______ ____
ROOT
ATOM      1  C   UNL     1      48.220   9.168  15.502  0.00  0.00    +0.000 C 
ATOM      2  C   UNL     1      48.721   7.837  14.938  0.00  0.00    +0.000 C 
ENDROOT
BRANCH   2   3
ATOM      3  C   UNL     1      49.527   6.991  15.910  0.00  0.00    +0.000 A 
ATOM      4  C   UNL     1      48.836   6.325  16.936  0.00  0.00    +0.000 A 
ATOM      5  C   UNL     1      49.519   5.579  17.897  0.00  0.00    +0.000 A 
ATOM      6  C   UNL     1      50.903   5.428  17.815  0.00  0.00    +0.000 A 
ATOM      7  C   UNL     1      51.608   6.117  16.828  0.00  0.00    +0.000 A 
ATOM      8  C   UNL     1      50.927   6.901  15.889  0.00  0.00    +0.000 A 
BRANCH   6   9
ATOM      9  O   UNL     1      51.654   4.675  18.692  0.00  0.00    +0.000 OA
BRANCH   9  10
ATOM     10  C   UNL     1      52.044   3.402  18.335  0.00  0.00    +0.000 A 
ATOM     11  C   UNL     1      51.235   2.498  17.639  0.00  0.00    +0.000 A 
ATOM     12  C   UNL     1      51.692   1.208  17.367  0.00  0.00    +0.000 A 
ATOM     13  C   UNL     1      52.987   0.839  17.726  0.00  0.00    +0.000 A 
ATOM     14  C   UNL     1      53.825   1.761  18.354  0.00  0.00    +0.000 A 
ATOM     15  C   UNL     1      53.354   3.040  18.662  0.00  0.00    +0.000 A 
ENDBRANCH   9  10
ENDBRANCH   6   9
ENDBRANCH   2   3
BRANCH   2  16
ATOM     16  N   UNL     1      47.618   7.043  14.431  0.00  0.00    +0.000 N 
ATOM     17  C   UNL     1      47.753   6.184  13.370  0.00  0.00    +0.000 C 
ATOM     18  O   UNL     1      48.836   5.966  12.832  0.00  0.00    +0.000 OA
ATOM     19  H   UNL     1      46.691   7.292  14.757  0.00  0.00    +0.000 HD
BRANCH  17  20
ATOM     20  C   UNL     1      46.535   5.488  12.946  0.00  0.00    +0.000 A 
ATOM     21  C   UNL     1      46.446   4.108  13.067  0.00  0.00    +0.000 A 
ATOM     22  S   UNL     1      44.958   3.472  12.527  0.00  0.00    +0.000 S 
ATOM     23  C   UNL     1      44.403   5.013  12.068  0.00  0.00    +0.000 A 
ATOM     24  N   UNL     1      43.184   5.175  11.481  0.00  0.00    +0.000 NA
ATOM     25  C   UNL     1      42.913   6.389  11.144  0.00  0.00    +0.000 A 
ATOM     26  N   UNL     1      43.740   7.463  11.351  0.00  0.00    +0.000 N 
ATOM     27  C   UNL     1      44.953   7.357  11.992  0.00  0.00    +0.000 A 
ATOM     28  O   UNL     1      45.628   8.351  12.245  0.00  0.00    +0.000 OA
ATOM     29  C   UNL     1      45.326   6.005  12.353  0.00  0.00    +0.000 A 
ATOM     30  H   UNL     1      43.456   8.394  11.085  0.00  0.00    +0.000 HD
ENDBRANCH  17  20
ENDBRANCH   2  16
TORSDOF 5
ENDMDL
MODEL 7
REMARK VINA RESULT:    -7.369      2.890      3.982
REMARK INTER + INTRA:          -9.804
REMARK INTER:                  -8.585
REMARK INTRA:                  -1.220
REMARK UNBOUND:                -0.281
REMARK  Name = 
REMARK  6 active torsions:
REMARK  status: ('A' for Active; 'I' for Inactive)
REMARK    1  A    between atoms: C_1  and  C_2
REMARK    2  A    between atoms: C_2  and  N_3
REMARK    3  A    between atoms: C_2  and  C_16
REMARK    4  A    between atoms: C_4  and  C_6
REMARK    5  A    between atoms: C_19  and  O_20
REMARK    6  A    between atoms: O_20  and  C_21
REMARK                            x       y       z     vdW  Elec       q    Type
REMARK                         _______ _______ _______ _____ _____    ______ ____
ROOT
ATOM      1  C   UNL     1      47.301   4.039  16.435  0.00  0.00    +0.000 C 
ATOM      2  C   UNL     1      47.776   4.945  15.298  0.00  0.00    +0.000 C 
ENDROOT
BRANCH   2   3
ATOM      3  C   UNL     1      46.969   4.840  14.015  0.00  0.00    +0.000 A 
ATOM      4  C   UNL     1      46.373   3.606  13.708  0.00  0.00    +0.000 A 
ATOM      5  C   UNL     1      45.667   3.423  12.518  0.00  0.00    +0.000 A 
ATOM      6  C   UNL     1      45.486   4.490  11.639  0.00  0.00    +0.000 A 
ATOM      7  C   UNL     1      46.106   5.711  11.908  0.00  0.00    +0.000 A 
ATOM      8  C   UNL     1      46.850   5.882  13.082  0.00  0.00    +0.000 A 
BRANCH   6   9
ATOM      9  O   UNL     1      44.767   4.414  10.465  0.00  0.00    +0.000 OA
BRANCH   9  10
ATOM     10  C   UNL     1      45.292   3.733   9.388  0.00  0.00    +0.000 A 
ATOM     11  C   UNL     1      45.238   2.344   9.235  0.00  0.00    +0.000 A 
ATOM     12  C   UNL     1      45.846   1.733   8.137  0.00  0.00    +0.000 A 
ATOM     13  C   UNL     1      46.446   2.512   7.151  0.00  0.00    +0.000 A 
ATOM     14  C   UNL     1      46.437   3.903   7.261  0.00  0.00    +0.000 A 
ATOM     15  C   UNL     1      45.864   4.514   8.380  0.00  0.00    +0.000 A 
ENDBRANCH   9  10
ENDBRANCH   6   9
ENDBRANCH   2   3
BRANCH   2  16
ATOM     16  N   UNL     1      47.803   6.332  15.720  0.00  0.00    +0.000 N 
ATOM     17  C   UNL     1      48.973   7.016  15.932  0.00  0.00    +0.000 C 
ATOM     18  O   UNL     1      50.076   6.526  15.698  0.00  0.00    +0.000 OA
ATOM     19  H   UNL     1      46.929   6.724  16.050  0.00  0.00    +0.000 HD
BRANCH  17  20
ATOM     20  C   UNL     1      48.837   8.397  16.403  0.00  0.00    +0.000 A 
ATOM     21  C   UNL     1      49.363   9.441  15.656  0.00  0.00    +0.000 A 
ATOM     22  S   UNL     1      49.107  10.977  16.354  0.00  0.00    +0.000 S 
ATOM     23  C   UNL     1      48.328  10.293  17.703  0.00  0.00    +0.000 A 
ATOM     24  N   UNL     1      47.884  11.073  18.728  0.00  0.00    +0.000 NA
ATOM     25  C   UNL     1      47.354  10.419  19.704  0.00  0.00    +0.000 A 
ATOM     26  N   UNL     1      47.213   9.056  19.748  0.00  0.00    +0.000 N 
ATOM     27  C   UNL     1      47.592   8.233  18.712  0.00  0.00    +0.000 A 
ATOM     28  O   UNL     1      47.367   7.026  18.742  0.00  0.00    +0.000 OA
ATOM     29  C   UNL     1      48.233   8.916  17.607  0.00  0.00    +0.000 A 
ATOM     30  H   UNL     1      46.766   8.607  20.533  0.00  0.00    +0.000 HD
ENDBRANCH  17  20
ENDBRANCH   2  16
TORSDOF 5
ENDMDL
MODEL 8
REMARK VINA RESULT:    -7.225      3.219      4.673
REMARK INTER + INTRA:          -9.619
REMARK INTER:                  -8.465
REMARK INTRA:                  -1.153
REMARK UNBOUND:                -0.281
REMARK  Name = 
REMARK  6 active torsions:
REMARK  status: ('A' for Active; 'I' for Inactive)
REMARK    1  A    between atoms: C_1  and  C_2
REMARK    2  A    between atoms: C_2  and  N_3
REMARK    3  A    between atoms: C_2  and  C_16
REMARK    4  A    between atoms: C_4  and  C_6
REMARK    5  A    between atoms: C_19  and  O_20
REMARK    6  A    between atoms: O_20  and  C_21
REMARK                            x       y       z     vdW  Elec       q    Type
REMARK                         _______ _______ _______ _____ _____    ______ ____
ROOT
ATOM      1  C   UNL     1      47.139   4.332  16.566  0.00  0.00    +0.000 C 
ATOM      2  C   UNL     1      47.723   4.953  15.296  0.00  0.00    +0.000 C 
ENDROOT
BRANCH   2   3
ATOM      3  C   UNL     1      46.905   4.725  14.036  0.00  0.00    +0.000 A 
ATOM      4  C   UNL     1      46.562   5.845  13.259  0.00  0.00    +0.000 A 
ATOM      5  C   UNL     1      45.763   5.714  12.122  0.00  0.00    +0.000 A 
ATOM      6  C   UNL     1      45.345   4.453  11.699  0.00  0.00    +0.000 A 
ATOM      7  C   UNL     1      45.641   3.337  12.481  0.00  0.00    +0.000 A 
ATOM      8  C   UNL     1      46.406   3.473  13.646  0.00  0.00    +0.000 A 
BRANCH   6   9
ATOM      9  O   UNL     1      44.594   4.226  10.566  0.00  0.00    +0.000 OA
BRANCH   9  10
ATOM     10  C   UNL     1      45.199   3.711   9.439  0.00  0.00    +0.000 A 
ATOM     11  C   UNL     1      45.782   4.490   8.435  0.00  0.00    +0.000 A 
ATOM     12  C   UNL     1      46.324   3.885   7.300  0.00  0.00    +0.000 A 
ATOM     13  C   UNL     1      46.351   2.496   7.198  0.00  0.00    +0.000 A 
ATOM     14  C   UNL     1      45.838   1.712   8.232  0.00  0.00    +0.000 A 
ATOM     15  C   UNL     1      45.259   2.317   9.350  0.00  0.00    +0.000 A 
ENDBRANCH   9  10
ENDBRANCH   6   9
ENDBRANCH   2   3
BRANCH   2  16
ATOM     16  N   UNL     1      47.930   6.379  15.466  0.00  0.00    +0.000 N 
ATOM     17  C   UNL     1      49.132   6.907  15.865  0.00  0.00    +0.000 C 
ATOM     18  O   UNL     1      50.136   6.217  16.025  0.00  0.00    +0.000 OA
ATOM     19  H   UNL     1      47.101   6.960  15.475  0.00  0.00    +0.000 HD
BRANCH  17  20
ATOM     20  C   UNL     1      49.170   8.362  16.038  0.00  0.00    +0.000 A 
ATOM     21  C   UNL     1      49.295   8.907  17.308  0.00  0.00    +0.000 A 
ATOM     22  S   UNL     1      49.326  10.613  17.317  0.00  0.00    +0.000 S 
ATOM     23  C   UNL     1      49.126  10.680  15.630  0.00  0.00    +0.000 A 
ATOM     24  N   UNL     1      49.027  11.874  14.980  0.00  0.00    +0.000 NA
ATOM     25  C   UNL     1      48.832  11.774  13.710  0.00  0.00    +0.000 A 
ATOM     26  N   UNL     1      48.740  10.592  13.022  0.00  0.00    +0.000 N 
ATOM     27  C   UNL     1      48.891   9.365  13.625  0.00  0.00    +0.000 A 
ATOM     28  O   UNL     1      48.895   8.328  12.967  0.00  0.00    +0.000 OA
ATOM     29  C   UNL     1      49.069   9.419  15.061  0.00  0.00    +0.000 A 
ATOM     30  H   UNL     1      48.610  10.585  12.021  0.00  0.00    +0.000 HD
ENDBRANCH  17  20
ENDBRANCH   2  16
TORSDOF 5
ENDMDL
MODEL 9
REMARK VINA RESULT:    -7.213      4.230      6.089
REMARK INTER + INTRA:          -9.603
REMARK INTER:                  -8.385
REMARK INTRA:                  -1.218
REMARK UNBOUND:                -0.281
REMARK  Name = 
REMARK  6 active torsions:
REMARK  status: ('A' for Active; 'I' for Inactive)
REMARK    1  A    between atoms: C_1  and  C_2
REMARK    2  A    between atoms: C_2  and  N_3
REMARK    3  A    between atoms: C_2  and  C_16
REMARK    4  A    between atoms: C_4  and  C_6
REMARK    5  A    between atoms: C_19  and  O_20
REMARK    6  A    between atoms: O_20  and  C_21
REMARK                            x       y       z     vdW  Elec       q    Type
REMARK                         _______ _______ _______ _____ _____    ______ ____
ROOT
ATOM      1  C   UNL     1      44.300   4.339  13.230  0.00  0.00    +0.000 C 
ATOM      2  C   UNL     1      45.599   5.143  13.142  0.00  0.00    +0.000 C 
ENDROOT
BRANCH   2   3
ATOM      3  C   UNL     1      45.433   6.581  12.680  0.00  0.00    +0.000 A 
ATOM      4  C   UNL     1      44.510   6.843  11.654  0.00  0.00    +0.000 A 
ATOM      5  C   UNL     1      44.349   8.131  11.143  0.00  0.00    +0.000 A 
ATOM      6  C   UNL     1      45.061   9.198  11.691  0.00  0.00    +0.000 A 
ATOM      7  C   UNL     1      46.012   8.949  12.681  0.00  0.00    +0.000 A 
ATOM      8  C   UNL     1      46.204   7.649  13.165  0.00  0.00    +0.000 A 
BRANCH   6   9
ATOM      9  O   UNL     1      44.933  10.507  11.280  0.00  0.00    +0.000 OA
BRANCH   9  10
ATOM     10  C   UNL     1      43.732  10.946  10.765  0.00  0.00    +0.000 A 
ATOM     11  C   UNL     1      42.579  11.154  11.529  0.00  0.00    +0.000 A 
ATOM     12  C   UNL     1      41.389  11.546  10.914  0.00  0.00    +0.000 A 
ATOM     13  C   UNL     1      41.365  11.803   9.545  0.00  0.00    +0.000 A 
ATOM     14  C   UNL     1      42.531  11.669   8.791  0.00  0.00    +0.000 A 
ATOM     15  C   UNL     1      43.713  11.238   9.398  0.00  0.00    +0.000 A 
ENDBRANCH   9  10
ENDBRANCH   6   9
ENDBRANCH   2   3
BRANCH   2  16
ATOM     16  N   UNL     1      46.297   5.138  14.413  0.00  0.00    +0.000 N 
ATOM     17  C   UNL     1      47.107   4.103  14.807  0.00  0.00    +0.000 C 
ATOM     18  O   UNL     1      47.362   3.150  14.074  0.00  0.00    +0.000 OA
ATOM     19  H   UNL     1      46.008   5.832  15.092  0.00  0.00    +0.000 HD
BRANCH  17  20
ATOM     20  C   UNL     1      47.704   4.223  16.140  0.00  0.00    +0.000 A 
ATOM     21  C   UNL     1      47.384   3.305  17.129  0.00  0.00    +0.000 A 
ATOM     22  S   UNL     1      48.175   3.598  18.613  0.00  0.00    +0.000 S 
ATOM     23  C   UNL     1      48.933   4.989  17.995  0.00  0.00    +0.000 A 
ATOM     24  N   UNL     1      49.739   5.758  18.781  0.00  0.00    +0.000 NA
ATOM     25  C   UNL     1      50.210   6.806  18.197  0.00  0.00    +0.000 A 
ATOM     26  N   UNL     1      49.963   7.153  16.894  0.00  0.00    +0.000 N 
ATOM     27  C   UNL     1      49.205   6.379  16.046  0.00  0.00    +0.000 A 
ATOM     28  O   UNL     1      49.079   6.669  14.860  0.00  0.00    +0.000 OA
ATOM     29  C   UNL     1      48.615   5.210  16.666  0.00  0.00    +0.000 A 
ATOM     30  H   UNL     1      50.384   7.976  16.489  0.00  0.00    +0.000 HD
ENDBRANCH  17  20
ENDBRANCH   2  16
TORSDOF 5
ENDMDL
