MODEL 1
REMARK VINA RESULT:    -8.291      0.000      0.000
REMARK INTER + INTRA:         -12.811
REMARK INTER:                 -11.684
REMARK INTRA:                  -1.127
REMARK UNBOUND:                -1.127
REMARK  Name = 
REMARK  8 active torsions:
REMARK  status: ('A' for Active; 'I' for Inactive)
REMARK    1  A    between atoms: C_1  and  N_2
REMARK    2  A    between atoms: C_4  and  C_5
REMARK    3  A    between atoms: N_7  and  C_8
REMARK    4  A    between atoms: C_8  and  C_9
REMARK    5  A    between atoms: C_12  and  C_13
REMARK    6  A    between atoms: C_13  and  N_14
REMARK    7  A    between atoms: N_14  and  C_15
REMARK    8  A    between atoms: C_15  and  C_16
REMARK                            x       y       z     vdW  Elec       q    Type
REMARK                         _______ _______ _______ _____ _____    ______ ____
ROOT
ATOM      1  C   UNL     1      48.150   6.510  13.802  0.00  0.00    +0.000 C 
ENDROOT
BRANCH   1   2
ATOM      2  C   UNL     1      46.932   6.113  13.015  0.00  0.00    +0.000 A 
ATOM      3  C   UNL     1      45.944   5.302  13.589  0.00  0.00    +0.000 A 
ATOM      4  C   UNL     1      44.801   4.954  12.865  0.00  0.00    +0.000 A 
ATOM      5  C   UNL     1      44.623   5.404  11.548  0.00  0.00    +0.000 A 
ATOM      6  C   UNL     1      45.621   6.197  10.969  0.00  0.00    +0.000 A 
ATOM      7  C   UNL     1      46.766   6.543  11.692  0.00  0.00    +0.000 A 
BRANCH   5   8
ATOM      8  C   UNL     1      43.381   5.036  10.768  0.00  0.00    +0.000 C 
BRANCH   8   9
ATOM      9  N   UNL     1      43.725   4.473   9.466  0.00  0.00    +0.000 NA
ATOM     10  H   UNL     1      44.442   5.048   9.026  0.00  0.00    +0.000 HD
BRANCH   9  11
ATOM     11  C   UNL     1      44.225   3.104   9.590  0.00  0.00    +0.000 C 
BRANCH  11  12
ATOM     12  C   UNL     1      45.338   2.847   8.601  0.00  0.00    +0.000 A 
ATOM     13  C   UNL     1      45.857   3.883   7.812  0.00  0.00    +0.000 A 
ATOM     14  C   UNL     1      46.890   3.632   6.905  0.00  0.00    +0.000 A 
ATOM     15  C   UNL     1      47.415   2.347   6.778  0.00  0.00    +0.000 A 
ATOM     16  C   UNL     1      46.910   1.311   7.560  0.00  0.00    +0.000 A 
ATOM     17  C   UNL     1      45.881   1.560   8.468  0.00  0.00    +0.000 A 
ENDBRANCH  11  12
ENDBRANCH   9  11
ENDBRANCH   8   9
ENDBRANCH   5   8
ENDBRANCH   1   2
BRANCH   1  20
ATOM     18  C   UNL     1      49.050   6.347  16.065  0.00  0.00    +0.000 C 
ATOM     19  O   UNL     1      50.197   6.451  15.650  0.00  0.00    +0.000 OA
ATOM     20  N   UNL     1      47.962   6.317  15.219  0.00  0.00    +0.000 N 
ATOM     21  H   UNL     1      47.026   6.334  15.595  0.00  0.00    +0.000 HD
BRANCH  18  25
ATOM     22  C   UNL     1      48.583   4.436  20.648  0.00  0.00    +0.000 C 
ATOM     23  N   UNL     1      48.540   5.363  19.541  0.00  0.00    +0.000 N 
ATOM     24  C   UNL     1      48.872   5.079  18.245  0.00  0.00    +0.000 A 
ATOM     25  C   UNL     1      48.731   6.238  17.486  0.00  0.00    +0.000 A 
ATOM     26  C   UNL     1      48.270   7.264  18.389  0.00  0.00    +0.000 A 
ATOM     27  C   UNL     1      47.898   8.607  18.369  0.00  0.00    +0.000 A 
ATOM     28 CL   UNL     1      47.849   9.491  16.925  0.00  0.00    +0.000 Cl
ATOM     29  N   UNL     1      47.487   9.257  19.473  0.00  0.00    +0.000 NA
ATOM     30  C   UNL     1      47.453   8.556  20.612  0.00  0.00    +0.000 A 
ATOM     31  N   UNL     1      47.772   7.265  20.788  0.00  0.00    +0.000 NA
ATOM     32  C   UNL     1      48.168   6.675  19.647  0.00  0.00    +0.000 A 
ENDBRANCH  18  25
ENDBRANCH   1  20
TORSDOF 7
ENDMDL
MODEL 2
REMARK VINA RESULT:    -8.159      1.237      2.321
REMARK INTER + INTRA:         -12.625
REMARK INTER:                 -11.542
REMARK INTRA:                  -1.082
REMARK UNBOUND:                -1.127
REMARK  Name = 
REMARK  8 active torsions:
REMARK  status: ('A' for Active; 'I' for Inactive)
REMARK    1  A    between atoms: C_1  and  N_2
REMARK    2  A    between atoms: C_4  and  C_5
REMARK    3  A    between atoms: N_7  and  C_8
REMARK    4  A    between atoms: C_8  and  C_9
REMARK    5  A    between atoms: C_12  and  C_13
REMARK    6  A    between atoms: C_13  and  N_14
REMARK    7  A    between atoms: N_14  and  C_15
REMARK    8  A    between atoms: C_15  and  C_16
REMARK                            x       y       z     vdW  Elec       q    Type
REMARK                         _______ _______ _______ _____ _____    ______ ____
ROOT
ATOM      1  C   UNL     1      48.306   6.412  13.726  0.00  0.00    +0.000 C 
ENDROOT
BRANCH   1   2
ATOM      2  C   UNL     1      47.058   6.053  12.969  0.00  0.00    +0.000 A 
ATOM      3  C   UNL     1      46.805   6.607  11.706  0.00  0.00    +0.000 A 
ATOM      4  C   UNL     1      45.657   6.253  10.993  0.00  0.00    +0.000 A 
ATOM      5  C   UNL     1      44.732   5.344  11.528  0.00  0.00    +0.000 A 
ATOM      6  C   UNL     1      44.976   4.809  12.799  0.00  0.00    +0.000 A 
ATOM      7  C   UNL     1      46.123   5.164  13.514  0.00  0.00    +0.000 A 
BRANCH   5   8
ATOM      8  C   UNL     1      43.495   4.954  10.752  0.00  0.00    +0.000 C 
BRANCH   8   9
ATOM      9  N   UNL     1      43.843   4.418   9.441  0.00  0.00    +0.000 NA
ATOM     10  H   UNL     1      44.574   4.992   9.022  0.00  0.00    +0.000 HD
BRANCH   9  11
ATOM     11  C   UNL     1      44.319   3.039   9.536  0.00  0.00    +0.000 C 
BRANCH  11  12
ATOM     12  C   UNL     1      45.427   2.783   8.541  0.00  0.00    +0.000 A 
ATOM     13  C   UNL     1      45.965   3.826   7.775  0.00  0.00    +0.000 A 
ATOM     14  C   UNL     1      46.993   3.577   6.862  0.00  0.00    +0.000 A 
ATOM     15  C   UNL     1      47.493   2.285   6.705  0.00  0.00    +0.000 A 
ATOM     16  C   UNL     1      46.970   1.241   7.464  0.00  0.00    +0.000 A 
ATOM     17  C   UNL     1      45.946   1.490   8.378  0.00  0.00    +0.000 A 
ENDBRANCH  11  12
ENDBRANCH   9  11
ENDBRANCH   8   9
ENDBRANCH   5   8
ENDBRANCH   1   2
BRANCH   1  20
ATOM     18  C   UNL     1      49.092   6.687  16.021  0.00  0.00    +0.000 C 
ATOM     19  O   UNL     1      50.251   6.490  15.681  0.00  0.00    +0.000 OA
ATOM     20  N   UNL     1      48.043   6.622  15.129  0.00  0.00    +0.000 N 
ATOM     21  H   UNL     1      47.114   6.891  15.417  0.00  0.00    +0.000 HD
BRANCH  18  25
ATOM     22  C   UNL     1      47.453   9.229  19.987  0.00  0.00    +0.000 C 
ATOM     23  N   UNL     1      47.965   8.158  19.164  0.00  0.00    +0.000 N 
ATOM     24  C   UNL     1      48.291   8.251  17.839  0.00  0.00    +0.000 A 
ATOM     25  C   UNL     1      48.714   7.000  17.397  0.00  0.00    +0.000 A 
ATOM     26  C   UNL     1      48.649   6.119  18.537  0.00  0.00    +0.000 A 
ATOM     27  C   UNL     1      48.922   4.795  18.872  0.00  0.00    +0.000 A 
ATOM     28 CL   UNL     1      49.597   3.719  17.752  0.00  0.00    +0.000 Cl
ATOM     29  N   UNL     1      48.738   4.314  20.115  0.00  0.00    +0.000 NA
ATOM     30  C   UNL     1      48.269   5.168  21.032  0.00  0.00    +0.000 A 
ATOM     31  N   UNL     1      47.967   6.464  20.865  0.00  0.00    +0.000 NA
ATOM     32  C   UNL     1      48.179   6.881  19.605  0.00  0.00    +0.000 A 
ENDBRANCH  18  25
ENDBRANCH   1  20
TORSDOF 7
ENDMDL
MODEL 3
REMARK VINA RESULT:    -7.626      1.359      2.083
REMARK INTER + INTRA:         -11.873
REMARK INTER:                 -10.731
REMARK INTRA:                  -1.143
REMARK UNBOUND:                -1.127
REMARK  Name = 
REMARK  8 active torsions:
REMARK  status: ('A' for Active; 'I' for Inactive)
REMARK    1  A    between atoms: C_1  and  N_2
REMARK    2  A    between atoms: C_4  and  C_5
REMARK    3  A    between atoms: N_7  and  C_8
REMARK    4  A    between atoms: C_8  and  C_9
REMARK    5  A    between atoms: C_12  and  C_13
REMARK    6  A    between atoms: C_13  and  N_14
REMARK    7  A    between atoms: N_14  and  C_15
REMARK    8  A    between atoms: C_15  and  C_16
REMARK                            x       y       z     vdW  Elec       q    Type
REMARK                         _______ _______ _______ _____ _____    ______ ____
ROOT
ATOM      1  C   UNL     1      47.531   3.922  15.333  0.00  0.00    +0.000 C 
ENDROOT
BRANCH   1   2
ATOM      2  C   UNL     1      46.814   4.384  14.095  0.00  0.00    +0.000 A 
ATOM      3  C   UNL     1      46.788   5.742  13.750  0.00  0.00    +0.000 A 
ATOM      4  C   UNL     1      46.143   6.168  12.586  0.00  0.00    +0.000 A 
ATOM      5  C   UNL     1      45.502   5.246  11.744  0.00  0.00    +0.000 A 
ATOM      6  C   UNL     1      45.510   3.892  12.102  0.00  0.00    +0.000 A 
ATOM      7  C   UNL     1      46.155   3.466  13.267  0.00  0.00    +0.000 A 
BRANCH   5   8
ATOM      8  C   UNL     1      44.811   5.705  10.480  0.00  0.00    +0.000 C 
BRANCH   8   9
ATOM      9  N   UNL     1      45.543   5.273   9.294  0.00  0.00    +0.000 NA
ATOM     10  H   UNL     1      46.437   4.870   9.574  0.00  0.00    +0.000 HD
BRANCH   9  11
ATOM     11  C   UNL     1      44.791   4.275   8.535  0.00  0.00    +0.000 C 
BRANCH  11  12
ATOM     12  C   UNL     1      45.713   3.220   7.970  0.00  0.00    +0.000 A 
ATOM     13  C   UNL     1      45.739   1.923   8.502  0.00  0.00    +0.000 A 
ATOM     14  C   UNL     1      46.594   0.956   7.966  0.00  0.00    +0.000 A 
ATOM     15  C   UNL     1      47.430   1.274   6.898  0.00  0.00    +0.000 A 
ATOM     16  C   UNL     1      47.410   2.557   6.359  0.00  0.00    +0.000 A 
ATOM     17  C   UNL     1      46.555   3.523   6.890  0.00  0.00    +0.000 A 
ENDBRANCH  11  12
ENDBRANCH   9  11
ENDBRANCH   8   9
ENDBRANCH   5   8
ENDBRANCH   1   2
BRANCH   1  20
ATOM     18  C   UNL     1      48.442   5.398  17.051  0.00  0.00    +0.000 C 
ATOM     19  O   UNL     1      49.589   5.089  16.751  0.00  0.00    +0.000 OA
ATOM     20  N   UNL     1      47.346   4.834  16.435  0.00  0.00    +0.000 N 
ATOM     21  H   UNL     1      46.419   5.184  16.630  0.00  0.00    +0.000 HD
BRANCH  18  25
ATOM     22  C   UNL     1      47.405   7.349  21.521  0.00  0.00    +0.000 C 
ATOM     23  N   UNL     1      47.679   7.236  20.108  0.00  0.00    +0.000 N 
ATOM     24  C   UNL     1      47.860   6.070  19.417  0.00  0.00    +0.000 A 
ATOM     25  C   UNL     1      48.133   6.379  18.087  0.00  0.00    +0.000 A 
ATOM     26  C   UNL     1      48.095   7.817  17.985  0.00  0.00    +0.000 A 
ATOM     27  C   UNL     1      48.234   8.817  17.025  0.00  0.00    +0.000 A 
ATOM     28 CL   UNL     1      48.481   8.448  15.390  0.00  0.00    +0.000 Cl
ATOM     29  N   UNL     1      48.108  10.123  17.323  0.00  0.00    +0.000 NA
ATOM     30  C   UNL     1      47.845  10.432  18.598  0.00  0.00    +0.000 A 
ATOM     31  N   UNL     1      47.678   9.589  19.626  0.00  0.00    +0.000 NA
ATOM     32  C   UNL     1      47.811   8.302  19.260  0.00  0.00    +0.000 A 
ENDBRANCH  18  25
ENDBRANCH   1  20
TORSDOF 7
ENDMDL
MODEL 4
REMARK VINA RESULT:    -7.575      1.652      2.460
REMARK INTER + INTRA:         -11.802
REMARK INTER:                 -10.920
REMARK INTRA:                  -0.882
REMARK UNBOUND:                -1.127
REMARK  Name = 
REMARK  8 active torsions:
REMARK  status: ('A' for Active; 'I' for Inactive)
REMARK    1  A    between atoms: C_1  and  N_2
REMARK    2  A    between atoms: C_4  and  C_5
REMARK    3  A    between atoms: N_7  and  C_8
REMARK    4  A    between atoms: C_8  and  C_9
REMARK    5  A    between atoms: C_12  and  C_13
REMARK    6  A    between atoms: C_13  and  N_14
REMARK    7  A    between atoms: N_14  and  C_15
REMARK    8  A    between atoms: C_15  and  C_16
REMARK                            x       y       z     vdW  Elec       q    Type
REMARK                         _______ _______ _______ _____ _____    ______ ____
ROOT
ATOM      1  C   UNL     1      47.484   4.177  15.354  0.00  0.00    +0.000 C 
ENDROOT
BRANCH   1   2
ATOM      2  C   UNL     1      46.868   4.614  14.054  0.00  0.00    +0.000 A 
ATOM      3  C   UNL     1      45.982   3.774  13.366  0.00  0.00    +0.000 A 
ATOM      4  C   UNL     1      45.391   4.191  12.170  0.00  0.00    +0.000 A 
ATOM      5  C   UNL     1      45.679   5.455  11.632  0.00  0.00    +0.000 A 
ATOM      6  C   UNL     1      46.582   6.283  12.310  0.00  0.00    +0.000 A 
ATOM      7  C   UNL     1      47.174   5.866  13.504  0.00  0.00    +0.000 A 
BRANCH   5   8
ATOM      8  C   UNL     1      45.033   5.910  10.343  0.00  0.00    +0.000 C 
BRANCH   8   9
ATOM      9  N   UNL     1      45.694   5.318   9.185  0.00  0.00    +0.000 NA
ATOM     10  H   UNL     1      46.605   4.954   9.463  0.00  0.00    +0.000 HD
BRANCH   9  11
ATOM     11  C   UNL     1      44.903   4.229   8.615  0.00  0.00    +0.000 C 
BRANCH  11  12
ATOM     12  C   UNL     1      45.794   3.207   7.950  0.00  0.00    +0.000 A 
ATOM     13  C   UNL     1      46.597   3.552   6.854  0.00  0.00    +0.000 A 
ATOM     14  C   UNL     1      47.422   2.597   6.252  0.00  0.00    +0.000 A 
ATOM     15  C   UNL     1      47.452   1.291   6.738  0.00  0.00    +0.000 A 
ATOM     16  C   UNL     1      46.662   0.937   7.829  0.00  0.00    +0.000 A 
ATOM     17  C   UNL     1      45.842   1.890   8.433  0.00  0.00    +0.000 A 
ENDBRANCH  11  12
ENDBRANCH   9  11
ENDBRANCH   8   9
ENDBRANCH   5   8
ENDBRANCH   1   2
BRANCH   1  20
ATOM     18  C   UNL     1      48.561   5.729  16.900  0.00  0.00    +0.000 C 
ATOM     19  O   UNL     1      49.669   5.292  16.616  0.00  0.00    +0.000 OA
ATOM     20  N   UNL     1      47.405   5.207  16.360  0.00  0.00    +0.000 N 
ATOM     21  H   UNL     1      46.517   5.655  16.534  0.00  0.00    +0.000 HD
BRANCH  18  25
ATOM     22  C   UNL     1      47.836  10.344  18.645  0.00  0.00    +0.000 C 
ATOM     23  N   UNL     1      48.027   8.913  18.598  0.00  0.00    +0.000 N 
ATOM     24  C   UNL     1      48.273   8.174  17.474  0.00  0.00    +0.000 A 
ATOM     25  C   UNL     1      48.363   6.833  17.836  0.00  0.00    +0.000 A 
ATOM     26  C   UNL     1      48.175   6.780  19.265  0.00  0.00    +0.000 A 
ATOM     27  C   UNL     1      48.156   5.847  20.300  0.00  0.00    +0.000 A 
ATOM     28 CL   UNL     1      48.484   4.209  20.022  0.00  0.00    +0.000 Cl
ATOM     29  N   UNL     1      47.952   6.199  21.582  0.00  0.00    +0.000 NA
ATOM     30  C   UNL     1      47.759   7.499  21.831  0.00  0.00    +0.000 A 
ATOM     31  N   UNL     1      47.754   8.510  20.950  0.00  0.00    +0.000 NA
ATOM     32  C   UNL     1      47.970   8.091  19.690  0.00  0.00    +0.000 A 
ENDBRANCH  18  25
ENDBRANCH   1  20
TORSDOF 7
ENDMDL
MODEL 5
REMARK VINA RESULT:    -7.470      2.891      4.293
REMARK INTER + INTRA:         -11.653
REMARK INTER:                 -10.511
REMARK INTRA:                  -1.142
REMARK UNBOUND:                -1.127
REMARK  Name = 
REMARK  8 active torsions:
REMARK  status: ('A' for Active; 'I' for Inactive)
REMARK    1  A    between atoms: C_1  and  N_2
REMARK    2  A    between atoms: C_4  and  C_5
REMARK    3  A    between atoms: N_7  and  C_8
REMARK    4  A    between atoms: C_8  and  C_9
REMARK    5  A    between atoms: C_12  and  C_13
REMARK    6  A    between atoms: C_13  and  N_14
REMARK    7  A    between atoms: N_14  and  C_15
REMARK    8  A    between atoms: C_15  and  C_16
REMARK                            x       y       z     vdW  Elec       q    Type
REMARK                         _______ _______ _______ _____ _____    ______ ____
ROOT
ATOM      1  C   UNL     1      47.538   5.365  14.441  0.00  0.00    +0.000 C 
ENDROOT
BRANCH   1   2
ATOM      2  C   UNL     1      46.517   5.081  13.374  0.00  0.00    +0.000 A 
ATOM      3  C   UNL     1      45.995   6.118  12.591  0.00  0.00    +0.000 A 
ATOM      4  C   UNL     1      45.064   5.850  11.584  0.00  0.00    +0.000 A 
ATOM      5  C   UNL     1      44.629   4.537  11.342  0.00  0.00    +0.000 A 
ATOM      6  C   UNL     1      45.137   3.504  12.140  0.00  0.00    +0.000 A 
ATOM      7  C   UNL     1      46.066   3.774  13.149  0.00  0.00    +0.000 A 
BRANCH   5   8
ATOM      8  C   UNL     1      43.630   4.245  10.246  0.00  0.00    +0.000 C 
BRANCH   8   9
ATOM      9  N   UNL     1      44.194   3.348   9.244  0.00  0.00    +0.000 NA
ATOM     10  H   UNL     1      43.449   3.003   8.639  0.00  0.00    +0.000 HD
BRANCH   9  11
ATOM     11  C   UNL     1      45.196   4.025   8.422  0.00  0.00    +0.000 C 
BRANCH  11  12
ATOM     12  C   UNL     1      46.017   3.026   7.641  0.00  0.00    +0.000 A 
ATOM     13  C   UNL     1      46.243   1.734   8.136  0.00  0.00    +0.000 A 
ATOM     14  C   UNL     1      47.000   0.817   7.401  0.00  0.00    +0.000 A 
ATOM     15  C   UNL     1      47.538   1.181   6.168  0.00  0.00    +0.000 A 
ATOM     16  C   UNL     1      47.316   2.461   5.664  0.00  0.00    +0.000 A 
ATOM     17  C   UNL     1      46.558   3.375   6.395  0.00  0.00    +0.000 A 
ENDBRANCH  11  12
ENDBRANCH   9  11
ENDBRANCH   8   9
ENDBRANCH   5   8
ENDBRANCH   1   2
BRANCH   1  20
ATOM     18  C   UNL     1      48.931   7.294  14.988  0.00  0.00    +0.000 C 
ATOM     19  O   UNL     1      49.910   6.578  15.155  0.00  0.00    +0.000 OA
ATOM     20  N   UNL     1      47.690   6.780  14.677  0.00  0.00    +0.000 N 
ATOM     21  H   UNL     1      46.928   7.400  14.444  0.00  0.00    +0.000 HD
BRANCH  18  25
ATOM     22  C   UNL     1      49.308  11.833  17.017  0.00  0.00    +0.000 C 
ATOM     23  N   UNL     1      49.167  10.779  16.041  0.00  0.00    +0.000 N 
ATOM     24  C   UNL     1      49.076   9.441  16.313  0.00  0.00    +0.000 A 
ATOM     25  C   UNL     1      48.985   8.748  15.109  0.00  0.00    +0.000 A 
ATOM     26  C   UNL     1      49.007   9.740  14.063  0.00  0.00    +0.000 A 
ATOM     27  C   UNL     1      48.933   9.820  12.674  0.00  0.00    +0.000 A 
ATOM     28 CL   UNL     1      48.689   8.443  11.719  0.00  0.00    +0.000 Cl
ATOM     29  N   UNL     1      48.976  10.994  12.017  0.00  0.00    +0.000 NA
ATOM     30  C   UNL     1      49.100  12.100  12.759  0.00  0.00    +0.000 A 
ATOM     31  N   UNL     1      49.176  12.185  14.095  0.00  0.00    +0.000 NA
ATOM     32  C   UNL     1      49.122  10.980  14.688  0.00  0.00    +0.000 A 
ENDBRANCH  18  25
ENDBRANCH   1  20
TORSDOF 7
ENDMDL
MODEL 6
REMARK VINA RESULT:    -7.382      2.165      2.982
REMARK INTER + INTRA:         -11.530
REMARK INTER:                 -10.184
REMARK INTRA:                  -1.345
REMARK UNBOUND:                -1.127
REMARK  Name = 
REMARK  8 active torsions:
REMARK  status: ('A' for Active; 'I' for Inactive)
REMARK    1  A    between atoms: C_1  and  N_2
REMARK    2  A    between atoms: C_4  and  C_5
REMARK    3  A    between atoms: N_7  and  C_8
REMARK    4  A    between atoms: C_8  and  C_9
REMARK    5  A    between atoms: C_12  and  C_13
REMARK    6  A    between atoms: C_13  and  N_14
REMARK    7  A    between atoms: N_14  and  C_15
REMARK    8  A    between atoms: C_15  and  C_16
REMARK                            x       y       z     vdW  Elec       q    Type
REMARK                         _______ _______ _______ _____ _____    ______ ____
ROOT
ATOM      1  C   UNL     1      45.977   8.391  12.791  0.00  0.00    +0.000 C 
ENDROOT
BRANCH   1   2
ATOM      2  C   UNL     1      45.429   7.057  12.364  0.00  0.00    +0.000 A 
ATOM      3  C   UNL     1      44.281   6.529  12.970  0.00  0.00    +0.000 A 
ATOM      4  C   UNL     1      43.759   5.301  12.555  0.00  0.00    +0.000 A 
ATOM      5  C   UNL     1      44.378   4.570  11.530  0.00  0.00    +0.000 A 
ATOM      6  C   UNL     1      45.538   5.089  10.941  0.00  0.00    +0.000 A 
ATOM      7  C   UNL     1      46.061   6.316  11.356  0.00  0.00    +0.000 A 
BRANCH   5   8
ATOM      8  C   UNL     1      43.808   3.245  11.075  0.00  0.00    +0.000 C 
BRANCH   8   9
ATOM      9  N   UNL     1      44.842   2.402  10.485  0.00  0.00    +0.000 NA
ATOM     10  H   UNL     1      44.971   1.570  11.060  0.00  0.00    +0.000 HD
BRANCH   9  11
ATOM     11  C   UNL     1      44.487   1.989   9.128  0.00  0.00    +0.000 C 
BRANCH  11  12
ATOM     12  C   UNL     1      45.646   2.197   8.181  0.00  0.00    +0.000 A 
ATOM     13  C   UNL     1      45.865   3.439   7.569  0.00  0.00    +0.000 A 
ATOM     14  C   UNL     1      46.944   3.619   6.700  0.00  0.00    +0.000 A 
ATOM     15  C   UNL     1      47.813   2.562   6.434  0.00  0.00    +0.000 A 
ATOM     16  C   UNL     1      47.609   1.325   7.039  0.00  0.00    +0.000 A 
ATOM     17  C   UNL     1      46.534   1.145   7.910  0.00  0.00    +0.000 A 
ENDBRANCH  11  12
ENDBRANCH   9  11
ENDBRANCH   8   9
ENDBRANCH   5   8
ENDBRANCH   1   2
BRANCH   1  20
ATOM     18  C   UNL     1      48.167   8.205  13.853  0.00  0.00    +0.000 C 
ATOM     19  O   UNL     1      48.724   8.141  12.765  0.00  0.00    +0.000 OA
ATOM     20  N   UNL     1      46.796   8.283  13.973  0.00  0.00    +0.000 N 
ATOM     21  H   UNL     1      46.374   8.439  14.877  0.00  0.00    +0.000 HD
BRANCH  18  25
ATOM     22  C   UNL     1      50.946   9.769  17.687  0.00  0.00    +0.000 C 
ATOM     23  N   UNL     1      50.141   8.925  16.835  0.00  0.00    +0.000 N 
ATOM     24  C   UNL     1      49.652   9.263  15.603  0.00  0.00    +0.000 A 
ATOM     25  C   UNL     1      48.899   8.199  15.117  0.00  0.00    +0.000 A 
ATOM     26  C   UNL     1      48.961   7.162  16.117  0.00  0.00    +0.000 A 
ATOM     27  C   UNL     1      48.507   5.862  16.329  0.00  0.00    +0.000 A 
ATOM     28 CL   UNL     1      47.628   5.027  15.146  0.00  0.00    +0.000 Cl
ATOM     29  N   UNL     1      48.798   5.170  17.446  0.00  0.00    +0.000 NA
ATOM     30  C   UNL     1      49.550   5.788  18.364  0.00  0.00    +0.000 A 
ATOM     31  N   UNL     1      50.064   7.026  18.302  0.00  0.00    +0.000 NA
ATOM     32  C   UNL     1      49.740   7.658  17.161  0.00  0.00    +0.000 A 
ENDBRANCH  18  25
ENDBRANCH   1  20
TORSDOF 7
ENDMDL
MODEL 7
REMARK VINA RESULT:    -7.196      1.701      2.132
REMARK INTER + INTRA:         -11.268
REMARK INTER:                 -10.315
REMARK INTRA:                  -0.953
REMARK UNBOUND:                -1.127
REMARK  Name = 
REMARK  8 active torsions:
REMARK  status: ('A' for Active; 'I' for Inactive)
REMARK    1  A    between atoms: C_1  and  N_2
REMARK    2  A    between atoms: C_4  and  C_5
REMARK    3  A    between atoms: N_7  and  C_8
REMARK    4  A    between atoms: C_8  and  C_9
REMARK    5  A    between atoms: C_12  and  C_13
REMARK    6  A    between atoms: C_13  and  N_14
REMARK    7  A    between atoms: N_14  and  C_15
REMARK    8  A    between atoms: C_15  and  C_16
REMARK                            x       y       z     vdW  Elec       q    Type
REMARK                         _______ _______ _______ _____ _____    ______ ____
ROOT
ATOM      1  C   UNL     1      47.136   7.973  13.072  0.00  0.00    +0.000 C 
ENDROOT
BRANCH   1   2
ATOM      2  C   UNL     1      46.156   6.976  12.522  0.00  0.00    +0.000 A 
ATOM      3  C   UNL     1      44.948   7.401  11.952  0.00  0.00    +0.000 A 
ATOM      4  C   UNL     1      44.049   6.474  11.418  0.00  0.00    +0.000 A 
ATOM      5  C   UNL     1      44.333   5.100  11.449  0.00  0.00    +0.000 A 
ATOM      6  C   UNL     1      45.531   4.676  12.039  0.00  0.00    +0.000 A 
ATOM      7  C   UNL     1      46.429   5.602  12.574  0.00  0.00    +0.000 A 
BRANCH   5   8
ATOM      8  C   UNL     1      43.364   4.098  10.864  0.00  0.00    +0.000 C 
BRANCH   8   9
ATOM      9  N   UNL     1      43.739   3.737   9.501  0.00  0.00    +0.000 NA
ATOM     10  H   UNL     1      44.367   4.447   9.123  0.00  0.00    +0.000 HD
BRANCH   9  11
ATOM     11  C   UNL     1      44.409   2.439   9.456  0.00  0.00    +0.000 C 
BRANCH  11  12
ATOM     12  C   UNL     1      45.535   2.449   8.448  0.00  0.00    +0.000 A 
ATOM     13  C   UNL     1      46.247   1.279   8.150  0.00  0.00    +0.000 A 
ATOM     14  C   UNL     1      47.283   1.301   7.212  0.00  0.00    +0.000 A 
ATOM     15  C   UNL     1      47.617   2.489   6.565  0.00  0.00    +0.000 A 
ATOM     16  C   UNL     1      46.914   3.657   6.850  0.00  0.00    +0.000 A 
ATOM     17  C   UNL     1      45.878   3.636   7.783  0.00  0.00    +0.000 A 
ENDBRANCH  11  12
ENDBRANCH   9  11
ENDBRANCH   8   9
ENDBRANCH   5   8
ENDBRANCH   1   2
BRANCH   1  20
ATOM     18  C   UNL     1      48.816   7.134  14.631  0.00  0.00    +0.000 C 
ATOM     19  O   UNL     1      49.586   6.879  13.714  0.00  0.00    +0.000 OA
ATOM     20  N   UNL     1      47.552   7.637  14.411  0.00  0.00    +0.000 N 
ATOM     21  H   UNL     1      46.982   7.933  15.190  0.00  0.00    +0.000 HD
BRANCH  18  25
ATOM     22  C   UNL     1      49.429   4.875  19.035  0.00  0.00    +0.000 C 
ATOM     23  N   UNL     1      49.439   5.884  18.002  0.00  0.00    +0.000 N 
ATOM     24  C   UNL     1      48.932   5.743  16.739  0.00  0.00    +0.000 A 
ATOM     25  C   UNL     1      49.163   6.922  16.034  0.00  0.00    +0.000 A 
ATOM     26  C   UNL     1      49.832   7.819  16.944  0.00  0.00    +0.000 A 
ATOM     27  C   UNL     1      50.334   9.118  16.976  0.00  0.00    +0.000 A 
ATOM     28 CL   UNL     1      50.167  10.166  15.655  0.00  0.00    +0.000 Cl
ATOM     29  N   UNL     1      50.910   9.640  18.074  0.00  0.00    +0.000 NA
ATOM     30  C   UNL     1      50.990   8.850  19.151  0.00  0.00    +0.000 A 
ATOM     31  N   UNL     1      50.550   7.590  19.276  0.00  0.00    +0.000 NA
ATOM     32  C   UNL     1      49.981   7.132  18.147  0.00  0.00    +0.000 A 
ENDBRANCH  18  25
ENDBRANCH   1  20
TORSDOF 7
ENDMDL
MODEL 8
REMARK VINA RESULT:    -7.196      2.112      2.832
REMARK INTER + INTRA:         -11.268
REMARK INTER:                 -10.497
REMARK INTRA:                  -0.770
REMARK UNBOUND:                -1.127
REMARK  Name = 
REMARK  8 active torsions:
REMARK  status: ('A' for Active; 'I' for Inactive)
REMARK    1  A    between atoms: C_1  and  N_2
REMARK    2  A    between atoms: C_4  and  C_5
REMARK    3  A    between atoms: N_7  and  C_8
REMARK    4  A    between atoms: C_8  and  C_9
REMARK    5  A    between atoms: C_12  and  C_13
REMARK    6  A    between atoms: C_13  and  N_14
REMARK    7  A    between atoms: N_14  and  C_15
REMARK    8  A    between atoms: C_15  and  C_16
REMARK                            x       y       z     vdW  Elec       q    Type
REMARK                         _______ _______ _______ _____ _____    ______ ____
ROOT
ATOM      1  C   UNL     1      47.420   4.157  15.412  0.00  0.00    +0.000 C 
ENDROOT
BRANCH   1   2
ATOM      2  C   UNL     1      46.856   4.635  14.103  0.00  0.00    +0.000 A 
ATOM      3  C   UNL     1      45.934   3.854  13.394  0.00  0.00    +0.000 A 
ATOM      4  C   UNL     1      45.392   4.310  12.190  0.00  0.00    +0.000 A 
ATOM      5  C   UNL     1      45.767   5.556  11.663  0.00  0.00    +0.000 A 
ATOM      6  C   UNL     1      46.705   6.326  12.362  0.00  0.00    +0.000 A 
ATOM      7  C   UNL     1      47.248   5.868  13.565  0.00  0.00    +0.000 A 
BRANCH   5   8
ATOM      8  C   UNL     1      45.174   6.054  10.364  0.00  0.00    +0.000 C 
BRANCH   8   9
ATOM      9  N   UNL     1      45.772   5.377   9.219  0.00  0.00    +0.000 NA
ATOM     10  H   UNL     1      46.693   5.025   9.476  0.00  0.00    +0.000 HD
BRANCH   9  11
ATOM     11  C   UNL     1      44.946   4.259   8.766  0.00  0.00    +0.000 C 
BRANCH  11  12
ATOM     12  C   UNL     1      45.787   3.219   8.064  0.00  0.00    +0.000 A 
ATOM     13  C   UNL     1      45.798   1.886   8.499  0.00  0.00    +0.000 A 
ATOM     14  C   UNL     1      46.577   0.932   7.837  0.00  0.00    +0.000 A 
ATOM     15  C   UNL     1      47.349   1.300   6.737  0.00  0.00    +0.000 A 
ATOM     16  C   UNL     1      47.342   2.619   6.293  0.00  0.00    +0.000 A 
ATOM     17  C   UNL     1      46.564   3.571   6.950  0.00  0.00    +0.000 A 
ENDBRANCH  11  12
ENDBRANCH   9  11
ENDBRANCH   8   9
ENDBRANCH   5   8
ENDBRANCH   1   2
BRANCH   1  20
ATOM     18  C   UNL     1      47.606   5.213  17.605  0.00  0.00    +0.000 C 
ATOM     19  O   UNL     1      46.966   4.309  18.129  0.00  0.00    +0.000 OA
ATOM     20  N   UNL     1      47.844   5.253  16.248  0.00  0.00    +0.000 N 
ATOM     21  H   UNL     1      48.460   5.953  15.862  0.00  0.00    +0.000 HD
BRANCH  18  25
ATOM     22  C   UNL     1      47.875   9.302  20.447  0.00  0.00    +0.000 C 
ATOM     23  N   UNL     1      48.263   8.160  19.652  0.00  0.00    +0.000 N 
ATOM     24  C   UNL     1      47.413   7.321  18.986  0.00  0.00    +0.000 A 
ATOM     25  C   UNL     1      48.165   6.328  18.365  0.00  0.00    +0.000 A 
ATOM     26  C   UNL     1      49.546   6.609  18.670  0.00  0.00    +0.000 A 
ATOM     27  C   UNL     1      50.817   6.107  18.398  0.00  0.00    +0.000 A 
ATOM     28 CL   UNL     1      51.044   4.784  17.364  0.00  0.00    +0.000 Cl
ATOM     29  N   UNL     1      51.936   6.681  18.877  0.00  0.00    +0.000 NA
ATOM     30  C   UNL     1      51.780   7.769  19.640  0.00  0.00    +0.000 A 
ATOM     31  N   UNL     1      50.632   8.370  19.983  0.00  0.00    +0.000 NA
ATOM     32  C   UNL     1      49.556   7.751  19.469  0.00  0.00    +0.000 A 
ENDBRANCH  18  25
ENDBRANCH   1  20
TORSDOF 7
ENDMDL
MODEL 9
REMARK VINA RESULT:    -7.129      1.646      2.787
REMARK INTER + INTRA:         -11.173
REMARK INTER:                 -10.468
REMARK INTRA:                  -0.705
REMARK UNBOUND:                -1.127
REMARK  Name = 
REMARK  8 active torsions:
REMARK  status: ('A' for Active; 'I' for Inactive)
REMARK    1  A    between atoms: C_1  and  N_2
REMARK    2  A    between atoms: C_4  and  C_5
REMARK    3  A    between atoms: N_7  and  C_8
REMARK    4  A    between atoms: C_8  and  C_9
REMARK    5  A    between atoms: C_12  and  C_13
REMARK    6  A    between atoms: C_13  and  N_14
REMARK    7  A    between atoms: N_14  and  C_15
REMARK    8  A    between atoms: C_15  and  C_16
REMARK                            x       y       z     vdW  Elec       q    Type
REMARK                         _______ _______ _______ _____ _____    ______ ____
ROOT
ATOM      1  C   UNL     1      48.756   6.586  14.756  0.00  0.00    +0.000 C 
ENDROOT
BRANCH   1   2
ATOM      2  C   UNL     1      47.711   6.252  13.727  0.00  0.00    +0.000 A 
ATOM      3  C   UNL     1      47.624   6.982  12.535  0.00  0.00    +0.000 A 
ATOM      4  C   UNL     1      46.668   6.655  11.569  0.00  0.00    +0.000 A 
ATOM      5  C   UNL     1      45.774   5.593  11.777  0.00  0.00    +0.000 A 
ATOM      6  C   UNL     1      45.849   4.879  12.979  0.00  0.00    +0.000 A 
ATOM      7  C   UNL     1      46.804   5.207  13.946  0.00  0.00    +0.000 A 
BRANCH   5   8
ATOM      8  C   UNL     1      44.747   5.233  10.728  0.00  0.00    +0.000 C 
BRANCH   8   9
ATOM      9  N   UNL     1      45.369   5.054   9.421  0.00  0.00    +0.000 NA
ATOM     10  H   UNL     1      46.340   4.767   9.544  0.00  0.00    +0.000 HD
BRANCH   9  11
ATOM     11  C   UNL     1      44.672   4.040   8.631  0.00  0.00    +0.000 C 
BRANCH  11  12
ATOM     12  C   UNL     1      45.655   3.098   7.976  0.00  0.00    +0.000 A 
ATOM     13  C   UNL     1      46.464   3.522   6.913  0.00  0.00    +0.000 A 
ATOM     14  C   UNL     1      47.373   2.642   6.320  0.00  0.00    +0.000 A 
ATOM     15  C   UNL     1      47.483   1.332   6.782  0.00  0.00    +0.000 A 
ATOM     16  C   UNL     1      46.688   0.900   7.841  0.00  0.00    +0.000 A 
ATOM     17  C   UNL     1      45.783   1.779   8.436  0.00  0.00    +0.000 A 
ENDBRANCH  11  12
ENDBRANCH   9  11
ENDBRANCH   8   9
ENDBRANCH   5   8
ENDBRANCH   1   2
BRANCH   1  20
ATOM     18  C   UNL     1      49.088   8.009  16.711  0.00  0.00    +0.000 C 
ATOM     19  O   UNL     1      50.290   7.776  16.715  0.00  0.00    +0.000 OA
ATOM     20  N   UNL     1      48.230   7.426  15.804  0.00  0.00    +0.000 N 
ATOM     21  H   UNL     1      47.264   7.717  15.760  0.00  0.00    +0.000 HD
BRANCH  18  25
ATOM     22  C   UNL     1      47.000  12.112  18.629  0.00  0.00    +0.000 C 
ATOM     23  N   UNL     1      47.511  10.766  18.505  0.00  0.00    +0.000 N 
ATOM     24  C   UNL     1      48.147  10.248  17.411  0.00  0.00    +0.000 A 
ATOM     25  C   UNL     1      48.456   8.915  17.666  0.00  0.00    +0.000 A 
ATOM     26  C   UNL     1      47.987   8.635  19.001  0.00  0.00    +0.000 A 
ATOM     27  C   UNL     1      47.959   7.586  19.918  0.00  0.00    +0.000 A 
ATOM     28 CL   UNL     1      48.696   6.098  19.585  0.00  0.00    +0.000 Cl
ATOM     29  N   UNL     1      47.416   7.715  21.142  0.00  0.00    +0.000 NA
ATOM     30  C   UNL     1      46.889   8.906  21.450  0.00  0.00    +0.000 A 
ATOM     31  N   UNL     1      46.846  10.004  20.683  0.00  0.00    +0.000 NA
ATOM     32  C   UNL     1      47.410   9.810  19.478  0.00  0.00    +0.000 A 
ENDBRANCH  18  25
ENDBRANCH   1  20
TORSDOF 7
ENDMDL
