MODEL 1
REMARK VINA RESULT:    -7.690      0.000      0.000
REMARK INTER + INTRA:         -12.483
REMARK INTER:                 -11.512
REMARK INTRA:                  -0.972
REMARK UNBOUND:                -0.972
REMARK  Name = 
REMARK  9 active torsions:
REMARK  status: ('A' for Active; 'I' for Inactive)
REMARK    1  A    between atoms: C_2  and  C_13
REMARK    2  A    between atoms: N_3  and  CA_4
REMARK    3  A    between atoms: CA_4  and  C_5
REMARK    4  A    between atoms: CA_4  and  C_7
REMARK    5  A    between atoms: C_5  and  O_6
REMARK    6  A    between atoms: C_16  and  C_17
REMARK    7  A    between atoms: C_17  and  N_18
REMARK    8  A    between atoms: N_18  and  C_19
REMARK    9  A    between atoms: C_19  and  C_20
REMARK                            x       y       z     vdW  Elec       q    Type
REMARK                         _______ _______ _______ _____ _____    ______ ____
ROOT
ATOM      1  C   UNL     1      46.293   4.262  13.418  0.00  0.00    +0.000 A 
ATOM      2  C   UNL     1      45.695   3.157  12.804  0.00  0.00    +0.000 A 
ATOM      3  C   UNL     1      44.837   3.336  11.717  0.00  0.00    +0.000 A 
ATOM      4  C   UNL     1      44.565   4.623  11.229  0.00  0.00    +0.000 A 
ATOM      5  C   UNL     1      45.198   5.724  11.826  0.00  0.00    +0.000 A 
ATOM      6  C   UNL     1      46.061   5.547  12.912  0.00  0.00    +0.000 A 
ENDROOT
BRANCH   1   8
ATOM      7  O   UNL     1      47.704   2.925  14.758  0.00  0.00    +0.000 OA
ATOM      8  C   UNL     1      47.173   4.018  14.594  0.00  0.00    +0.000 C 
ATOM      9  N   UNL     1      47.306   5.060  15.479  0.00  0.00    +0.000 N 
ATOM     10  H   UNL     1      46.668   5.841  15.427  0.00  0.00    +0.000 HD
BRANCH   9  11
ATOM     11  CA  UNL     1      48.065   4.926  16.716  0.00  0.00    +0.000 C 
BRANCH  11  12
ATOM     12  C   UNL     1      48.830   6.216  16.966  0.00  0.00    +0.000 A 
ATOM     13  C   UNL     1      49.351   6.937  15.881  0.00  0.00    +0.000 A 
ATOM     14  C   UNL     1      49.981   8.167  16.081  0.00  0.00    +0.000 A 
ATOM     15  C   UNL     1      50.092   8.695  17.365  0.00  0.00    +0.000 A 
ATOM     16  C   UNL     1      49.588   7.989  18.454  0.00  0.00    +0.000 A 
ATOM     17  C   UNL     1      48.966   6.757  18.256  0.00  0.00    +0.000 A 
ENDBRANCH  11  12
BRANCH  11  18
ATOM     18  C   UNL     1      47.171   4.473  17.896  0.00  0.00    +0.000 C 
BRANCH  18  19
ATOM     19  O   UNL     1      46.611   3.172  17.683  0.00  0.00    +0.000 OA
ATOM     20  H   UNL     1      46.641   3.005  16.727  0.00  0.00    +0.000 HD
ENDBRANCH  18  19
ENDBRANCH  11  18
ENDBRANCH   9  11
ENDBRANCH   1   8
BRANCH   4  21
ATOM     21  C   UNL     1      43.604   4.825  10.077  0.00  0.00    +0.000 C 
BRANCH  21  22
ATOM     22  N   UNL     1      44.050   4.254   8.806  0.00  0.00    +0.000 NA
ATOM     23  H   UNL     1      43.519   4.663   8.038  0.00  0.00    +0.000 HD
BRANCH  22  24
ATOM     24  C   UNL     1      45.470   4.507   8.538  0.00  0.00    +0.000 C 
BRANCH  24  25
ATOM     25  C   UNL     1      46.102   3.354   7.781  0.00  0.00    +0.000 A 
ATOM     26  C   UNL     1      46.135   2.079   8.341  0.00  0.00    +0.000 A 
ATOM     27  C   UNL     1      46.717   1.042   7.617  0.00  0.00    +0.000 A 
ATOM     28  C   UNL     1      47.234   1.300   6.354  0.00  0.00    +0.000 A 
ATOM     29  C   UNL     1      47.144   2.591   5.860  0.00  0.00    +0.000 A 
ATOM     30  N   UNL     1      46.591   3.620   6.540  0.00  0.00    +0.000 NA
ENDBRANCH  24  25
ENDBRANCH  22  24
ENDBRANCH  21  22
ENDBRANCH   4  21
TORSDOF 9
ENDMDL
MODEL 2
REMARK VINA RESULT:    -7.654      1.666      1.992
REMARK INTER + INTRA:         -12.429
REMARK INTER:                 -11.400
REMARK INTRA:                  -1.029
REMARK UNBOUND:                -0.972
REMARK  Name = 
REMARK  9 active torsions:
REMARK  status: ('A' for Active; 'I' for Inactive)
REMARK    1  A    between atoms: C_2  and  C_13
REMARK    2  A    between atoms: N_3  and  CA_4
REMARK    3  A    between atoms: CA_4  and  C_5
REMARK    4  A    between atoms: CA_4  and  C_7
REMARK    5  A    between atoms: C_5  and  O_6
REMARK    6  A    between atoms: C_16  and  C_17
REMARK    7  A    between atoms: C_17  and  N_18
REMARK    8  A    between atoms: N_18  and  C_19
REMARK    9  A    between atoms: C_19  and  C_20
REMARK                            x       y       z     vdW  Elec       q    Type
REMARK                         _______ _______ _______ _____ _____    ______ ____
ROOT
ATOM      1  C   UNL     1      46.934   5.770  13.237  0.00  0.00    +0.000 A 
ATOM      2  C   UNL     1      45.996   4.811  13.631  0.00  0.00    +0.000 A 
ATOM      3  C   UNL     1      44.924   4.491  12.795  0.00  0.00    +0.000 A 
ATOM      4  C   UNL     1      44.774   5.128  11.554  0.00  0.00    +0.000 A 
ATOM      5  C   UNL     1      45.740   6.062  11.149  0.00  0.00    +0.000 A 
ATOM      6  C   UNL     1      46.817   6.380  11.982  0.00  0.00    +0.000 A 
ENDROOT
BRANCH   1   8
ATOM      7  O   UNL     1      49.089   6.575  13.767  0.00  0.00    +0.000 OA
ATOM      8  C   UNL     1      48.039   6.097  14.180  0.00  0.00    +0.000 C 
ATOM      9  N   UNL     1      47.819   5.790  15.501  0.00  0.00    +0.000 N 
ATOM     10  H   UNL     1      47.050   5.187  15.750  0.00  0.00    +0.000 HD
BRANCH   9  11
ATOM     11  CA  UNL     1      48.851   5.975  16.515  0.00  0.00    +0.000 C 
BRANCH  11  12
ATOM     12  C   UNL     1      48.470   7.157  17.393  0.00  0.00    +0.000 A 
ATOM     13  C   UNL     1      48.599   8.462  16.897  0.00  0.00    +0.000 A 
ATOM     14  C   UNL     1      48.174   9.556  17.653  0.00  0.00    +0.000 A 
ATOM     15  C   UNL     1      47.610   9.359  18.912  0.00  0.00    +0.000 A 
ATOM     16  C   UNL     1      47.484   8.071  19.423  0.00  0.00    +0.000 A 
ATOM     17  C   UNL     1      47.915   6.978  18.671  0.00  0.00    +0.000 A 
ENDBRANCH  11  12
BRANCH  11  18
ATOM     18  C   UNL     1      49.139   4.667  17.291  0.00  0.00    +0.000 C 
BRANCH  18  19
ATOM     19  O   UNL     1      48.915   3.501  16.490  0.00  0.00    +0.000 OA
ATOM     20  H   UNL     1      48.387   2.887  17.026  0.00  0.00    +0.000 HD
ENDBRANCH  18  19
ENDBRANCH  11  18
ENDBRANCH   9  11
ENDBRANCH   1   8
BRANCH   4  21
ATOM     21  C   UNL     1      43.592   4.815  10.663  0.00  0.00    +0.000 C 
BRANCH  21  22
ATOM     22  N   UNL     1      43.945   4.254   9.358  0.00  0.00    +0.000 NA
ATOM     23  H   UNL     1      44.737   4.763   8.967  0.00  0.00    +0.000 HD
BRANCH  22  24
ATOM     24  C   UNL     1      44.328   2.840   9.434  0.00  0.00    +0.000 C 
BRANCH  24  25
ATOM     25  C   UNL     1      45.474   2.528   8.490  0.00  0.00    +0.000 A 
ATOM     26  C   UNL     1      46.047   3.538   7.723  0.00  0.00    +0.000 A 
ATOM     27  C   UNL     1      47.100   3.219   6.871  0.00  0.00    +0.000 A 
ATOM     28  C   UNL     1      47.562   1.910   6.819  0.00  0.00    +0.000 A 
ATOM     29  C   UNL     1      46.951   0.968   7.629  0.00  0.00    +0.000 A 
ATOM     30  N   UNL     1      45.923   1.244   8.462  0.00  0.00    +0.000 NA
ENDBRANCH  24  25
ENDBRANCH  22  24
ENDBRANCH  21  22
ENDBRANCH   4  21
TORSDOF 9
ENDMDL
MODEL 3
REMARK VINA RESULT:    -7.652      1.520      2.258
REMARK INTER + INTRA:         -12.426
REMARK INTER:                 -11.467
REMARK INTRA:                  -0.959
REMARK UNBOUND:                -0.972
REMARK  Name = 
REMARK  9 active torsions:
REMARK  status: ('A' for Active; 'I' for Inactive)
REMARK    1  A    between atoms: C_2  and  C_13
REMARK    2  A    between atoms: N_3  and  CA_4
REMARK    3  A    between atoms: CA_4  and  C_5
REMARK    4  A    between atoms: CA_4  and  C_7
REMARK    5  A    between atoms: C_5  and  O_6
REMARK    6  A    between atoms: C_16  and  C_17
REMARK    7  A    between atoms: C_17  and  N_18
REMARK    8  A    between atoms: N_18  and  C_19
REMARK    9  A    between atoms: C_19  and  C_20
REMARK                            x       y       z     vdW  Elec       q    Type
REMARK                         _______ _______ _______ _____ _____    ______ ____
ROOT
ATOM      1  C   UNL     1      46.659   5.469  13.412  0.00  0.00    +0.000 A 
ATOM      2  C   UNL     1      46.688   6.217  12.231  0.00  0.00    +0.000 A 
ATOM      3  C   UNL     1      45.692   6.050  11.268  0.00  0.00    +0.000 A 
ATOM      4  C   UNL     1      44.651   5.130  11.471  0.00  0.00    +0.000 A 
ATOM      5  C   UNL     1      44.607   4.410  12.675  0.00  0.00    +0.000 A 
ATOM      6  C   UNL     1      45.601   4.580  13.643  0.00  0.00    +0.000 A 
ENDROOT
BRANCH   1   8
ATOM      7  O   UNL     1      48.785   6.258  14.068  0.00  0.00    +0.000 OA
ATOM      8  C   UNL     1      47.763   5.662  14.391  0.00  0.00    +0.000 C 
ATOM      9  N   UNL     1      47.579   5.102  15.632  0.00  0.00    +0.000 N 
ATOM     10  H   UNL     1      46.840   4.428  15.769  0.00  0.00    +0.000 HD
BRANCH   9  11
ATOM     11  CA  UNL     1      48.617   5.140  16.655  0.00  0.00    +0.000 C 
BRANCH  11  12
ATOM     12  C   UNL     1      48.220   6.146  17.722  0.00  0.00    +0.000 A 
ATOM     13  C   UNL     1      47.616   5.701  18.907  0.00  0.00    +0.000 A 
ATOM     14  C   UNL     1      47.322   6.598  19.937  0.00  0.00    +0.000 A 
ATOM     15  C   UNL     1      47.633   7.949  19.797  0.00  0.00    +0.000 A 
ATOM     16  C   UNL     1      48.224   8.409  18.624  0.00  0.00    +0.000 A 
ATOM     17  C   UNL     1      48.511   7.515  17.592  0.00  0.00    +0.000 A 
ENDBRANCH  11  12
BRANCH  11  18
ATOM     18  C   UNL     1      48.946   3.728  17.196  0.00  0.00    +0.000 C 
BRANCH  18  19
ATOM     19  O   UNL     1      48.732   2.707  16.214  0.00  0.00    +0.000 OA
ATOM     20  H   UNL     1      48.618   3.156  15.360  0.00  0.00    +0.000 HD
ENDBRANCH  18  19
ENDBRANCH  11  18
ENDBRANCH   9  11
ENDBRANCH   1   8
BRANCH   4  21
ATOM     21  C   UNL     1      43.592   4.916  10.412  0.00  0.00    +0.000 C 
BRANCH  21  22
ATOM     22  N   UNL     1      44.087   4.323   9.169  0.00  0.00    +0.000 NA
ATOM     23  H   UNL     1      44.944   4.792   8.880  0.00  0.00    +0.000 HD
BRANCH  22  24
ATOM     24  C   UNL     1      44.395   2.895   9.305  0.00  0.00    +0.000 C 
BRANCH  24  25
ATOM     25  C   UNL     1      45.533   2.487   8.388  0.00  0.00    +0.000 A 
ATOM     26  C   UNL     1      46.153   3.432   7.575  0.00  0.00    +0.000 A 
ATOM     27  C   UNL     1      47.197   3.025   6.749  0.00  0.00    +0.000 A 
ATOM     28  C   UNL     1      47.603   1.696   6.769  0.00  0.00    +0.000 A 
ATOM     29  C   UNL     1      46.948   0.824   7.621  0.00  0.00    +0.000 A 
ATOM     30  N   UNL     1      45.927   1.186   8.429  0.00  0.00    +0.000 NA
ENDBRANCH  24  25
ENDBRANCH  22  24
ENDBRANCH  21  22
ENDBRANCH   4  21
TORSDOF 9
ENDMDL
MODEL 4
REMARK VINA RESULT:    -7.546      1.704      2.098
REMARK INTER + INTRA:         -12.267
REMARK INTER:                 -11.435
REMARK INTRA:                  -0.832
REMARK UNBOUND:                -0.972
REMARK  Name = 
REMARK  9 active torsions:
REMARK  status: ('A' for Active; 'I' for Inactive)
REMARK    1  A    between atoms: C_2  and  C_13
REMARK    2  A    between atoms: N_3  and  CA_4
REMARK    3  A    between atoms: CA_4  and  C_5
REMARK    4  A    between atoms: CA_4  and  C_7
REMARK    5  A    between atoms: C_5  and  O_6
REMARK    6  A    between atoms: C_16  and  C_17
REMARK    7  A    between atoms: C_17  and  N_18
REMARK    8  A    between atoms: N_18  and  C_19
REMARK    9  A    between atoms: C_19  and  C_20
REMARK                            x       y       z     vdW  Elec       q    Type
REMARK                         _______ _______ _______ _____ _____    ______ ____
ROOT
ATOM      1  C   UNL     1      46.831   4.439  14.019  0.00  0.00    +0.000 A 
ATOM      2  C   UNL     1      47.067   5.750  13.594  0.00  0.00    +0.000 A 
ATOM      3  C   UNL     1      46.450   6.237  12.440  0.00  0.00    +0.000 A 
ATOM      4  C   UNL     1      45.589   5.419  11.693  0.00  0.00    +0.000 A 
ATOM      5  C   UNL     1      45.328   4.117  12.145  0.00  0.00    +0.000 A 
ATOM      6  C   UNL     1      45.940   3.628  13.304  0.00  0.00    +0.000 A 
ENDROOT
BRANCH   1   8
ATOM      7  O   UNL     1      47.900   2.791  15.329  0.00  0.00    +0.000 OA
ATOM      8  C   UNL     1      47.539   3.959  15.237  0.00  0.00    +0.000 C 
ATOM      9  N   UNL     1      47.714   4.882  16.239  0.00  0.00    +0.000 N 
ATOM     10  H   UNL     1      47.196   5.747  16.215  0.00  0.00    +0.000 HD
BRANCH   9  11
ATOM     11  CA  UNL     1      48.312   4.522  17.520  0.00  0.00    +0.000 C 
BRANCH  11  12
ATOM     12  C   UNL     1      49.821   4.676  17.418  0.00  0.00    +0.000 A 
ATOM     13  C   UNL     1      50.366   5.860  16.899  0.00  0.00    +0.000 A 
ATOM     14  C   UNL     1      51.749   6.057  16.878  0.00  0.00    +0.000 A 
ATOM     15  C   UNL     1      52.602   5.077  17.380  0.00  0.00    +0.000 A 
ATOM     16  C   UNL     1      52.079   3.893  17.890  0.00  0.00    +0.000 A 
ATOM     17  C   UNL     1      50.698   3.692  17.905  0.00  0.00    +0.000 A 
ENDBRANCH  11  12
BRANCH  11  18
ATOM     18  C   UNL     1      47.667   5.295  18.696  0.00  0.00    +0.000 C 
BRANCH  18  19
ATOM     19  O   UNL     1      46.252   5.447  18.532  0.00  0.00    +0.000 OA
ATOM     20  H   UNL     1      45.832   4.706  18.999  0.00  0.00    +0.000 HD
ENDBRANCH  18  19
ENDBRANCH  11  18
ENDBRANCH   9  11
ENDBRANCH   1   8
BRANCH   4  21
ATOM     21  C   UNL     1      44.951   5.929  10.420  0.00  0.00    +0.000 C 
BRANCH  21  22
ATOM     22  N   UNL     1      45.537   5.395   9.190  0.00  0.00    +0.000 NA
ATOM     23  H   UNL     1      46.502   5.116   9.360  0.00  0.00    +0.000 HD
BRANCH  22  24
ATOM     24  C   UNL     1      44.823   4.215   8.688  0.00  0.00    +0.000 C 
BRANCH  24  25
ATOM     25  C   UNL     1      45.774   3.239   8.020  0.00  0.00    +0.000 A 
ATOM     26  C   UNL     1      45.834   1.915   8.446  0.00  0.00    +0.000 A 
ATOM     27  C   UNL     1      46.713   1.043   7.809  0.00  0.00    +0.000 A 
ATOM     28  C   UNL     1      47.493   1.511   6.758  0.00  0.00    +0.000 A 
ATOM     29  C   UNL     1      47.358   2.836   6.382  0.00  0.00    +0.000 A 
ATOM     30  N   UNL     1      46.520   3.708   6.985  0.00  0.00    +0.000 NA
ENDBRANCH  24  25
ENDBRANCH  22  24
ENDBRANCH  21  22
ENDBRANCH   4  21
TORSDOF 9
ENDMDL
MODEL 5
REMARK VINA RESULT:    -7.262      2.458      8.699
REMARK INTER + INTRA:         -11.843
REMARK INTER:                 -10.665
REMARK INTRA:                  -1.178
REMARK UNBOUND:                -0.972
REMARK  Name = 
REMARK  9 active torsions:
REMARK  status: ('A' for Active; 'I' for Inactive)
REMARK    1  A    between atoms: C_2  and  C_13
REMARK    2  A    between atoms: N_3  and  CA_4
REMARK    3  A    between atoms: CA_4  and  C_5
REMARK    4  A    between atoms: CA_4  and  C_7
REMARK    5  A    between atoms: C_5  and  O_6
REMARK    6  A    between atoms: C_16  and  C_17
REMARK    7  A    between atoms: C_17  and  N_18
REMARK    8  A    between atoms: N_18  and  C_19
REMARK    9  A    between atoms: C_19  and  C_20
REMARK                            x       y       z     vdW  Elec       q    Type
REMARK                         _______ _______ _______ _____ _____    ______ ____
ROOT
ATOM      1  C   UNL     1      45.810   6.281  12.199  0.00  0.00    +0.000 A 
ATOM      2  C   UNL     1      46.795   5.528  12.845  0.00  0.00    +0.000 A 
ATOM      3  C   UNL     1      47.700   6.147  13.709  0.00  0.00    +0.000 A 
ATOM      4  C   UNL     1      47.634   7.530  13.938  0.00  0.00    +0.000 A 
ATOM      5  C   UNL     1      46.620   8.273  13.316  0.00  0.00    +0.000 A 
ATOM      6  C   UNL     1      45.709   7.654  12.454  0.00  0.00    +0.000 A 
ENDROOT
BRANCH   1   8
ATOM      7  O   UNL     1      43.753   5.991  11.077  0.00  0.00    +0.000 OA
ATOM      8  C   UNL     1      44.891   5.576  11.263  0.00  0.00    +0.000 C 
ATOM      9  N   UNL     1      45.382   4.436  10.675  0.00  0.00    +0.000 N 
ATOM     10  H   UNL     1      46.222   4.011  11.039  0.00  0.00    +0.000 HD
BRANCH   9  11
ATOM     11  CA  UNL     1      44.559   3.602   9.808  0.00  0.00    +0.000 C 
BRANCH  11  12
ATOM     12  C   UNL     1      45.421   3.067   8.677  0.00  0.00    +0.000 A 
ATOM     13  C   UNL     1      45.935   3.950   7.716  0.00  0.00    +0.000 A 
ATOM     14  C   UNL     1      46.800   3.492   6.719  0.00  0.00    +0.000 A 
ATOM     15  C   UNL     1      47.166   2.149   6.674  0.00  0.00    +0.000 A 
ATOM     16  C   UNL     1      46.659   1.257   7.614  0.00  0.00    +0.000 A 
ATOM     17  C   UNL     1      45.789   1.712   8.606  0.00  0.00    +0.000 A 
ENDBRANCH  11  12
BRANCH  11  18
ATOM     18  C   UNL     1      43.799   2.514  10.605  0.00  0.00    +0.000 C 
BRANCH  18  19
ATOM     19  O   UNL     1      42.769   3.067  11.432  0.00  0.00    +0.000 OA
ATOM     20  H   UNL     1      43.099   3.919  11.763  0.00  0.00    +0.000 HD
ENDBRANCH  18  19
ENDBRANCH  11  18
ENDBRANCH   9  11
ENDBRANCH   1   8
BRANCH   4  21
ATOM     21  C   UNL     1      48.638   8.212  14.841  0.00  0.00    +0.000 C 
BRANCH  21  22
ATOM     22  N   UNL     1      48.520   7.860  16.257  0.00  0.00    +0.000 NA
ATOM     23  H   UNL     1      47.717   7.248  16.395  0.00  0.00    +0.000 HD
BRANCH  22  24
ATOM     24  C   UNL     1      49.701   7.153  16.766  0.00  0.00    +0.000 C 
BRANCH  24  25
ATOM     25  C   UNL     1      49.395   5.690  17.030  0.00  0.00    +0.000 A 
ATOM     26  C   UNL     1      48.077   5.254  17.127  0.00  0.00    +0.000 A 
ATOM     27  C   UNL     1      47.831   3.905  17.364  0.00  0.00    +0.000 A 
ATOM     28  C   UNL     1      48.902   3.028  17.481  0.00  0.00    +0.000 A 
ATOM     29  C   UNL     1      50.183   3.538  17.352  0.00  0.00    +0.000 A 
ATOM     30  N   UNL     1      50.454   4.843  17.128  0.00  0.00    +0.000 NA
ENDBRANCH  24  25
ENDBRANCH  22  24
ENDBRANCH  21  22
ENDBRANCH   4  21
TORSDOF 9
ENDMDL
MODEL 6
REMARK VINA RESULT:    -7.152      3.033      8.902
REMARK INTER + INTRA:         -11.678
REMARK INTER:                 -10.812
REMARK INTRA:                  -0.865
REMARK UNBOUND:                -0.972
REMARK  Name = 
REMARK  9 active torsions:
REMARK  status: ('A' for Active; 'I' for Inactive)
REMARK    1  A    between atoms: C_2  and  C_13
REMARK    2  A    between atoms: N_3  and  CA_4
REMARK    3  A    between atoms: CA_4  and  C_5
REMARK    4  A    between atoms: CA_4  and  C_7
REMARK    5  A    between atoms: C_5  and  O_6
REMARK    6  A    between atoms: C_16  and  C_17
REMARK    7  A    between atoms: C_17  and  N_18
REMARK    8  A    between atoms: N_18  and  C_19
REMARK    9  A    between atoms: C_19  and  C_20
REMARK                            x       y       z     vdW  Elec       q    Type
REMARK                         _______ _______ _______ _____ _____    ______ ____
ROOT
ATOM      1  C   UNL     1      46.561   5.728  13.191  0.00  0.00    +0.000 A 
ATOM      2  C   UNL     1      47.327   6.897  13.154  0.00  0.00    +0.000 A 
ATOM      3  C   UNL     1      48.232   7.177  14.180  0.00  0.00    +0.000 A 
ATOM      4  C   UNL     1      48.382   6.292  15.259  0.00  0.00    +0.000 A 
ATOM      5  C   UNL     1      47.637   5.103  15.270  0.00  0.00    +0.000 A 
ATOM      6  C   UNL     1      46.734   4.818  14.241  0.00  0.00    +0.000 A 
ENDROOT
BRANCH   1   8
ATOM      7  O   UNL     1      45.037   6.438  11.533  0.00  0.00    +0.000 OA
ATOM      8  C   UNL     1      45.588   5.494  12.088  0.00  0.00    +0.000 C 
ATOM      9  N   UNL     1      45.327   4.182  11.779  0.00  0.00    +0.000 N 
ATOM     10  H   UNL     1      45.616   3.454  12.414  0.00  0.00    +0.000 HD
BRANCH   9  11
ATOM     11  CA  UNL     1      44.329   3.811  10.782  0.00  0.00    +0.000 C 
BRANCH  11  12
ATOM     12  C   UNL     1      45.042   3.368   9.515  0.00  0.00    +0.000 A 
ATOM     13  C   UNL     1      45.529   4.331   8.618  0.00  0.00    +0.000 A 
ATOM     14  C   UNL     1      46.262   3.948   7.493  0.00  0.00    +0.000 A 
ATOM     15  C   UNL     1      46.523   2.600   7.252  0.00  0.00    +0.000 A 
ATOM     16  C   UNL     1      46.039   1.632   8.126  0.00  0.00    +0.000 A 
ATOM     17  C   UNL     1      45.300   2.013   9.247  0.00  0.00    +0.000 A 
ENDBRANCH  11  12
BRANCH  11  18
ATOM     18  C   UNL     1      43.312   2.784  11.337  0.00  0.00    +0.000 C 
BRANCH  18  19
ATOM     19  O   UNL     1      43.710   2.260  12.609  0.00  0.00    +0.000 OA
ATOM     20  H   UNL     1      43.480   2.929  13.275  0.00  0.00    +0.000 HD
ENDBRANCH  18  19
ENDBRANCH  11  18
ENDBRANCH   9  11
ENDBRANCH   1   8
BRANCH   4  21
ATOM     21  C   UNL     1      49.330   6.612  16.394  0.00  0.00    +0.000 C 
BRANCH  21  22
ATOM     22  N   UNL     1      50.442   5.672  16.540  0.00  0.00    +0.000 NA
ATOM     23  H   UNL     1      51.327   6.158  16.397  0.00  0.00    +0.000 HD
BRANCH  22  24
ATOM     24  C   UNL     1      50.492   5.055  17.870  0.00  0.00    +0.000 C 
BRANCH  24  25
ATOM     25  C   UNL     1      51.142   3.685  17.819  0.00  0.00    +0.000 A 
ATOM     26  C   UNL     1      50.419   2.581  17.373  0.00  0.00    +0.000 A 
ATOM     27  C   UNL     1      51.047   1.340  17.333  0.00  0.00    +0.000 A 
ATOM     28  C   UNL     1      52.377   1.236  17.722  0.00  0.00    +0.000 A 
ATOM     29  C   UNL     1      53.030   2.385  18.133  0.00  0.00    +0.000 A 
ATOM     30  N   UNL     1      52.448   3.603  18.190  0.00  0.00    +0.000 NA
ENDBRANCH  24  25
ENDBRANCH  22  24
ENDBRANCH  21  22
ENDBRANCH   4  21
TORSDOF 9
ENDMDL
MODEL 7
REMARK VINA RESULT:    -7.063      3.185      4.192
REMARK INTER + INTRA:         -11.544
REMARK INTER:                 -10.398
REMARK INTRA:                  -1.147
REMARK UNBOUND:                -0.972
REMARK  Name = 
REMARK  9 active torsions:
REMARK  status: ('A' for Active; 'I' for Inactive)
REMARK    1  A    between atoms: C_2  and  C_13
REMARK    2  A    between atoms: N_3  and  CA_4
REMARK    3  A    between atoms: CA_4  and  C_5
REMARK    4  A    between atoms: CA_4  and  C_7
REMARK    5  A    between atoms: C_5  and  O_6
REMARK    6  A    between atoms: C_16  and  C_17
REMARK    7  A    between atoms: C_17  and  N_18
REMARK    8  A    between atoms: N_18  and  C_19
REMARK    9  A    between atoms: C_19  and  C_20
REMARK                            x       y       z     vdW  Elec       q    Type
REMARK                         _______ _______ _______ _____ _____    ______ ____
ROOT
ATOM      1  C   UNL     1      46.930   6.029  12.758  0.00  0.00    +0.000 A 
ATOM      2  C   UNL     1      46.294   4.964  13.404  0.00  0.00    +0.000 A 
ATOM      3  C   UNL     1      45.171   4.364  12.831  0.00  0.00    +0.000 A 
ATOM      4  C   UNL     1      44.666   4.822  11.605  0.00  0.00    +0.000 A 
ATOM      5  C   UNL     1      45.331   5.866  10.944  0.00  0.00    +0.000 A 
ATOM      6  C   UNL     1      46.460   6.465  11.513  0.00  0.00    +0.000 A 
ENDROOT
BRANCH   1   8
ATOM      7  O   UNL     1      48.607   6.132  14.417  0.00  0.00    +0.000 OA
ATOM      8  C   UNL     1      48.104   6.653  13.428  0.00  0.00    +0.000 C 
ATOM      9  N   UNL     1      48.541   7.844  12.900  0.00  0.00    +0.000 N 
ATOM     10  H   UNL     1      47.955   8.344  12.248  0.00  0.00    +0.000 HD
BRANCH   9  11
ATOM     11  CA  UNL     1      49.623   8.605  13.512  0.00  0.00    +0.000 C 
BRANCH  11  12
ATOM     12  C   UNL     1      50.869   8.466  12.653  0.00  0.00    +0.000 A 
ATOM     13  C   UNL     1      52.134   8.670  13.224  0.00  0.00    +0.000 A 
ATOM     14  C   UNL     1      53.295   8.461  12.476  0.00  0.00    +0.000 A 
ATOM     15  C   UNL     1      53.206   8.042  11.150  0.00  0.00    +0.000 A 
ATOM     16  C   UNL     1      51.959   7.844  10.565  0.00  0.00    +0.000 A 
ATOM     17  C   UNL     1      50.799   8.059  11.310  0.00  0.00    +0.000 A 
ENDBRANCH  11  12
BRANCH  11  18
ATOM     18  C   UNL     1      49.207  10.067  13.804  0.00  0.00    +0.000 C 
BRANCH  18  19
ATOM     19  O   UNL     1      47.838  10.320  13.464  0.00  0.00    +0.000 OA
ATOM     20  H   UNL     1      47.319   9.577  13.814  0.00  0.00    +0.000 HD
ENDBRANCH  18  19
ENDBRANCH  11  18
ENDBRANCH   9  11
ENDBRANCH   1   8
BRANCH   4  21
ATOM     21  C   UNL     1      43.425   4.203  11.001  0.00  0.00    +0.000 C 
BRANCH  21  22
ATOM     22  N   UNL     1      43.632   3.575   9.696  0.00  0.00    +0.000 NA
ATOM     23  H   UNL     1      44.070   4.239   9.059  0.00  0.00    +0.000 HD
BRANCH  22  24
ATOM     24  C   UNL     1      44.504   2.396   9.765  0.00  0.00    +0.000 C 
BRANCH  24  25
ATOM     25  C   UNL     1      45.511   2.388   8.630  0.00  0.00    +0.000 A 
ATOM     26  C   UNL     1      45.783   3.557   7.924  0.00  0.00    +0.000 A 
ATOM     27  C   UNL     1      46.717   3.516   6.892  0.00  0.00    +0.000 A 
ATOM     28  C   UNL     1      47.362   2.320   6.605  0.00  0.00    +0.000 A 
ATOM     29  C   UNL     1      47.050   1.208   7.368  0.00  0.00    +0.000 A 
ATOM     30  N   UNL     1      46.144   1.213   8.371  0.00  0.00    +0.000 NA
ENDBRANCH  24  25
ENDBRANCH  22  24
ENDBRANCH  21  22
ENDBRANCH   4  21
TORSDOF 9
ENDMDL
MODEL 8
REMARK VINA RESULT:    -7.016      2.759      9.666
REMARK INTER + INTRA:         -11.474
REMARK INTER:                 -10.663
REMARK INTRA:                  -0.811
REMARK UNBOUND:                -0.972
REMARK  Name = 
REMARK  9 active torsions:
REMARK  status: ('A' for Active; 'I' for Inactive)
REMARK    1  A    between atoms: C_2  and  C_13
REMARK    2  A    between atoms: N_3  and  CA_4
REMARK    3  A    between atoms: CA_4  and  C_5
REMARK    4  A    between atoms: CA_4  and  C_7
REMARK    5  A    between atoms: C_5  and  O_6
REMARK    6  A    between atoms: C_16  and  C_17
REMARK    7  A    between atoms: C_17  and  N_18
REMARK    8  A    between atoms: N_18  and  C_19
REMARK    9  A    between atoms: C_19  and  C_20
REMARK                            x       y       z     vdW  Elec       q    Type
REMARK                         _______ _______ _______ _____ _____    ______ ____
ROOT
ATOM      1  C   UNL     1      45.695   6.466  12.011  0.00  0.00    +0.000 A 
ATOM      2  C   UNL     1      45.327   7.785  12.296  0.00  0.00    +0.000 A 
ATOM      3  C   UNL     1      46.138   8.582  13.107  0.00  0.00    +0.000 A 
ATOM      4  C   UNL     1      47.328   8.069  13.647  0.00  0.00    +0.000 A 
ATOM      5  C   UNL     1      47.709   6.757  13.327  0.00  0.00    +0.000 A 
ATOM      6  C   UNL     1      46.901   5.959  12.511  0.00  0.00    +0.000 A 
ENDROOT
BRANCH   1   8
ATOM      7  O   UNL     1      43.594   5.952  11.064  0.00  0.00    +0.000 OA
ATOM      8  C   UNL     1      44.778   5.651  11.169  0.00  0.00    +0.000 C 
ATOM      9  N   UNL     1      45.328   4.543  10.571  0.00  0.00    +0.000 N 
ATOM     10  H   UNL     1      46.230   4.209  10.877  0.00  0.00    +0.000 HD
BRANCH   9  11
ATOM     11  CA  UNL     1      44.523   3.610   9.792  0.00  0.00    +0.000 C 
BRANCH  11  12
ATOM     12  C   UNL     1      45.374   3.050   8.664  0.00  0.00    +0.000 A 
ATOM     13  C   UNL     1      45.839   3.904   7.653  0.00  0.00    +0.000 A 
ATOM     14  C   UNL     1      46.692   3.428   6.656  0.00  0.00    +0.000 A 
ATOM     15  C   UNL     1      47.096   2.094   6.659  0.00  0.00    +0.000 A 
ATOM     16  C   UNL     1      46.637   1.231   7.648  0.00  0.00    +0.000 A 
ATOM     17  C   UNL     1      45.778   1.704   8.641  0.00  0.00    +0.000 A 
ENDBRANCH  11  12
BRANCH  11  18
ATOM     18  C   UNL     1      43.858   2.535  10.686  0.00  0.00    +0.000 C 
BRANCH  18  19
ATOM     19  O   UNL     1      42.761   3.063  11.441  0.00  0.00    +0.000 OA
ATOM     20  H   UNL     1      41.958   2.917  10.914  0.00  0.00    +0.000 HD
ENDBRANCH  18  19
ENDBRANCH  11  18
ENDBRANCH   9  11
ENDBRANCH   1   8
BRANCH   4  21
ATOM     21  C   UNL     1      48.189   8.915  14.560  0.00  0.00    +0.000 C 
BRANCH  21  22
ATOM     22  N   UNL     1      47.555   9.280  15.827  0.00  0.00    +0.000 NA
ATOM     23  H   UNL     1      46.977   8.508  16.159  0.00  0.00    +0.000 HD
BRANCH  22  24
ATOM     24  C   UNL     1      48.529   9.582  16.882  0.00  0.00    +0.000 C 
BRANCH  24  25
ATOM     25  C   UNL     1      48.190   8.854  18.170  0.00  0.00    +0.000 A 
ATOM     26  C   UNL     1      47.630   9.545  19.241  0.00  0.00    +0.000 A 
ATOM     27  C   UNL     1      47.326   8.846  20.405  0.00  0.00    +0.000 A 
ATOM     28  C   UNL     1      47.572   7.480  20.464  0.00  0.00    +0.000 A 
ATOM     29  C   UNL     1      48.112   6.864  19.349  0.00  0.00    +0.000 A 
ATOM     30  N   UNL     1      48.425   7.515  18.206  0.00  0.00    +0.000 NA
ENDBRANCH  24  25
ENDBRANCH  22  24
ENDBRANCH  21  22
ENDBRANCH   4  21
TORSDOF 9
ENDMDL
MODEL 9
REMARK VINA RESULT:    -6.662      2.797      9.781
REMARK INTER + INTRA:         -10.944
REMARK INTER:                  -9.906
REMARK INTRA:                  -1.038
REMARK UNBOUND:                -0.972
REMARK  Name = 
REMARK  9 active torsions:
REMARK  status: ('A' for Active; 'I' for Inactive)
REMARK    1  A    between atoms: C_2  and  C_13
REMARK    2  A    between atoms: N_3  and  CA_4
REMARK    3  A    between atoms: CA_4  and  C_5
REMARK    4  A    between atoms: CA_4  and  C_7
REMARK    5  A    between atoms: C_5  and  O_6
REMARK    6  A    between atoms: C_16  and  C_17
REMARK    7  A    between atoms: C_17  and  N_18
REMARK    8  A    between atoms: N_18  and  C_19
REMARK    9  A    between atoms: C_19  and  C_20
REMARK                            x       y       z     vdW  Elec       q    Type
REMARK                         _______ _______ _______ _____ _____    ______ ____
ROOT
ATOM      1  C   UNL     1      47.096   5.471  13.810  0.00  0.00    +0.000 A 
ATOM      2  C   UNL     1      46.796   4.229  14.378  0.00  0.00    +0.000 A 
ATOM      3  C   UNL     1      47.334   3.874  15.617  0.00  0.00    +0.000 A 
ATOM      4  C   UNL     1      48.182   4.756  16.304  0.00  0.00    +0.000 A 
ATOM      5  C   UNL     1      48.449   6.015  15.745  0.00  0.00    +0.000 A 
ATOM      6  C   UNL     1      47.907   6.375  14.507  0.00  0.00    +0.000 A 
ENDROOT
BRANCH   1   8
ATOM      7  O   UNL     1      47.077   6.587  11.729  0.00  0.00    +0.000 OA
ATOM      8  C   UNL     1      46.522   5.786  12.473  0.00  0.00    +0.000 C 
ATOM      9  N   UNL     1      45.336   5.166  12.161  0.00  0.00    +0.000 N 
ATOM     10  H   UNL     1      44.806   4.711  12.889  0.00  0.00    +0.000 HD
BRANCH   9  11
ATOM     11  CA  UNL     1      44.621   5.452  10.923  0.00  0.00    +0.000 C 
BRANCH  11  12
ATOM     12  C   UNL     1      44.997   4.408   9.885  0.00  0.00    +0.000 A 
ATOM     13  C   UNL     1      45.705   4.791   8.736  0.00  0.00    +0.000 A 
ATOM     14  C   UNL     1      46.136   3.835   7.814  0.00  0.00    +0.000 A 
ATOM     15  C   UNL     1      45.868   2.485   8.029  0.00  0.00    +0.000 A 
ATOM     16  C   UNL     1      45.158   2.088   9.158  0.00  0.00    +0.000 A 
ATOM     17  C   UNL     1      44.722   3.043  10.077  0.00  0.00    +0.000 A 
ENDBRANCH  11  12
BRANCH  11  18
ATOM     18  C   UNL     1      43.098   5.604  11.157  0.00  0.00    +0.000 C 
BRANCH  18  19
ATOM     19  O   UNL     1      42.680   6.974  11.135  0.00  0.00    +0.000 OA
ATOM     20  H   UNL     1      43.452   7.509  11.384  0.00  0.00    +0.000 HD
ENDBRANCH  18  19
ENDBRANCH  11  18
ENDBRANCH   9  11
ENDBRANCH   1   8
BRANCH   4  21
ATOM     21  C   UNL     1      48.801   4.359  17.626  0.00  0.00    +0.000 C 
BRANCH  21  22
ATOM     22  N   UNL     1      49.230   5.483  18.459  0.00  0.00    +0.000 NA
ATOM     23  H   UNL     1      49.063   6.361  17.967  0.00  0.00    +0.000 HD
BRANCH  22  24
ATOM     24  C   UNL     1      48.507   5.553  19.733  0.00  0.00    +0.000 C 
BRANCH  24  25
ATOM     25  C   UNL     1      47.975   6.951  19.990  0.00  0.00    +0.000 A 
ATOM     26  C   UNL     1      47.717   7.811  18.926  0.00  0.00    +0.000 A 
ATOM     27  C   UNL     1      47.225   9.085  19.196  0.00  0.00    +0.000 A 
ATOM     28  C   UNL     1      46.990   9.459  20.513  0.00  0.00    +0.000 A 
ATOM     29  C   UNL     1      47.254   8.538  21.512  0.00  0.00    +0.000 A 
ATOM     30  N   UNL     1      47.738   7.297  21.284  0.00  0.00    +0.000 NA
ENDBRANCH  24  25
ENDBRANCH  22  24
ENDBRANCH  21  22
ENDBRANCH   4  21
TORSDOF 9
ENDMDL
