MODEL 1
REMARK VINA RESULT:    -8.495      0.000      0.000
REMARK INTER + INTRA:         -12.300
REMARK INTER:                 -11.475
REMARK INTRA:                  -0.825
REMARK UNBOUND:                -0.825
REMARK  Name = 
REMARK  7 active torsions:
REMARK  status: ('A' for Active; 'I' for Inactive)
REMARK    1  A    between atoms: C_1  and  C_2
REMARK    2  A    between atoms: C_6  and  C_7
REMARK    3  A    between atoms: N_9  and  C_10
REMARK    4  A    between atoms: C_10  and  C_11
REMARK    5  A    between atoms: C_14  and  C_15
REMARK    6  A    between atoms: C_15  and  N_16
REMARK    7  A    between atoms: C_17  and  C_19
REMARK                            x       y       z     vdW  Elec       q    Type
REMARK                         _______ _______ _______ _____ _____    ______ ____
ROOT
ATOM      1  C   UNL     1      44.564   5.325  11.330  0.00  0.00    +0.000 A 
ATOM      2  C   UNL     1      45.695   4.823  11.992  0.00  0.00    +0.000 A 
ATOM      3  C   UNL     1      46.565   5.676  12.696  0.00  0.00    +0.000 A 
ATOM      4  C   UNL     1      46.328   7.056  12.766  0.00  0.00    +0.000 A 
ATOM      5  C   UNL     1      45.191   7.556  12.115  0.00  0.00    +0.000 A 
ATOM      6  C   UNL     1      44.320   6.704  11.414  0.00  0.00    +0.000 A 
ENDROOT
BRANCH   1   7
ATOM      7  C   UNL     1      43.631   4.418  10.548  0.00  0.00    +0.000 C 
BRANCH   7  10
ATOM      8  C   UNL     1      45.202   3.847   8.702  0.00  0.00    +0.000 C 
ATOM      9  O   UNL     1      45.389   5.021   8.407  0.00  0.00    +0.000 OA
ATOM     10  N   UNL     1      44.353   3.459   9.736  0.00  0.00    +0.000 N 
ATOM     11  H   UNL     1      44.395   2.508  10.062  0.00  0.00    +0.000 HD
BRANCH   8  17
ATOM     12  C   UNL     1      47.713   2.315   4.642  0.00  0.00    +0.000 C 
ATOM     13  C   UNL     1      47.118   1.998   5.983  0.00  0.00    +0.000 A 
ATOM     14  C   UNL     1      47.205   0.707   6.515  0.00  0.00    +0.000 A 
ATOM     15  C   UNL     1      46.649   0.426   7.763  0.00  0.00    +0.000 A 
ATOM     16  C   UNL     1      46.003   1.432   8.493  0.00  0.00    +0.000 A 
ATOM     17  C   UNL     1      45.906   2.734   7.976  0.00  0.00    +0.000 A 
ATOM     18  C   UNL     1      46.464   3.005   6.718  0.00  0.00    +0.000 A 
ENDBRANCH   8  17
ENDBRANCH   7  10
ENDBRANCH   1   7
BRANCH   4  19
ATOM     19  C   UNL     1      47.264   7.989  13.511  0.00  0.00    +0.000 C 
BRANCH  19  20
ATOM     20  N   UNL     1      47.726   7.428  14.757  0.00  0.00    +0.000 N 
ATOM     21  C   UNL     1      49.018   6.994  14.943  0.00  0.00    +0.000 C 
ATOM     22  O   UNL     1      49.874   7.059  14.069  0.00  0.00    +0.000 OA
ATOM     23  H   UNL     1      47.012   7.028  15.354  0.00  0.00    +0.000 HD
BRANCH  21  24
ATOM     24  C   UNL     1      49.323   6.499  16.296  0.00  0.00    +0.000 A 
ATOM     25  C   UNL     1      50.203   7.196  17.116  0.00  0.00    +0.000 A 
ATOM     26  S   UNL     1      50.413   6.482  18.652  0.00  0.00    +0.000 S 
ATOM     27  C   UNL     1      49.371   5.194  18.260  0.00  0.00    +0.000 A 
ATOM     28  N   UNL     1      49.134   4.187  19.144  0.00  0.00    +0.000 NA
ATOM     29  C   UNL     1      48.342   3.267  18.707  0.00  0.00    +0.000 A 
ATOM     30  N   UNL     1      47.755   3.266  17.468  0.00  0.00    +0.000 N 
ATOM     31  C   UNL     1      47.923   4.288  16.566  0.00  0.00    +0.000 A 
ATOM     32  O   UNL     1      47.310   4.303  15.504  0.00  0.00    +0.000 OA
ATOM     33  C   UNL     1      48.844   5.327  16.992  0.00  0.00    +0.000 A 
ATOM     34  H   UNL     1      47.118   2.532  17.193  0.00  0.00    +0.000 HD
ENDBRANCH  21  24
ENDBRANCH  19  20
ENDBRANCH   4  19
TORSDOF 6
ENDMDL
MODEL 2
REMARK VINA RESULT:    -8.281      1.005      1.757
REMARK INTER + INTRA:         -12.010
REMARK INTER:                 -10.899
REMARK INTRA:                  -1.111
REMARK UNBOUND:                -0.825
REMARK  Name = 
REMARK  7 active torsions:
REMARK  status: ('A' for Active; 'I' for Inactive)
REMARK    1  A    between atoms: C_1  and  C_2
REMARK    2  A    between atoms: C_6  and  C_7
REMARK    3  A    between atoms: N_9  and  C_10
REMARK    4  A    between atoms: C_10  and  C_11
REMARK    5  A    between atoms: C_14  and  C_15
REMARK    6  A    between atoms: C_15  and  N_16
REMARK    7  A    between atoms: C_17  and  C_19
REMARK                            x       y       z     vdW  Elec       q    Type
REMARK                         _______ _______ _______ _____ _____    ______ ____
ROOT
ATOM      1  C   UNL     1      45.163   6.589  11.396  0.00  0.00    +0.000 A 
ATOM      2  C   UNL     1      44.740   7.793  11.981  0.00  0.00    +0.000 A 
ATOM      3  C   UNL     1      45.579   8.515  12.848  0.00  0.00    +0.000 A 
ATOM      4  C   UNL     1      46.870   8.060  13.155  0.00  0.00    +0.000 A 
ATOM      5  C   UNL     1      47.296   6.863  12.562  0.00  0.00    +0.000 A 
ATOM      6  C   UNL     1      46.459   6.143  11.692  0.00  0.00    +0.000 A 
ENDROOT
BRANCH   1   7
ATOM      7  C   UNL     1      44.258   5.788  10.477  0.00  0.00    +0.000 C 
BRANCH   7  10
ATOM      8  C   UNL     1      44.773   3.622   9.362  0.00  0.00    +0.000 C 
ATOM      9  O   UNL     1      43.925   3.014  10.001  0.00  0.00    +0.000 OA
ATOM     10  N   UNL     1      45.008   4.986   9.532  0.00  0.00    +0.000 N 
ATOM     11  H   UNL     1      45.565   5.467   8.847  0.00  0.00    +0.000 HD
BRANCH   8  17
ATOM     12  C   UNL     1      46.869  -0.606   7.670  0.00  0.00    +0.000 C 
ATOM     13  C   UNL     1      46.638   0.868   7.512  0.00  0.00    +0.000 A 
ATOM     14  C   UNL     1      47.202   1.569   6.441  0.00  0.00    +0.000 A 
ATOM     15  C   UNL     1      46.979   2.938   6.305  0.00  0.00    +0.000 A 
ATOM     16  C   UNL     1      46.187   3.622   7.235  0.00  0.00    +0.000 A 
ATOM     17  C   UNL     1      45.610   2.937   8.318  0.00  0.00    +0.000 A 
ATOM     18  C   UNL     1      45.846   1.560   8.448  0.00  0.00    +0.000 A 
ENDBRANCH   8  17
ENDBRANCH   7  10
ENDBRANCH   1   7
BRANCH   4  19
ATOM     19  C   UNL     1      47.780   8.822  14.099  0.00  0.00    +0.000 C 
BRANCH  19  20
ATOM     20  N   UNL     1      48.128   8.054  15.269  0.00  0.00    +0.000 N 
ATOM     21  C   UNL     1      49.373   7.497  15.450  0.00  0.00    +0.000 C 
ATOM     22  O   UNL     1      50.280   7.620  14.636  0.00  0.00    +0.000 OA
ATOM     23  H   UNL     1      47.354   7.631  15.767  0.00  0.00    +0.000 HD
BRANCH  21  24
ATOM     24  C   UNL     1      49.563   6.792  16.729  0.00  0.00    +0.000 A 
ATOM     25  C   UNL     1      50.372   7.338  17.717  0.00  0.00    +0.000 A 
ATOM     26  S   UNL     1      50.453   6.389  19.134  0.00  0.00    +0.000 S 
ATOM     27  C   UNL     1      49.445   5.194  18.459  0.00  0.00    +0.000 A 
ATOM     28  N   UNL     1      49.133   4.064  19.151  0.00  0.00    +0.000 NA
ATOM     29  C   UNL     1      48.379   3.236  18.510  0.00  0.00    +0.000 A 
ATOM     30  N   UNL     1      47.897   3.439  17.243  0.00  0.00    +0.000 N 
ATOM     31  C   UNL     1      48.142   4.587  16.530  0.00  0.00    +0.000 A 
ATOM     32  O   UNL     1      47.620   4.778  15.437  0.00  0.00    +0.000 OA
ATOM     33  C   UNL     1      49.026   5.532  17.189  0.00  0.00    +0.000 A 
ATOM     34  H   UNL     1      47.285   2.766  16.804  0.00  0.00    +0.000 HD
ENDBRANCH  21  24
ENDBRANCH  19  20
ENDBRANCH   4  19
TORSDOF 6
ENDMDL
MODEL 3
REMARK VINA RESULT:    -7.986      1.329      2.013
REMARK INTER + INTRA:         -11.613
REMARK INTER:                 -10.938
REMARK INTRA:                  -0.675
REMARK UNBOUND:                -0.825
REMARK  Name = 
REMARK  7 active torsions:
REMARK  status: ('A' for Active; 'I' for Inactive)
REMARK    1  A    between atoms: C_1  and  C_2
REMARK    2  A    between atoms: C_6  and  C_7
REMARK    3  A    between atoms: N_9  and  C_10
REMARK    4  A    between atoms: C_10  and  C_11
REMARK    5  A    between atoms: C_14  and  C_15
REMARK    6  A    between atoms: C_15  and  N_16
REMARK    7  A    between atoms: C_17  and  C_19
REMARK                            x       y       z     vdW  Elec       q    Type
REMARK                         _______ _______ _______ _____ _____    ______ ____
ROOT
ATOM      1  C   UNL     1      45.485   4.835  11.794  0.00  0.00    +0.000 A 
ATOM      2  C   UNL     1      45.981   5.991  11.169  0.00  0.00    +0.000 A 
ATOM      3  C   UNL     1      46.869   6.854  11.836  0.00  0.00    +0.000 A 
ATOM      4  C   UNL     1      47.294   6.589  13.145  0.00  0.00    +0.000 A 
ATOM      5  C   UNL     1      46.807   5.429  13.765  0.00  0.00    +0.000 A 
ATOM      6  C   UNL     1      45.923   4.563  13.098  0.00  0.00    +0.000 A 
ENDROOT
BRANCH   1   7
ATOM      7  C   UNL     1      44.509   3.908  11.093  0.00  0.00    +0.000 C 
BRANCH   7  10
ATOM      8  C   UNL     1      45.284   3.629   8.744  0.00  0.00    +0.000 C 
ATOM      9  O   UNL     1      44.881   4.736   8.408  0.00  0.00    +0.000 OA
ATOM     10  N   UNL     1      45.141   3.140  10.041  0.00  0.00    +0.000 N 
ATOM     11  H   UNL     1      45.665   2.323  10.307  0.00  0.00    +0.000 HD
BRANCH   8  17
ATOM     12  C   UNL     1      46.954  -0.964   7.629  0.00  0.00    +0.000 C 
ATOM     13  C   UNL     1      46.815   0.482   7.251  0.00  0.00    +0.000 A 
ATOM     14  C   UNL     1      47.349   0.960   6.049  0.00  0.00    +0.000 A 
ATOM     15  C   UNL     1      47.212   2.305   5.709  0.00  0.00    +0.000 A 
ATOM     16  C   UNL     1      46.539   3.186   6.564  0.00  0.00    +0.000 A 
ATOM     17  C   UNL     1      45.994   2.726   7.774  0.00  0.00    +0.000 A 
ATOM     18  C   UNL     1      46.142   1.371   8.109  0.00  0.00    +0.000 A 
ENDBRANCH   8  17
ENDBRANCH   7  10
ENDBRANCH   1   7
BRANCH   4  19
ATOM     19  C   UNL     1      48.240   7.519  13.880  0.00  0.00    +0.000 C 
BRANCH  19  20
ATOM     20  N   UNL     1      48.119   7.409  15.313  0.00  0.00    +0.000 N 
ATOM     21  C   UNL     1      49.107   6.872  16.104  0.00  0.00    +0.000 C 
ATOM     22  O   UNL     1      50.167   6.454  15.652  0.00  0.00    +0.000 OA
ATOM     23  H   UNL     1      47.173   7.394  15.677  0.00  0.00    +0.000 HD
BRANCH  21  24
ATOM     24  C   UNL     1      48.830   6.890  17.550  0.00  0.00    +0.000 A 
ATOM     25  C   UNL     1      48.642   8.097  18.213  0.00  0.00    +0.000 A 
ATOM     26  S   UNL     1      48.312   7.917  19.877  0.00  0.00    +0.000 S 
ATOM     27  C   UNL     1      48.451   6.223  19.780  0.00  0.00    +0.000 A 
ATOM     28  N   UNL     1      48.313   5.440  20.886  0.00  0.00    +0.000 NA
ATOM     29  C   UNL     1      48.465   4.177  20.669  0.00  0.00    +0.000 A 
ATOM     30  N   UNL     1      48.733   3.622  19.445  0.00  0.00    +0.000 N 
ATOM     31  C   UNL     1      48.828   4.367  18.296  0.00  0.00    +0.000 A 
ATOM     32  O   UNL     1      48.976   3.831  17.203  0.00  0.00    +0.000 OA
ATOM     33  C   UNL     1      48.711   5.801  18.492  0.00  0.00    +0.000 A 
ATOM     34  H   UNL     1      48.812   2.621  19.333  0.00  0.00    +0.000 HD
ENDBRANCH  21  24
ENDBRANCH  19  20
ENDBRANCH   4  19
TORSDOF 6
ENDMDL
MODEL 4
REMARK VINA RESULT:    -7.836      2.153      2.997
REMARK INTER + INTRA:         -11.409
REMARK INTER:                 -10.528
REMARK INTRA:                  -0.881
REMARK UNBOUND:                -0.825
REMARK  Name = 
REMARK  7 active torsions:
REMARK  status: ('A' for Active; 'I' for Inactive)
REMARK    1  A    between atoms: C_1  and  C_2
REMARK    2  A    between atoms: C_6  and  C_7
REMARK    3  A    between atoms: N_9  and  C_10
REMARK    4  A    between atoms: C_10  and  C_11
REMARK    5  A    between atoms: C_14  and  C_15
REMARK    6  A    between atoms: C_15  and  N_16
REMARK    7  A    between atoms: C_17  and  C_19
REMARK                            x       y       z     vdW  Elec       q    Type
REMARK                         _______ _______ _______ _____ _____    ______ ____
ROOT
ATOM      1  C   UNL     1      45.573   6.583  11.846  0.00  0.00    +0.000 A 
ATOM      2  C   UNL     1      45.427   7.888  12.340  0.00  0.00    +0.000 A 
ATOM      3  C   UNL     1      46.336   8.419  13.273  0.00  0.00    +0.000 A 
ATOM      4  C   UNL     1      47.422   7.664  13.738  0.00  0.00    +0.000 A 
ATOM      5  C   UNL     1      47.574   6.364  13.236  0.00  0.00    +0.000 A 
ATOM      6  C   UNL     1      46.668   5.834  12.300  0.00  0.00    +0.000 A 
ENDROOT
BRANCH   1   7
ATOM      7  C   UNL     1      44.585   5.991  10.857  0.00  0.00    +0.000 C 
BRANCH   7  10
ATOM      8  C   UNL     1      44.908   3.876   9.582  0.00  0.00    +0.000 C 
ATOM      9  O   UNL     1      44.046   3.282  10.217  0.00  0.00    +0.000 OA
ATOM     10  N   UNL     1      45.241   5.207   9.830  0.00  0.00    +0.000 N 
ATOM     11  H   UNL     1      45.802   5.696   9.153  0.00  0.00    +0.000 HD
BRANCH   8  17
ATOM     12  C   UNL     1      46.812  -0.328   7.623  0.00  0.00    +0.000 C 
ATOM     13  C   UNL     1      46.590   1.153   7.523  0.00  0.00    +0.000 A 
ATOM     14  C   UNL     1      47.083   1.876   6.431  0.00  0.00    +0.000 A 
ATOM     15  C   UNL     1      46.869   3.252   6.350  0.00  0.00    +0.000 A 
ATOM     16  C   UNL     1      46.159   3.919   7.355  0.00  0.00    +0.000 A 
ATOM     17  C   UNL     1      45.655   3.211   8.459  0.00  0.00    +0.000 A 
ATOM     18  C   UNL     1      45.881   1.828   8.534  0.00  0.00    +0.000 A 
ENDBRANCH   8  17
ENDBRANCH   7  10
ENDBRANCH   1   7
BRANCH   4  19
ATOM     19  C   UNL     1      48.402   8.219  14.754  0.00  0.00    +0.000 C 
BRANCH  19  20
ATOM     20  N   UNL     1      48.255   7.610  16.053  0.00  0.00    +0.000 N 
ATOM     21  C   UNL     1      49.140   6.677  16.541  0.00  0.00    +0.000 C 
ATOM     22  O   UNL     1      50.123   6.302  15.915  0.00  0.00    +0.000 OA
ATOM     23  H   UNL     1      47.316   7.604  16.435  0.00  0.00    +0.000 HD
BRANCH  21  24
ATOM     24  C   UNL     1      48.859   6.204  17.907  0.00  0.00    +0.000 A 
ATOM     25  C   UNL     1      49.034   4.865  18.235  0.00  0.00    +0.000 A 
ATOM     26  S   UNL     1      48.679   4.511  19.867  0.00  0.00    +0.000 S 
ATOM     27  C   UNL     1      48.236   6.125  20.181  0.00  0.00    +0.000 A 
ATOM     28  N   UNL     1      47.789   6.506  21.409  0.00  0.00    +0.000 NA
ATOM     29  C   UNL     1      47.470   7.753  21.497  0.00  0.00    +0.000 A 
ATOM     30  N   UNL     1      47.565   8.658  20.473  0.00  0.00    +0.000 N 
ATOM     31  C   UNL     1      48.060   8.330  19.235  0.00  0.00    +0.000 A 
ATOM     32  O   UNL     1      48.220   9.183  18.369  0.00  0.00    +0.000 OA
ATOM     33  C   UNL     1      48.391   6.926  19.068  0.00  0.00    +0.000 A 
ATOM     34  H   UNL     1      47.327   9.630  20.613  0.00  0.00    +0.000 HD
ENDBRANCH  21  24
ENDBRANCH  19  20
ENDBRANCH   4  19
TORSDOF 6
ENDMDL
MODEL 5
REMARK VINA RESULT:    -7.570      4.123      7.369
REMARK INTER + INTRA:         -11.051
REMARK INTER:                 -10.074
REMARK INTRA:                  -0.977
REMARK UNBOUND:                -0.825
REMARK  Name = 
REMARK  7 active torsions:
REMARK  status: ('A' for Active; 'I' for Inactive)
REMARK    1  A    between atoms: C_1  and  C_2
REMARK    2  A    between atoms: C_6  and  C_7
REMARK    3  A    between atoms: N_9  and  C_10
REMARK    4  A    between atoms: C_10  and  C_11
REMARK    5  A    between atoms: C_14  and  C_15
REMARK    6  A    between atoms: C_15  and  N_16
REMARK    7  A    between atoms: C_17  and  C_19
REMARK                            x       y       z     vdW  Elec       q    Type
REMARK                         _______ _______ _______ _____ _____    ______ ____
ROOT
ATOM      1  C   UNL     1      44.794   9.268  11.853  0.00  0.00    +0.000 A 
ATOM      2  C   UNL     1      44.307   8.097  11.252  0.00  0.00    +0.000 A 
ATOM      3  C   UNL     1      44.801   6.831  11.617  0.00  0.00    +0.000 A 
ATOM      4  C   UNL     1      45.794   6.695  12.598  0.00  0.00    +0.000 A 
ATOM      5  C   UNL     1      46.272   7.865  13.207  0.00  0.00    +0.000 A 
ATOM      6  C   UNL     1      45.776   9.129  12.845  0.00  0.00    +0.000 A 
ENDROOT
BRANCH   1   7
ATOM      7  C   UNL     1      44.286  10.640  11.451  0.00  0.00    +0.000 C 
BRANCH   7  10
ATOM      8  C   UNL     1      41.816  10.739  11.147  0.00  0.00    +0.000 C 
ATOM      9  O   UNL     1      41.878  10.382   9.978  0.00  0.00    +0.000 OA
ATOM     10  N   UNL     1      42.948  10.896  11.945  0.00  0.00    +0.000 N 
ATOM     11  H   UNL     1      42.826  10.991  12.940  0.00  0.00    +0.000 HD
BRANCH   8  17
ATOM     12  C   UNL     1      36.958   9.598  11.624  0.00  0.00    +0.000 C 
ATOM     13  C   UNL     1      38.126  10.450  12.028  0.00  0.00    +0.000 A 
ATOM     14  C   UNL     1      37.973  11.465  12.979  0.00  0.00    +0.000 A 
ATOM     15  C   UNL     1      39.066  12.249  13.347  0.00  0.00    +0.000 A 
ATOM     16  C   UNL     1      40.323  12.025  12.772  0.00  0.00    +0.000 A 
ATOM     17  C   UNL     1      40.498  11.009  11.817  0.00  0.00    +0.000 A 
ATOM     18  C   UNL     1      39.390  10.231  11.450  0.00  0.00    +0.000 A 
ENDBRANCH   8  17
ENDBRANCH   7  10
ENDBRANCH   1   7
BRANCH   4  19
ATOM     19  C   UNL     1      46.345   5.338  12.992  0.00  0.00    +0.000 C 
BRANCH  19  20
ATOM     20  N   UNL     1      46.878   5.326  14.332  0.00  0.00    +0.000 N 
ATOM     21  C   UNL     1      47.353   4.184  14.933  0.00  0.00    +0.000 C 
ATOM     22  O   UNL     1      47.367   3.095  14.373  0.00  0.00    +0.000 OA
ATOM     23  H   UNL     1      46.565   6.075  14.939  0.00  0.00    +0.000 HD
BRANCH  21  24
ATOM     24  C   UNL     1      47.907   4.374  16.284  0.00  0.00    +0.000 A 
ATOM     25  C   UNL     1      47.552   3.512  17.315  0.00  0.00    +0.000 A 
ATOM     26  S   UNL     1      48.311   3.876  18.800  0.00  0.00    +0.000 S 
ATOM     27  C   UNL     1      49.106   5.224  18.129  0.00  0.00    +0.000 A 
ATOM     28  N   UNL     1      49.909   6.019  18.889  0.00  0.00    +0.000 NA
ATOM     29  C   UNL     1      50.429   7.015  18.256  0.00  0.00    +0.000 A 
ATOM     30  N   UNL     1      50.229   7.286  16.927  0.00  0.00    +0.000 N 
ATOM     31  C   UNL     1      49.471   6.482  16.111  0.00  0.00    +0.000 A 
ATOM     32  O   UNL     1      49.388   6.700  14.907  0.00  0.00    +0.000 OA
ATOM     33  C   UNL     1      48.824   5.371  16.786  0.00  0.00    +0.000 A 
ATOM     34  H   UNL     1      50.689   8.066  16.479  0.00  0.00    +0.000 HD
ENDBRANCH  21  24
ENDBRANCH  19  20
ENDBRANCH   4  19
TORSDOF 6
ENDMDL
MODEL 6
REMARK VINA RESULT:    -7.455      2.156      2.932
REMARK INTER + INTRA:         -10.895
REMARK INTER:                  -9.900
REMARK INTRA:                  -0.995
REMARK UNBOUND:                -0.825
REMARK  Name = 
REMARK  7 active torsions:
REMARK  status: ('A' for Active; 'I' for Inactive)
REMARK    1  A    between atoms: C_1  and  C_2
REMARK    2  A    between atoms: C_6  and  C_7
REMARK    3  A    between atoms: N_9  and  C_10
REMARK    4  A    between atoms: C_10  and  C_11
REMARK    5  A    between atoms: C_14  and  C_15
REMARK    6  A    between atoms: C_15  and  N_16
REMARK    7  A    between atoms: C_17  and  C_19
REMARK                            x       y       z     vdW  Elec       q    Type
REMARK                         _______ _______ _______ _____ _____    ______ ____
ROOT
ATOM      1  C   UNL     1      46.091   5.731  11.576  0.00  0.00    +0.000 A 
ATOM      2  C   UNL     1      47.054   6.428  12.323  0.00  0.00    +0.000 A 
ATOM      3  C   UNL     1      47.322   6.089  13.662  0.00  0.00    +0.000 A 
ATOM      4  C   UNL     1      46.641   5.039  14.294  0.00  0.00    +0.000 A 
ATOM      5  C   UNL     1      45.687   4.336  13.544  0.00  0.00    +0.000 A 
ATOM      6  C   UNL     1      45.421   4.672  12.205  0.00  0.00    +0.000 A 
ENDROOT
BRANCH   1   7
ATOM      7  C   UNL     1      45.776   6.103  10.138  0.00  0.00    +0.000 C 
BRANCH   7  10
ATOM      8  C   UNL     1      45.417   4.132   8.660  0.00  0.00    +0.000 C 
ATOM      9  O   UNL     1      44.230   4.046   8.949  0.00  0.00    +0.000 OA
ATOM     10  N   UNL     1      46.253   5.109   9.198  0.00  0.00    +0.000 N 
ATOM     11  H   UNL     1      47.154   5.258   8.775  0.00  0.00    +0.000 HD
BRANCH   8  17
ATOM     12  C   UNL     1      46.956  -0.510   7.556  0.00  0.00    +0.000 C 
ATOM     13  C   UNL     1      46.812   0.928   7.152  0.00  0.00    +0.000 A 
ATOM     14  C   UNL     1      47.275   1.370   5.908  0.00  0.00    +0.000 A 
ATOM     15  C   UNL     1      47.134   2.708   5.544  0.00  0.00    +0.000 A 
ATOM     16  C   UNL     1      46.526   3.619   6.418  0.00  0.00    +0.000 A 
ATOM     17  C   UNL     1      46.054   3.195   7.671  0.00  0.00    +0.000 A 
ATOM     18  C   UNL     1      46.206   1.848   8.029  0.00  0.00    +0.000 A 
ENDBRANCH   8  17
ENDBRANCH   7  10
ENDBRANCH   1   7
BRANCH   4  19
ATOM     19  C   UNL     1      46.910   4.671  15.741  0.00  0.00    +0.000 C 
BRANCH  19  20
ATOM     20  N   UNL     1      48.309   4.760  16.081  0.00  0.00    +0.000 N 
ATOM     21  C   UNL     1      48.757   5.355  17.238  0.00  0.00    +0.000 C 
ATOM     22  O   UNL     1      48.002   5.846  18.068  0.00  0.00    +0.000 OA
ATOM     23  H   UNL     1      48.958   4.709  15.304  0.00  0.00    +0.000 HD
BRANCH  21  24
ATOM     24  C   UNL     1      50.214   5.306  17.443  0.00  0.00    +0.000 A 
ATOM     25  C   UNL     1      50.956   6.479  17.492  0.00  0.00    +0.000 A 
ATOM     26  S   UNL     1      52.622   6.222  17.757  0.00  0.00    +0.000 S 
ATOM     27  C   UNL     1      52.418   4.532  17.772  0.00  0.00    +0.000 A 
ATOM     28  N   UNL     1      53.481   3.696  17.926  0.00  0.00    +0.000 NA
ATOM     29  C   UNL     1      53.182   2.441  17.897  0.00  0.00    +0.000 A 
ATOM     30  N   UNL     1      51.915   1.943  17.737  0.00  0.00    +0.000 N 
ATOM     31  C   UNL     1      50.808   2.750  17.632  0.00  0.00    +0.000 A 
ATOM     32  O   UNL     1      49.679   2.273  17.584  0.00  0.00    +0.000 OA
ATOM     33  C   UNL     1      51.095   4.173  17.613  0.00  0.00    +0.000 A 
ATOM     34  H   UNL     1      51.740   0.949  17.752  0.00  0.00    +0.000 HD
ENDBRANCH  21  24
ENDBRANCH  19  20
ENDBRANCH   4  19
TORSDOF 6
ENDMDL
MODEL 7
REMARK VINA RESULT:    -7.251      3.162      3.832
REMARK INTER + INTRA:         -10.619
REMARK INTER:                  -9.942
REMARK INTRA:                  -0.677
REMARK UNBOUND:                -0.825
REMARK  Name = 
REMARK  7 active torsions:
REMARK  status: ('A' for Active; 'I' for Inactive)
REMARK    1  A    between atoms: C_1  and  C_2
REMARK    2  A    between atoms: C_6  and  C_7
REMARK    3  A    between atoms: N_9  and  C_10
REMARK    4  A    between atoms: C_10  and  C_11
REMARK    5  A    between atoms: C_14  and  C_15
REMARK    6  A    between atoms: C_15  and  N_16
REMARK    7  A    between atoms: C_17  and  C_19
REMARK                            x       y       z     vdW  Elec       q    Type
REMARK                         _______ _______ _______ _____ _____    ______ ____
ROOT
ATOM      1  C   UNL     1      45.911   5.980  12.178  0.00  0.00    +0.000 A 
ATOM      2  C   UNL     1      46.428   7.272  12.358  0.00  0.00    +0.000 A 
ATOM      3  C   UNL     1      47.344   7.553  13.388  0.00  0.00    +0.000 A 
ATOM      4  C   UNL     1      47.777   6.551  14.267  0.00  0.00    +0.000 A 
ATOM      5  C   UNL     1      47.269   5.257  14.080  0.00  0.00    +0.000 A 
ATOM      6  C   UNL     1      46.356   4.974  13.049  0.00  0.00    +0.000 A 
ENDROOT
BRANCH   1   7
ATOM      7  C   UNL     1      44.904   5.669  11.086  0.00  0.00    +0.000 C 
BRANCH   7  10
ATOM      8  C   UNL     1      44.933   3.709   9.551  0.00  0.00    +0.000 C 
ATOM      9  O   UNL     1      43.921   3.224  10.041  0.00  0.00    +0.000 OA
ATOM     10  N   UNL     1      45.488   4.905  10.003  0.00  0.00    +0.000 N 
ATOM     11  H   UNL     1      46.190   5.353   9.438  0.00  0.00    +0.000 HD
BRANCH   8  17
ATOM     12  C   UNL     1      46.866  -0.456   7.537  0.00  0.00    +0.000 C 
ATOM     13  C   UNL     1      46.588   1.015   7.432  0.00  0.00    +0.000 A 
ATOM     14  C   UNL     1      46.992   1.739   6.305  0.00  0.00    +0.000 A 
ATOM     15  C   UNL     1      46.727   3.105   6.219  0.00  0.00    +0.000 A 
ATOM     16  C   UNL     1      46.052   3.762   7.256  0.00  0.00    +0.000 A 
ATOM     17  C   UNL     1      45.637   3.053   8.395  0.00  0.00    +0.000 A 
ATOM     18  C   UNL     1      45.914   1.680   8.474  0.00  0.00    +0.000 A 
ENDBRANCH   8  17
ENDBRANCH   7  10
ENDBRANCH   1   7
BRANCH   4  19
ATOM     19  C   UNL     1      48.754   6.843  15.390  0.00  0.00    +0.000 C 
BRANCH  19  20
ATOM     20  N   UNL     1      48.220   7.767  16.360  0.00  0.00    +0.000 N 
ATOM     21  C   UNL     1      48.795   7.965  17.594  0.00  0.00    +0.000 C 
ATOM     22  O   UNL     1      49.807   7.378  17.957  0.00  0.00    +0.000 OA
ATOM     23  H   UNL     1      47.236   7.987  16.265  0.00  0.00    +0.000 HD
BRANCH  21  24
ATOM     24  C   UNL     1      48.142   8.985  18.431  0.00  0.00    +0.000 A 
ATOM     25  C   UNL     1      47.964  10.277  17.951  0.00  0.00    +0.000 A 
ATOM     26  S   UNL     1      47.172  11.311  19.054  0.00  0.00    +0.000 S 
ATOM     27  C   UNL     1      47.078  10.082  20.228  0.00  0.00    +0.000 A 
ATOM     28  N   UNL     1      46.531  10.317  21.452  0.00  0.00    +0.000 NA
ATOM     29  C   UNL     1      46.546   9.302  22.248  0.00  0.00    +0.000 A 
ATOM     30  N   UNL     1      47.050   8.067  21.930  0.00  0.00    +0.000 N 
ATOM     31  C   UNL     1      47.562   7.771  20.691  0.00  0.00    +0.000 A 
ATOM     32  O   UNL     1      47.919   6.632  20.409  0.00  0.00    +0.000 OA
ATOM     33  C   UNL     1      47.611   8.893  19.771  0.00  0.00    +0.000 A 
ATOM     34  H   UNL     1      47.006   7.302  22.588  0.00  0.00    +0.000 HD
ENDBRANCH  21  24
ENDBRANCH  19  20
ENDBRANCH   4  19
TORSDOF 6
ENDMDL
MODEL 8
REMARK VINA RESULT:    -7.182      4.613     11.217
REMARK INTER + INTRA:         -10.526
REMARK INTER:                  -9.672
REMARK INTRA:                  -0.854
REMARK UNBOUND:                -0.825
REMARK  Name = 
REMARK  7 active torsions:
REMARK  status: ('A' for Active; 'I' for Inactive)
REMARK    1  A    between atoms: C_1  and  C_2
REMARK    2  A    between atoms: C_6  and  C_7
REMARK    3  A    between atoms: N_9  and  C_10
REMARK    4  A    between atoms: C_10  and  C_11
REMARK    5  A    between atoms: C_14  and  C_15
REMARK    6  A    between atoms: C_15  and  N_16
REMARK    7  A    between atoms: C_17  and  C_19
REMARK                            x       y       z     vdW  Elec       q    Type
REMARK                         _______ _______ _______ _____ _____    ______ ____
ROOT
ATOM      1  C   UNL     1      48.022   5.578  20.449  0.00  0.00    +0.000 A 
ATOM      2  C   UNL     1      48.792   4.460  20.089  0.00  0.00    +0.000 A 
ATOM      3  C   UNL     1      48.647   3.853  18.828  0.00  0.00    +0.000 A 
ATOM      4  C   UNL     1      47.734   4.346  17.886  0.00  0.00    +0.000 A 
ATOM      5  C   UNL     1      46.974   5.470  18.242  0.00  0.00    +0.000 A 
ATOM      6  C   UNL     1      47.120   6.079  19.500  0.00  0.00    +0.000 A 
ENDROOT
BRANCH   1   7
ATOM      7  C   UNL     1      48.152   6.227  21.815  0.00  0.00    +0.000 C 
BRANCH   7  10
ATOM      8  C   UNL     1      48.338   8.710  21.856  0.00  0.00    +0.000 C 
ATOM      9  O   UNL     1      49.562   8.686  21.835  0.00  0.00    +0.000 OA
ATOM     10  N   UNL     1      47.564   7.551  21.851  0.00  0.00    +0.000 N 
ATOM     11  H   UNL     1      46.579   7.631  21.664  0.00  0.00    +0.000 HD
BRANCH   8  17
ATOM     12  C   UNL     1      44.040  11.142  20.989  0.00  0.00    +0.000 C 
ATOM     13  C   UNL     1      45.478  11.182  21.418  0.00  0.00    +0.000 A 
ATOM     14  C   UNL     1      46.080  12.391  21.783  0.00  0.00    +0.000 A 
ATOM     15  C   UNL     1      47.416  12.415  22.181  0.00  0.00    +0.000 A 
ATOM     16  C   UNL     1      48.164  11.232  22.220  0.00  0.00    +0.000 A 
ATOM     17  C   UNL     1      47.578  10.007  21.858  0.00  0.00    +0.000 A 
ATOM     18  C   UNL     1      46.235   9.996  21.454  0.00  0.00    +0.000 A 
ENDBRANCH   8  17
ENDBRANCH   7  10
ENDBRANCH   1   7
BRANCH   4  19
ATOM     19  C   UNL     1      47.559   3.693  16.528  0.00  0.00    +0.000 C 
BRANCH  19  20
ATOM     20  N   UNL     1      47.006   4.596  15.549  0.00  0.00    +0.000 N 
ATOM     21  C   UNL     1      46.825   4.244  14.231  0.00  0.00    +0.000 C 
ATOM     22  O   UNL     1      47.111   3.136  13.794  0.00  0.00    +0.000 OA
ATOM     23  H   UNL     1      47.095   5.584  15.757  0.00  0.00    +0.000 HD
BRANCH  21  24
ATOM     24  C   UNL     1      46.199   5.277  13.389  0.00  0.00    +0.000 A 
ATOM     25  C   UNL     1      46.871   6.462  13.116  0.00  0.00    +0.000 A 
ATOM     26  S   UNL     1      45.996   7.525  12.107  0.00  0.00    +0.000 S 
ATOM     27  C   UNL     1      44.671   6.458  12.035  0.00  0.00    +0.000 A 
ATOM     28  N   UNL     1      43.543   6.782  11.345  0.00  0.00    +0.000 NA
ATOM     29  C   UNL     1      42.612   5.890  11.393  0.00  0.00    +0.000 A 
ATOM     30  N   UNL     1      42.708   4.697  12.061  0.00  0.00    +0.000 N 
ATOM     31  C   UNL     1      43.845   4.307  12.725  0.00  0.00    +0.000 A 
ATOM     32  O   UNL     1      43.932   3.194  13.232  0.00  0.00    +0.000 OA
ATOM     33  C   UNL     1      44.908   5.296  12.740  0.00  0.00    +0.000 A 
ATOM     34  H   UNL     1      41.955   4.025  12.037  0.00  0.00    +0.000 HD
ENDBRANCH  21  24
ENDBRANCH  19  20
ENDBRANCH   4  19
TORSDOF 6
ENDMDL
MODEL 9
REMARK VINA RESULT:    -7.064      2.426      3.076
REMARK INTER + INTRA:         -10.367
REMARK INTER:                  -9.625
REMARK INTRA:                  -0.742
REMARK UNBOUND:                -0.825
REMARK  Name = 
REMARK  7 active torsions:
REMARK  status: ('A' for Active; 'I' for Inactive)
REMARK    1  A    between atoms: C_1  and  C_2
REMARK    2  A    between atoms: C_6  and  C_7
REMARK    3  A    between atoms: N_9  and  C_10
REMARK    4  A    between atoms: C_10  and  C_11
REMARK    5  A    between atoms: C_14  and  C_15
REMARK    6  A    between atoms: C_15  and  N_16
REMARK    7  A    between atoms: C_17  and  C_19
REMARK                            x       y       z     vdW  Elec       q    Type
REMARK                         _______ _______ _______ _____ _____    ______ ____
ROOT
ATOM      1  C   UNL     1      44.294   4.761  11.663  0.00  0.00    +0.000 A 
ATOM      2  C   UNL     1      43.859   6.053  11.330  0.00  0.00    +0.000 A 
ATOM      3  C   UNL     1      44.500   7.193  11.848  0.00  0.00    +0.000 A 
ATOM      4  C   UNL     1      45.599   7.078  12.711  0.00  0.00    +0.000 A 
ATOM      5  C   UNL     1      46.040   5.786  13.036  0.00  0.00    +0.000 A 
ATOM      6  C   UNL     1      45.403   4.647  12.515  0.00  0.00    +0.000 A 
ENDROOT
BRANCH   1   7
ATOM      7  C   UNL     1      43.596   3.523  11.129  0.00  0.00    +0.000 C 
BRANCH   7  10
ATOM      8  C   UNL     1      44.712   3.222   8.924  0.00  0.00    +0.000 C 
ATOM      9  O   UNL     1      44.267   4.272   8.479  0.00  0.00    +0.000 OA
ATOM     10  N   UNL     1      44.432   2.774  10.214  0.00  0.00    +0.000 N 
ATOM     11  H   UNL     1      44.981   2.020  10.591  0.00  0.00    +0.000 HD
BRANCH   8  17
ATOM     12  C   UNL     1      47.635   2.698   4.885  0.00  0.00    +0.000 C 
ATOM     13  C   UNL     1      47.037   2.103   6.127  0.00  0.00    +0.000 A 
ATOM     14  C   UNL     1      47.312   0.780   6.488  0.00  0.00    +0.000 A 
ATOM     15  C   UNL     1      46.751   0.240   7.645  0.00  0.00    +0.000 A 
ATOM     16  C   UNL     1      45.912   1.017   8.454  0.00  0.00    +0.000 A 
ATOM     17  C   UNL     1      45.625   2.348   8.109  0.00  0.00    +0.000 A 
ATOM     18  C   UNL     1      46.191   2.879   6.940  0.00  0.00    +0.000 A 
ENDBRANCH   8  17
ENDBRANCH   7  10
ENDBRANCH   1   7
BRANCH   4  19
ATOM     19  C   UNL     1      46.291   8.298  13.288  0.00  0.00    +0.000 C 
BRANCH  19  20
ATOM     20  N   UNL     1      47.381   7.951  14.167  0.00  0.00    +0.000 N 
ATOM     21  C   UNL     1      48.400   8.824  14.469  0.00  0.00    +0.000 C 
ATOM     22  O   UNL     1      48.454   9.963  14.021  0.00  0.00    +0.000 OA
ATOM     23  H   UNL     1      47.575   6.961  14.261  0.00  0.00    +0.000 HD
BRANCH  21  24
ATOM     24  C   UNL     1      49.397   8.314  15.424  0.00  0.00    +0.000 A 
ATOM     25  C   UNL     1      49.044   8.077  16.747  0.00  0.00    +0.000 A 
ATOM     26  S   UNL     1      50.325   7.469  17.697  0.00  0.00    +0.000 S 
ATOM     27  C   UNL     1      51.409   7.543  16.385  0.00  0.00    +0.000 A 
ATOM     28  N   UNL     1      52.715   7.188  16.530  0.00  0.00    +0.000 NA
ATOM     29  C   UNL     1      53.425   7.313  15.460  0.00  0.00    +0.000 A 
ATOM     30  N   UNL     1      52.946   7.753  14.253  0.00  0.00    +0.000 N 
ATOM     31  C   UNL     1      51.626   8.070  14.048  0.00  0.00    +0.000 A 
ATOM     32  O   UNL     1      51.212   8.370  12.933  0.00  0.00    +0.000 OA
ATOM     33  C   UNL     1      50.793   7.990  15.234  0.00  0.00    +0.000 A 
ATOM     34  H   UNL     1      53.546   7.801  13.441  0.00  0.00    +0.000 HD
ENDBRANCH  21  24
ENDBRANCH  19  20
ENDBRANCH   4  19
TORSDOF 6
ENDMDL
