MODEL 1
REMARK VINA RESULT:    -8.105      0.000      0.000
REMARK INTER + INTRA:         -12.894
REMARK INTER:                 -11.896
REMARK INTRA:                  -0.998
REMARK UNBOUND:                -0.998
REMARK  Name = 
REMARK  10 active torsions:
REMARK  status: ('A' for Active; 'I' for Inactive)
REMARK    1  A    between atoms: C_1  and  C_2
REMARK    2  A    between atoms: C_2  and  O_3
REMARK    3  A    between atoms: O_3  and  C_4
REMARK    4  A    between atoms: C_6  and  C_7
REMARK    5  A    between atoms: C_7  and  C_8
REMARK    6  A    between atoms: C_8  and  N_9
REMARK    7  A    between atoms: C_13  and  C_14
REMARK    8  A    between atoms: C_20  and  C_21
REMARK    9  A    between atoms: C_25  and  O_26
REMARK   10  A    between atoms: O_26  and  C_27
REMARK                            x       y       z     vdW  Elec       q    Type
REMARK                         _______ _______ _______ _____ _____    ______ ____
ROOT
ATOM      1  C   UNL     1      46.820   4.540  13.893  0.00  0.00    +0.000 A 
ATOM      2  C   UNL     1      45.470   4.525  13.555  0.00  0.00    +0.000 A 
ATOM      3  C   UNL     1      44.978   5.528  12.720  0.00  0.00    +0.000 A 
ATOM      4  C   UNL     1      45.883   6.512  12.304  0.00  0.00    +0.000 A 
ATOM      5  C   UNL     1      47.220   6.477  12.707  0.00  0.00    +0.000 A 
ATOM      6  N   UNL     1      47.691   5.497  13.506  0.00  0.00    +0.000 NA
ENDROOT
BRANCH   5   7
ATOM      7  C   UNL     1      48.185   7.504  12.285  0.00  0.00    +0.000 A 
ATOM      8  C   UNL     1      47.798   8.831  12.104  0.00  0.00    +0.000 A 
ATOM      9  N   UNL     1      48.619   9.827  11.686  0.00  0.00    +0.000 NA
ATOM     10  C   UNL     1      49.905   9.480  11.438  0.00  0.00    +0.000 A 
ATOM     11  C   UNL     1      50.416   8.198  11.587  0.00  0.00    +0.000 A 
ATOM     12  C   UNL     1      49.538   7.209  12.022  0.00  0.00    +0.000 A 
BRANCH  11  13
ATOM     13  O   UNL     1      51.738   8.030  11.290  0.00  0.00    +0.000 OA
ATOM     14  C   UNL     1      52.046   7.326  10.092  0.00  0.00    +0.000 C 
ENDBRANCH  11  13
ENDBRANCH   5   7
BRANCH   1  15
ATOM     15  O   UNL     1      47.275   3.496  14.673  0.00  0.00    +0.000 OA
BRANCH  15  17
ATOM     16  C   UNL     1      48.333   2.849  16.709  0.00  0.00    +0.000 C 
ATOM     17  C   UNL     1      47.423   3.868  16.047  0.00  0.00    +0.000 C 
ENDBRANCH  15  17
ENDBRANCH   1  15
BRANCH   3  18
ATOM     18  C   UNL     1      43.520   5.530  12.283  0.00  0.00    +0.000 C 
BRANCH  18  19
ATOM     19  C   UNL     1      43.247   4.716  11.006  0.00  0.00    +0.000 C 
BRANCH  19  20
ATOM     20  N   UNL     1      44.020   5.171   9.845  0.00  0.00    +0.000 N 
ATOM     21  C   UNL     1      44.744   4.104   9.256  0.00  0.00    +0.000 A 
ATOM     22  C   UNL     1      45.565   4.339   8.143  0.00  0.00    +0.000 A 
ATOM     23  N   UNL     1      46.308   3.381   7.520  0.00  0.00    +0.000 NA
ATOM     24  C   UNL     1      46.184   2.137   8.056  0.00  0.00    +0.000 A 
ATOM     25  C   UNL     1      45.364   1.878   9.140  0.00  0.00    +0.000 A 
ATOM     26  N   UNL     1      44.632   2.848   9.749  0.00  0.00    +0.000 NA
ATOM     27  H   UNL     1      44.676   5.909  10.090  0.00  0.00    +0.000 HD
BRANCH  24  28
ATOM     28  C   UNL     1      46.968   1.025   7.455  0.00  0.00    +0.000 C 
ATOM     29  N   UNL     1      47.945   1.386   6.567  0.00  0.00    +0.000 N 
ATOM     30  O   UNL     1      46.762  -0.149   7.739  0.00  0.00    +0.000 OA
ATOM     31  H   UNL     1      48.096   2.363   6.345  0.00  0.00    +0.000 HD
ATOM     32  H   UNL     1      48.510   0.673   6.133  0.00  0.00    +0.000 HD
ENDBRANCH  24  28
ENDBRANCH  19  20
ENDBRANCH  18  19
ENDBRANCH   3  18
TORSDOF 8
ENDMDL
MODEL 2
REMARK VINA RESULT:    -7.991      1.159      1.743
REMARK INTER + INTRA:         -12.727
REMARK INTER:                 -11.724
REMARK INTRA:                  -1.003
REMARK UNBOUND:                -0.998
REMARK  Name = 
REMARK  10 active torsions:
REMARK  status: ('A' for Active; 'I' for Inactive)
REMARK    1  A    between atoms: C_1  and  C_2
REMARK    2  A    between atoms: C_2  and  O_3
REMARK    3  A    between atoms: O_3  and  C_4
REMARK    4  A    between atoms: C_6  and  C_7
REMARK    5  A    between atoms: C_7  and  C_8
REMARK    6  A    between atoms: C_8  and  N_9
REMARK    7  A    between atoms: C_13  and  C_14
REMARK    8  A    between atoms: C_20  and  C_21
REMARK    9  A    between atoms: C_25  and  O_26
REMARK   10  A    between atoms: O_26  and  C_27
REMARK                            x       y       z     vdW  Elec       q    Type
REMARK                         _______ _______ _______ _____ _____    ______ ____
ROOT
ATOM      1  C   UNL     1      46.874   4.473  13.881  0.00  0.00    +0.000 A 
ATOM      2  C   UNL     1      45.522   4.453  13.553  0.00  0.00    +0.000 A 
ATOM      3  C   UNL     1      45.013   5.470  12.746  0.00  0.00    +0.000 A 
ATOM      4  C   UNL     1      45.906   6.473  12.347  0.00  0.00    +0.000 A 
ATOM      5  C   UNL     1      47.246   6.443  12.739  0.00  0.00    +0.000 A 
ATOM      6  N   UNL     1      47.732   5.448  13.511  0.00  0.00    +0.000 NA
ENDROOT
BRANCH   5   7
ATOM      7  C   UNL     1      48.196   7.489  12.335  0.00  0.00    +0.000 A 
ATOM      8  C   UNL     1      49.552   7.211  12.165  0.00  0.00    +0.000 A 
ATOM      9  N   UNL     1      50.494   8.127  11.828  0.00  0.00    +0.000 NA
ATOM     10  C   UNL     1      50.058   9.396  11.642  0.00  0.00    +0.000 A 
ATOM     11  C   UNL     1      48.737   9.800  11.772  0.00  0.00    +0.000 A 
ATOM     12  C   UNL     1      47.804   8.825  12.116  0.00  0.00    +0.000 A 
BRANCH  11  13
ATOM     13  O   UNL     1      48.478  11.122  11.549  0.00  0.00    +0.000 OA
ATOM     14  C   UNL     1      47.122  11.541  11.660  0.00  0.00    +0.000 C 
ENDBRANCH  11  13
ENDBRANCH   5   7
BRANCH   1  15
ATOM     15  O   UNL     1      47.345   3.416  14.633  0.00  0.00    +0.000 OA
BRANCH  15  17
ATOM     16  C   UNL     1      48.350   2.719  16.679  0.00  0.00    +0.000 C 
ATOM     17  C   UNL     1      47.429   3.734  16.026  0.00  0.00    +0.000 C 
ENDBRANCH  15  17
ENDBRANCH   1  15
BRANCH   3  18
ATOM     18  C   UNL     1      43.552   5.468  12.320  0.00  0.00    +0.000 C 
BRANCH  18  19
ATOM     19  C   UNL     1      43.276   4.673  11.031  0.00  0.00    +0.000 C 
BRANCH  19  20
ATOM     20  N   UNL     1      44.056   5.137   9.879  0.00  0.00    +0.000 N 
ATOM     21  C   UNL     1      44.771   4.072   9.274  0.00  0.00    +0.000 A 
ATOM     22  C   UNL     1      45.596   4.316   8.167  0.00  0.00    +0.000 A 
ATOM     23  N   UNL     1      46.331   3.361   7.531  0.00  0.00    +0.000 NA
ATOM     24  C   UNL     1      46.194   2.110   8.048  0.00  0.00    +0.000 A 
ATOM     25  C   UNL     1      45.370   1.843   9.127  0.00  0.00    +0.000 A 
ATOM     26  N   UNL     1      44.645   2.811   9.749  0.00  0.00    +0.000 NA
ATOM     27  H   UNL     1      44.718   5.866  10.136  0.00  0.00    +0.000 HD
BRANCH  24  28
ATOM     28  C   UNL     1      46.969   0.999   7.433  0.00  0.00    +0.000 C 
ATOM     29  N   UNL     1      47.915   1.361   6.512  0.00  0.00    +0.000 N 
ATOM     30  O   UNL     1      46.782  -0.174   7.732  0.00  0.00    +0.000 OA
ATOM     31  H   UNL     1      48.051   2.338   6.277  0.00  0.00    +0.000 HD
ATOM     32  H   UNL     1      48.472   0.649   6.067  0.00  0.00    +0.000 HD
ENDBRANCH  24  28
ENDBRANCH  19  20
ENDBRANCH  18  19
ENDBRANCH   3  18
TORSDOF 8
ENDMDL
MODEL 3
REMARK VINA RESULT:    -7.343      1.963      4.738
REMARK INTER + INTRA:         -11.775
REMARK INTER:                 -10.690
REMARK INTRA:                  -1.085
REMARK UNBOUND:                -0.998
REMARK  Name = 
REMARK  10 active torsions:
REMARK  status: ('A' for Active; 'I' for Inactive)
REMARK    1  A    between atoms: C_1  and  C_2
REMARK    2  A    between atoms: C_2  and  O_3
REMARK    3  A    between atoms: O_3  and  C_4
REMARK    4  A    between atoms: C_6  and  C_7
REMARK    5  A    between atoms: C_7  and  C_8
REMARK    6  A    between atoms: C_8  and  N_9
REMARK    7  A    between atoms: C_13  and  C_14
REMARK    8  A    between atoms: C_20  and  C_21
REMARK    9  A    between atoms: C_25  and  O_26
REMARK   10  A    between atoms: O_26  and  C_27
REMARK                            x       y       z     vdW  Elec       q    Type
REMARK                         _______ _______ _______ _____ _____    ______ ____
ROOT
ATOM      1  C   UNL     1      47.366   6.582  12.138  0.00  0.00    +0.000 A 
ATOM      2  C   UNL     1      46.062   6.373  11.701  0.00  0.00    +0.000 A 
ATOM      3  C   UNL     1      45.217   5.575  12.472  0.00  0.00    +0.000 A 
ATOM      4  C   UNL     1      45.761   5.004  13.630  0.00  0.00    +0.000 A 
ATOM      5  C   UNL     1      47.089   5.237  13.991  0.00  0.00    +0.000 A 
ATOM      6  N   UNL     1      47.897   6.019  13.245  0.00  0.00    +0.000 NA
ENDROOT
BRANCH   5   7
ATOM      7  C   UNL     1      47.680   4.642  15.200  0.00  0.00    +0.000 A 
ATOM      8  C   UNL     1      47.778   3.260  15.354  0.00  0.00    +0.000 A 
ATOM      9  N   UNL     1      48.278   2.637  16.451  0.00  0.00    +0.000 NA
ATOM     10  C   UNL     1      48.712   3.439  17.451  0.00  0.00    +0.000 A 
ATOM     11  C   UNL     1      48.678   4.826  17.418  0.00  0.00    +0.000 A 
ATOM     12  C   UNL     1      48.160   5.423  16.271  0.00  0.00    +0.000 A 
BRANCH  11  13
ATOM     13  O   UNL     1      49.158   5.475  18.518  0.00  0.00    +0.000 OA
ATOM     14  C   UNL     1      48.336   5.471  19.680  0.00  0.00    +0.000 C 
ENDBRANCH  11  13
ENDBRANCH   5   7
BRANCH   1  15
ATOM     15  O   UNL     1      48.148   7.425  11.374  0.00  0.00    +0.000 OA
BRANCH  15  17
ATOM     16  C   UNL     1      47.643   9.588  12.240  0.00  0.00    +0.000 C 
ATOM     17  C   UNL     1      48.698   8.500  12.142  0.00  0.00    +0.000 C 
ENDBRANCH  15  17
ENDBRANCH   1  15
BRANCH   3  18
ATOM     18  C   UNL     1      43.768   5.354  12.062  0.00  0.00    +0.000 C 
BRANCH  18  19
ATOM     19  C   UNL     1      43.596   4.818  10.629  0.00  0.00    +0.000 C 
BRANCH  19  20
ATOM     20  N   UNL     1      43.925   3.395  10.493  0.00  0.00    +0.000 N 
ATOM     21  C   UNL     1      44.809   3.169   9.408  0.00  0.00    +0.000 A 
ATOM     22  C   UNL     1      45.226   1.867   9.099  0.00  0.00    +0.000 A 
ATOM     23  N   UNL     1      46.060   1.550   8.068  0.00  0.00    +0.000 NA
ATOM     24  C   UNL     1      46.489   2.620   7.345  0.00  0.00    +0.000 A 
ATOM     25  C   UNL     1      46.106   3.916   7.645  0.00  0.00    +0.000 A 
ATOM     26  N   UNL     1      45.272   4.210   8.677  0.00  0.00    +0.000 NA
ATOM     27  H   UNL     1      43.094   2.824  10.358  0.00  0.00    +0.000 HD
BRANCH  24  28
ATOM     28  C   UNL     1      47.391   2.379   6.188  0.00  0.00    +0.000 C 
ATOM     29  N   UNL     1      48.718   2.651   6.389  0.00  0.00    +0.000 N 
ATOM     30  O   UNL     1      46.980   1.953   5.114  0.00  0.00    +0.000 OA
ATOM     31  H   UNL     1      49.035   3.005   7.285  0.00  0.00    +0.000 HD
ATOM     32  H   UNL     1      49.375   2.501   5.641  0.00  0.00    +0.000 HD
ENDBRANCH  24  28
ENDBRANCH  19  20
ENDBRANCH  18  19
ENDBRANCH   3  18
TORSDOF 8
ENDMDL
MODEL 4
REMARK VINA RESULT:    -7.108      3.272      8.028
REMARK INTER + INTRA:         -11.431
REMARK INTER:                 -10.403
REMARK INTRA:                  -1.028
REMARK UNBOUND:                -0.998
REMARK  Name = 
REMARK  10 active torsions:
REMARK  status: ('A' for Active; 'I' for Inactive)
REMARK    1  A    between atoms: C_1  and  C_2
REMARK    2  A    between atoms: C_2  and  O_3
REMARK    3  A    between atoms: O_3  and  C_4
REMARK    4  A    between atoms: C_6  and  C_7
REMARK    5  A    between atoms: C_7  and  C_8
REMARK    6  A    between atoms: C_8  and  N_9
REMARK    7  A    between atoms: C_13  and  C_14
REMARK    8  A    between atoms: C_20  and  C_21
REMARK    9  A    between atoms: C_25  and  O_26
REMARK   10  A    between atoms: O_26  and  C_27
REMARK                            x       y       z     vdW  Elec       q    Type
REMARK                         _______ _______ _______ _____ _____    ______ ____
ROOT
ATOM      1  C   UNL     1      44.713   9.233  11.438  0.00  0.00    +0.000 A 
ATOM      2  C   UNL     1      45.885   9.613  12.085  0.00  0.00    +0.000 A 
ATOM      3  C   UNL     1      46.689   8.624  12.650  0.00  0.00    +0.000 A 
ATOM      4  C   UNL     1      46.235   7.303  12.556  0.00  0.00    +0.000 A 
ATOM      5  C   UNL     1      45.032   6.999  11.914  0.00  0.00    +0.000 A 
ATOM      6  N   UNL     1      44.265   7.961  11.360  0.00  0.00    +0.000 NA
ENDROOT
BRANCH   5   7
ATOM      7  C   UNL     1      44.536   5.618  11.809  0.00  0.00    +0.000 A 
ATOM      8  C   UNL     1      44.101   4.917  12.932  0.00  0.00    +0.000 A 
ATOM      9  N   UNL     1      43.662   3.633  12.922  0.00  0.00    +0.000 NA
ATOM     10  C   UNL     1      43.651   3.013  11.718  0.00  0.00    +0.000 A 
ATOM     11  C   UNL     1      44.049   3.602  10.526  0.00  0.00    +0.000 A 
ATOM     12  C   UNL     1      44.489   4.922  10.584  0.00  0.00    +0.000 A 
BRANCH  11  13
ATOM     13  O   UNL     1      43.972   2.826   9.406  0.00  0.00    +0.000 OA
ATOM     14  C   UNL     1      45.109   2.028   9.094  0.00  0.00    +0.000 C 
ENDBRANCH  11  13
ENDBRANCH   5   7
BRANCH   1  15
ATOM     15  O   UNL     1      43.979  10.239  10.843  0.00  0.00    +0.000 OA
BRANCH  15  17
ATOM     16  C   UNL     1      41.900  11.040   9.995  0.00  0.00    +0.000 C 
ATOM     17  C   UNL     1      42.636   9.837  10.558  0.00  0.00    +0.000 C 
ENDBRANCH  15  17
ENDBRANCH   1  15
BRANCH   3  18
ATOM     18  C   UNL     1      48.003   8.984  13.328  0.00  0.00    +0.000 C 
BRANCH  18  19
ATOM     19  C   UNL     1      48.950   7.788  13.536  0.00  0.00    +0.000 C 
BRANCH  19  20
ATOM     20  N   UNL     1      49.532   7.729  14.881  0.00  0.00    +0.000 N 
ATOM     21  C   UNL     1      49.031   6.623  15.613  0.00  0.00    +0.000 A 
ATOM     22  C   UNL     1      49.451   6.403  16.933  0.00  0.00    +0.000 A 
ATOM     23  N   UNL     1      49.014   5.379  17.719  0.00  0.00    +0.000 NA
ATOM     24  C   UNL     1      48.127   4.545  17.112  0.00  0.00    +0.000 A 
ATOM     25  C   UNL     1      47.715   4.730  15.803  0.00  0.00    +0.000 A 
ATOM     26  N   UNL     1      48.162   5.760  15.037  0.00  0.00    +0.000 NA
ATOM     27  H   UNL     1      49.351   8.577  15.412  0.00  0.00    +0.000 HD
BRANCH  24  28
ATOM     28  C   UNL     1      47.579   3.403  17.892  0.00  0.00    +0.000 C 
ATOM     29  N   UNL     1      48.228   3.102  19.059  0.00  0.00    +0.000 N 
ATOM     30  O   UNL     1      46.598   2.768  17.522  0.00  0.00    +0.000 OA
ATOM     31  H   UNL     1      49.039   3.639  19.344  0.00  0.00    +0.000 HD
ATOM     32  H   UNL     1      47.896   2.341  19.629  0.00  0.00    +0.000 HD
ENDBRANCH  24  28
ENDBRANCH  19  20
ENDBRANCH  18  19
ENDBRANCH   3  18
TORSDOF 8
ENDMDL
MODEL 5
REMARK VINA RESULT:    -6.815      2.656      4.419
REMARK INTER + INTRA:         -11.000
REMARK INTER:                 -10.750
REMARK INTRA:                  -0.250
REMARK UNBOUND:                -0.998
REMARK  Name = 
REMARK  10 active torsions:
REMARK  status: ('A' for Active; 'I' for Inactive)
REMARK    1  A    between atoms: C_1  and  C_2
REMARK    2  A    between atoms: C_2  and  O_3
REMARK    3  A    between atoms: O_3  and  C_4
REMARK    4  A    between atoms: C_6  and  C_7
REMARK    5  A    between atoms: C_7  and  C_8
REMARK    6  A    between atoms: C_8  and  N_9
REMARK    7  A    between atoms: C_13  and  C_14
REMARK    8  A    between atoms: C_20  and  C_21
REMARK    9  A    between atoms: C_25  and  O_26
REMARK   10  A    between atoms: O_26  and  C_27
REMARK                            x       y       z     vdW  Elec       q    Type
REMARK                         _______ _______ _______ _____ _____    ______ ____
ROOT
ATOM      1  C   UNL     1      45.325   6.808  12.266  0.00  0.00    +0.000 A 
ATOM      2  C   UNL     1      44.472   5.739  12.010  0.00  0.00    +0.000 A 
ATOM      3  C   UNL     1      44.622   4.569  12.755  0.00  0.00    +0.000 A 
ATOM      4  C   UNL     1      45.658   4.542  13.697  0.00  0.00    +0.000 A 
ATOM      5  C   UNL     1      46.493   5.646  13.880  0.00  0.00    +0.000 A 
ATOM      6  N   UNL     1      46.335   6.778  13.162  0.00  0.00    +0.000 NA
ENDROOT
BRANCH   5   7
ATOM      7  C   UNL     1      47.590   5.635  14.861  0.00  0.00    +0.000 A 
ATOM      8  C   UNL     1      48.668   6.512  14.753  0.00  0.00    +0.000 A 
ATOM      9  N   UNL     1      49.730   6.540  15.595  0.00  0.00    +0.000 NA
ATOM     10  C   UNL     1      49.715   5.644  16.610  0.00  0.00    +0.000 A 
ATOM     11  C   UNL     1      48.699   4.725  16.833  0.00  0.00    +0.000 A 
ATOM     12  C   UNL     1      47.627   4.734  15.945  0.00  0.00    +0.000 A 
BRANCH  11  13
ATOM     13  O   UNL     1      48.851   3.895  17.906  0.00  0.00    +0.000 OA
ATOM     14  C   UNL     1      48.549   4.437  19.187  0.00  0.00    +0.000 C 
ENDBRANCH  11  13
ENDBRANCH   5   7
BRANCH   1  15
ATOM     15  O   UNL     1      45.103   7.964  11.546  0.00  0.00    +0.000 OA
BRANCH  15  17
ATOM     16  C   UNL     1      45.052  10.345  11.443  0.00  0.00    +0.000 C 
ATOM     17  C   UNL     1      45.274   9.141  12.341  0.00  0.00    +0.000 C 
ENDBRANCH  15  17
ENDBRANCH   1  15
BRANCH   3  18
ATOM     18  C   UNL     1      43.684   3.388  12.545  0.00  0.00    +0.000 C 
BRANCH  18  19
ATOM     19  C   UNL     1      43.727   2.798  11.125  0.00  0.00    +0.000 C 
BRANCH  19  20
ATOM     20  N   UNL     1      43.946   3.803  10.079  0.00  0.00    +0.000 N 
ATOM     21  C   UNL     1      44.845   3.333   9.089  0.00  0.00    +0.000 A 
ATOM     22  C   UNL     1      45.201   4.157   8.011  0.00  0.00    +0.000 A 
ATOM     23  N   UNL     1      46.068   3.800   7.022  0.00  0.00    +0.000 NA
ATOM     24  C   UNL     1      46.568   2.540   7.144  0.00  0.00    +0.000 A 
ATOM     25  C   UNL     1      46.215   1.702   8.187  0.00  0.00    +0.000 A 
ATOM     26  N   UNL     1      45.350   2.079   9.165  0.00  0.00    +0.000 NA
ATOM     27  H   UNL     1      44.309   4.674  10.458  0.00  0.00    +0.000 HD
BRANCH  24  28
ATOM     28  C   UNL     1      47.536   2.060   6.121  0.00  0.00    +0.000 C 
ATOM     29  N   UNL     1      48.849   2.383   6.333  0.00  0.00    +0.000 N 
ATOM     30  O   UNL     1      47.186   1.406   5.145  0.00  0.00    +0.000 OA
ATOM     31  H   UNL     1      49.115   2.928   7.146  0.00  0.00    +0.000 HD
ATOM     32  H   UNL     1      49.548   2.080   5.674  0.00  0.00    +0.000 HD
ENDBRANCH  24  28
ENDBRANCH  19  20
ENDBRANCH  18  19
ENDBRANCH   3  18
TORSDOF 8
ENDMDL
MODEL 6
REMARK VINA RESULT:    -6.610      2.387      3.953
REMARK INTER + INTRA:         -10.700
REMARK INTER:                 -10.179
REMARK INTRA:                  -0.520
REMARK UNBOUND:                -0.998
REMARK  Name = 
REMARK  10 active torsions:
REMARK  status: ('A' for Active; 'I' for Inactive)
REMARK    1  A    between atoms: C_1  and  C_2
REMARK    2  A    between atoms: C_2  and  O_3
REMARK    3  A    between atoms: O_3  and  C_4
REMARK    4  A    between atoms: C_6  and  C_7
REMARK    5  A    between atoms: C_7  and  C_8
REMARK    6  A    between atoms: C_8  and  N_9
REMARK    7  A    between atoms: C_13  and  C_14
REMARK    8  A    between atoms: C_20  and  C_21
REMARK    9  A    between atoms: C_25  and  O_26
REMARK   10  A    between atoms: O_26  and  C_27
REMARK                            x       y       z     vdW  Elec       q    Type
REMARK                         _______ _______ _______ _____ _____    ______ ____
ROOT
ATOM      1  C   UNL     1      45.044   8.466  11.802  0.00  0.00    +0.000 A 
ATOM      2  C   UNL     1      44.278   7.308  11.718  0.00  0.00    +0.000 A 
ATOM      3  C   UNL     1      44.753   6.144  12.323  0.00  0.00    +0.000 A 
ATOM      4  C   UNL     1      46.003   6.217  12.950  0.00  0.00    +0.000 A 
ATOM      5  C   UNL     1      46.730   7.410  12.970  0.00  0.00    +0.000 A 
ATOM      6  N   UNL     1      46.257   8.534  12.392  0.00  0.00    +0.000 NA
ENDROOT
BRANCH   5   7
ATOM      7  C   UNL     1      48.046   7.505  13.619  0.00  0.00    +0.000 A 
ATOM      8  C   UNL     1      49.019   8.392  13.159  0.00  0.00    +0.000 A 
ATOM      9  N   UNL     1      50.265   8.513  13.682  0.00  0.00    +0.000 NA
ATOM     10  C   UNL     1      50.558   7.707  14.729  0.00  0.00    +0.000 A 
ATOM     11  C   UNL     1      49.678   6.789  15.285  0.00  0.00    +0.000 A 
ATOM     12  C   UNL     1      48.408   6.701  14.719  0.00  0.00    +0.000 A 
BRANCH  11  13
ATOM     13  O   UNL     1      50.144   6.058  16.339  0.00  0.00    +0.000 OA
ATOM     14  C   UNL     1      49.223   5.780  17.389  0.00  0.00    +0.000 C 
ENDBRANCH  11  13
ENDBRANCH   5   7
BRANCH   1  15
ATOM     15  O   UNL     1      44.508   9.606  11.240  0.00  0.00    +0.000 OA
BRANCH  15  17
ATOM     16  C   UNL     1      45.411  11.687  10.508  0.00  0.00    +0.000 C 
ATOM     17  C   UNL     1      45.149  10.797  11.709  0.00  0.00    +0.000 C 
ENDBRANCH  15  17
ENDBRANCH   1  15
BRANCH   3  18
ATOM     18  C   UNL     1      43.930   4.864  12.300  0.00  0.00    +0.000 C 
BRANCH  18  19
ATOM     19  C   UNL     1      43.283   4.559  10.937  0.00  0.00    +0.000 C 
BRANCH  19  20
ATOM     20  N   UNL     1      44.082   5.015   9.794  0.00  0.00    +0.000 N 
ATOM     21  C   UNL     1      44.800   3.944   9.204  0.00  0.00    +0.000 A 
ATOM     22  C   UNL     1      45.641   4.179   8.107  0.00  0.00    +0.000 A 
ATOM     23  N   UNL     1      46.380   3.218   7.484  0.00  0.00    +0.000 NA
ATOM     24  C   UNL     1      46.229   1.970   8.004  0.00  0.00    +0.000 A 
ATOM     25  C   UNL     1      45.388   1.711   9.072  0.00  0.00    +0.000 A 
ATOM     26  N   UNL     1      44.660   2.684   9.680  0.00  0.00    +0.000 NA
ATOM     27  H   UNL     1      44.744   5.741  10.058  0.00  0.00    +0.000 HD
BRANCH  24  28
ATOM     28  C   UNL     1      47.006   0.853   7.403  0.00  0.00    +0.000 C 
ATOM     29  N   UNL     1      47.891   1.195   6.416  0.00  0.00    +0.000 N 
ATOM     30  O   UNL     1      46.872  -0.309   7.768  0.00  0.00    +0.000 OA
ATOM     31  H   UNL     1      47.984   2.163   6.128  0.00  0.00    +0.000 HD
ATOM     32  H   UNL     1      48.448   0.479   5.978  0.00  0.00    +0.000 HD
ENDBRANCH  24  28
ENDBRANCH  19  20
ENDBRANCH  18  19
ENDBRANCH   3  18
TORSDOF 8
ENDMDL
MODEL 7
REMARK VINA RESULT:    -6.462      3.810      7.240
REMARK INTER + INTRA:         -10.481
REMARK INTER:                  -9.315
REMARK INTRA:                  -1.167
REMARK UNBOUND:                -0.998
REMARK  Name = 
REMARK  10 active torsions:
REMARK  status: ('A' for Active; 'I' for Inactive)
REMARK    1  A    between atoms: C_1  and  C_2
REMARK    2  A    between atoms: C_2  and  O_3
REMARK    3  A    between atoms: O_3  and  C_4
REMARK    4  A    between atoms: C_6  and  C_7
REMARK    5  A    between atoms: C_7  and  C_8
REMARK    6  A    between atoms: C_8  and  N_9
REMARK    7  A    between atoms: C_13  and  C_14
REMARK    8  A    between atoms: C_20  and  C_21
REMARK    9  A    between atoms: C_25  and  O_26
REMARK   10  A    between atoms: O_26  and  C_27
REMARK                            x       y       z     vdW  Elec       q    Type
REMARK                         _______ _______ _______ _____ _____    ______ ____
ROOT
ATOM      1  C   UNL     1      48.262   6.576  14.119  0.00  0.00    +0.000 A 
ATOM      2  C   UNL     1      48.726   7.737  13.509  0.00  0.00    +0.000 A 
ATOM      3  C   UNL     1      48.043   8.230  12.398  0.00  0.00    +0.000 A 
ATOM      4  C   UNL     1      46.943   7.489  11.947  0.00  0.00    +0.000 A 
ATOM      5  C   UNL     1      46.551   6.315  12.594  0.00  0.00    +0.000 A 
ATOM      6  N   UNL     1      47.212   5.852  13.676  0.00  0.00    +0.000 NA
ENDROOT
BRANCH   5   7
ATOM      7  C   UNL     1      45.402   5.521  12.133  0.00  0.00    +0.000 A 
ATOM      8  C   UNL     1      44.314   5.268  12.967  0.00  0.00    +0.000 A 
ATOM      9  N   UNL     1      43.236   4.518  12.627  0.00  0.00    +0.000 NA
ATOM     10  C   UNL     1      43.239   3.995  11.378  0.00  0.00    +0.000 A 
ATOM     11  C   UNL     1      44.254   4.179  10.451  0.00  0.00    +0.000 A 
ATOM     12  C   UNL     1      45.340   4.959  10.842  0.00  0.00    +0.000 A 
BRANCH  11  13
ATOM     13  O   UNL     1      44.090   3.576   9.237  0.00  0.00    +0.000 OA
ATOM     14  C   UNL     1      44.622   2.263   9.093  0.00  0.00    +0.000 C 
ENDBRANCH  11  13
ENDBRANCH   5   7
BRANCH   1  15
ATOM     15  O   UNL     1      48.935   6.158  15.249  0.00  0.00    +0.000 OA
BRANCH  15  17
ATOM     16  C   UNL     1      50.830   6.346  16.683  0.00  0.00    +0.000 C 
ATOM     17  C   UNL     1      50.037   7.012  15.573  0.00  0.00    +0.000 C 
ENDBRANCH  15  17
ENDBRANCH   1  15
BRANCH   3  18
ATOM     18  C   UNL     1      48.482   9.522  11.724  0.00  0.00    +0.000 C 
BRANCH  18  19
ATOM     19  C   UNL     1      47.615  10.742  12.082  0.00  0.00    +0.000 C 
BRANCH  19  20
ATOM     20  N   UNL     1      47.040  11.415  10.912  0.00  0.00    +0.000 N 
ATOM     21  C   UNL     1      45.640  11.208  10.832  0.00  0.00    +0.000 A 
ATOM     22  C   UNL     1      44.906  11.754   9.769  0.00  0.00    +0.000 A 
ATOM     23  N   UNL     1      43.563  11.595   9.600  0.00  0.00    +0.000 NA
ATOM     24  C   UNL     1      42.958  10.862  10.573  0.00  0.00    +0.000 A 
ATOM     25  C   UNL     1      43.659  10.331  11.642  0.00  0.00    +0.000 A 
ATOM     26  N   UNL     1      44.999  10.499  11.791  0.00  0.00    +0.000 NA
ATOM     27  H   UNL     1      47.464  11.098  10.044  0.00  0.00    +0.000 HD
BRANCH  24  28
ATOM     28  C   UNL     1      41.494  10.619  10.471  0.00  0.00    +0.000 C 
ATOM     29  N   UNL     1      40.995   9.603  11.241  0.00  0.00    +0.000 N 
ATOM     30  O   UNL     1      40.768  11.289   9.746  0.00  0.00    +0.000 OA
ATOM     31  H   UNL     1      41.615   9.059  11.831  0.00  0.00    +0.000 HD
ATOM     32  H   UNL     1      40.009   9.398  11.214  0.00  0.00    +0.000 HD
ENDBRANCH  24  28
ENDBRANCH  19  20
ENDBRANCH  18  19
ENDBRANCH   3  18
TORSDOF 8
ENDMDL
MODEL 8
REMARK VINA RESULT:    -6.395      2.415      3.784
REMARK INTER + INTRA:         -10.383
REMARK INTER:                  -9.480
REMARK INTRA:                  -0.903
REMARK UNBOUND:                -0.998
REMARK  Name = 
REMARK  10 active torsions:
REMARK  status: ('A' for Active; 'I' for Inactive)
REMARK    1  A    between atoms: C_1  and  C_2
REMARK    2  A    between atoms: C_2  and  O_3
REMARK    3  A    between atoms: O_3  and  C_4
REMARK    4  A    between atoms: C_6  and  C_7
REMARK    5  A    between atoms: C_7  and  C_8
REMARK    6  A    between atoms: C_8  and  N_9
REMARK    7  A    between atoms: C_13  and  C_14
REMARK    8  A    between atoms: C_20  and  C_21
REMARK    9  A    between atoms: C_25  and  O_26
REMARK   10  A    between atoms: O_26  and  C_27
REMARK                            x       y       z     vdW  Elec       q    Type
REMARK                         _______ _______ _______ _____ _____    ______ ____
ROOT
ATOM      1  C   UNL     1      45.023   8.538  11.583  0.00  0.00    +0.000 A 
ATOM      2  C   UNL     1      44.251   7.381  11.624  0.00  0.00    +0.000 A 
ATOM      3  C   UNL     1      44.781   6.243  12.232  0.00  0.00    +0.000 A 
ATOM      4  C   UNL     1      46.085   6.338  12.734  0.00  0.00    +0.000 A 
ATOM      5  C   UNL     1      46.811   7.527  12.632  0.00  0.00    +0.000 A 
ATOM      6  N   UNL     1      46.286   8.626  12.051  0.00  0.00    +0.000 NA
ENDROOT
BRANCH   5   7
ATOM      7  C   UNL     1      48.183   7.645  13.147  0.00  0.00    +0.000 A 
ATOM      8  C   UNL     1      48.503   7.270  14.452  0.00  0.00    +0.000 A 
ATOM      9  N   UNL     1      49.734   7.380  15.010  0.00  0.00    +0.000 NA
ATOM     10  C   UNL     1      50.708   7.888  14.218  0.00  0.00    +0.000 A 
ATOM     11  C   UNL     1      50.523   8.290  12.903  0.00  0.00    +0.000 A 
ATOM     12  C   UNL     1      49.243   8.156  12.371  0.00  0.00    +0.000 A 
BRANCH  11  13
ATOM     13  O   UNL     1      51.619   8.781  12.254  0.00  0.00    +0.000 OA
ATOM     14  C   UNL     1      51.549   8.856  10.835  0.00  0.00    +0.000 C 
ENDBRANCH  11  13
ENDBRANCH   5   7
BRANCH   1  15
ATOM     15  O   UNL     1      44.436   9.655  11.023  0.00  0.00    +0.000 OA
BRANCH  15  17
ATOM     16  C   UNL     1      44.181  12.024  10.973  0.00  0.00    +0.000 C 
ATOM     17  C   UNL     1      45.011  10.872  11.509  0.00  0.00    +0.000 C 
ENDBRANCH  15  17
ENDBRANCH   1  15
BRANCH   3  18
ATOM     18  C   UNL     1      43.959   4.967  12.344  0.00  0.00    +0.000 C 
BRANCH  18  19
ATOM     19  C   UNL     1      43.360   4.487  11.010  0.00  0.00    +0.000 C 
BRANCH  19  20
ATOM     20  N   UNL     1      43.679   3.091  10.693  0.00  0.00    +0.000 N 
ATOM     21  C   UNL     1      44.633   3.003   9.647  0.00  0.00    +0.000 A 
ATOM     22  C   UNL     1      45.055   1.749   9.183  0.00  0.00    +0.000 A 
ATOM     23  N   UNL     1      45.954   1.565   8.174  0.00  0.00    +0.000 NA
ATOM     24  C   UNL     1      46.444   2.717   7.643  0.00  0.00    +0.000 A 
ATOM     25  C   UNL     1      46.058   3.965   8.101  0.00  0.00    +0.000 A 
ATOM     26  N   UNL     1      45.159   4.127   9.106  0.00  0.00    +0.000 NA
ATOM     27  H   UNL     1      42.853   2.564  10.422  0.00  0.00    +0.000 HD
BRANCH  24  28
ATOM     28  C   UNL     1      47.421   2.623   6.526  0.00  0.00    +0.000 C 
ATOM     29  N   UNL     1      47.076   3.263   5.366  0.00  0.00    +0.000 N 
ATOM     30  O   UNL     1      48.480   2.014   6.631  0.00  0.00    +0.000 OA
ATOM     31  H   UNL     1      46.194   3.758   5.300  0.00  0.00    +0.000 HD
ATOM     32  H   UNL     1      47.703   3.235   4.578  0.00  0.00    +0.000 HD
ENDBRANCH  24  28
ENDBRANCH  19  20
ENDBRANCH  18  19
ENDBRANCH   3  18
TORSDOF 8
ENDMDL
MODEL 9
REMARK VINA RESULT:    -6.243      3.005      7.718
REMARK INTER + INTRA:         -10.160
REMARK INTER:                  -9.128
REMARK INTRA:                  -1.032
REMARK UNBOUND:                -0.998
REMARK  Name = 
REMARK  10 active torsions:
REMARK  status: ('A' for Active; 'I' for Inactive)
REMARK    1  A    between atoms: C_1  and  C_2
REMARK    2  A    between atoms: C_2  and  O_3
REMARK    3  A    between atoms: O_3  and  C_4
REMARK    4  A    between atoms: C_6  and  C_7
REMARK    5  A    between atoms: C_7  and  C_8
REMARK    6  A    between atoms: C_8  and  N_9
REMARK    7  A    between atoms: C_13  and  C_14
REMARK    8  A    between atoms: C_20  and  C_21
REMARK    9  A    between atoms: C_25  and  O_26
REMARK   10  A    between atoms: O_26  and  C_27
REMARK                            x       y       z     vdW  Elec       q    Type
REMARK                         _______ _______ _______ _____ _____    ______ ____
ROOT
ATOM      1  C   UNL     1      49.835   7.848  13.054  0.00  0.00    +0.000 A 
ATOM      2  C   UNL     1      49.665   8.631  14.191  0.00  0.00    +0.000 A 
ATOM      3  C   UNL     1      48.543   8.417  14.991  0.00  0.00    +0.000 A 
ATOM      4  C   UNL     1      47.635   7.439  14.566  0.00  0.00    +0.000 A 
ATOM      5  C   UNL     1      47.858   6.709  13.396  0.00  0.00    +0.000 A 
ATOM      6  N   UNL     1      48.953   6.916  12.634  0.00  0.00    +0.000 NA
ENDROOT
BRANCH   5   7
ATOM      7  C   UNL     1      46.915   5.682  12.931  0.00  0.00    +0.000 A 
ATOM      8  C   UNL     1      46.792   4.459  13.589  0.00  0.00    +0.000 A 
ATOM      9  N   UNL     1      45.971   3.450  13.202  0.00  0.00    +0.000 NA
ATOM     10  C   UNL     1      45.223   3.676  12.097  0.00  0.00    +0.000 A 
ATOM     11  C   UNL     1      45.246   4.851  11.358  0.00  0.00    +0.000 A 
ATOM     12  C   UNL     1      46.101   5.860  11.794  0.00  0.00    +0.000 A 
BRANCH  11  13
ATOM     13  O   UNL     1      44.424   4.904  10.269  0.00  0.00    +0.000 OA
ATOM     14  C   UNL     1      44.320   3.723   9.482  0.00  0.00    +0.000 C 
ENDBRANCH  11  13
ENDBRANCH   5   7
BRANCH   1  15
ATOM     15  O   UNL     1      50.989   8.055  12.325  0.00  0.00    +0.000 OA
BRANCH  15  17
ATOM     16  C   UNL     1      52.250   7.652  10.343  0.00  0.00    +0.000 C 
ATOM     17  C   UNL     1      50.872   7.586  10.978  0.00  0.00    +0.000 C 
ENDBRANCH  15  17
ENDBRANCH   1  15
BRANCH   3  18
ATOM     18  C   UNL     1      48.336   9.215  16.270  0.00  0.00    +0.000 C 
BRANCH  18  19
ATOM     19  C   UNL     1      48.783   8.481  17.547  0.00  0.00    +0.000 C 
BRANCH  19  20
ATOM     20  N   UNL     1      47.857   7.424  17.969  0.00  0.00    +0.000 N 
ATOM     21  C   UNL     1      48.408   6.136  17.751  0.00  0.00    +0.000 A 
ATOM     22  C   UNL     1      47.667   4.989  18.071  0.00  0.00    +0.000 A 
ATOM     23  N   UNL     1      48.105   3.712  17.882  0.00  0.00    +0.000 NA
ATOM     24  C   UNL     1      49.359   3.621  17.362  0.00  0.00    +0.000 A 
ATOM     25  C   UNL     1      50.117   4.739  17.059  0.00  0.00    +0.000 A 
ATOM     26  N   UNL     1      49.660   6.004  17.253  0.00  0.00    +0.000 NA
ATOM     27  H   UNL     1      46.966   7.482  17.482  0.00  0.00    +0.000 HD
BRANCH  24  28
ATOM     28  C   UNL     1      49.923   2.269  17.105  0.00  0.00    +0.000 C 
ATOM     29  N   UNL     1      50.874   1.833  17.988  0.00  0.00    +0.000 N 
ATOM     30  O   UNL     1      49.558   1.576  16.162  0.00  0.00    +0.000 OA
ATOM     31  H   UNL     1      51.163   2.425  18.759  0.00  0.00    +0.000 HD
ATOM     32  H   UNL     1      51.287   0.923  17.864  0.00  0.00    +0.000 HD
ENDBRANCH  24  28
ENDBRANCH  19  20
ENDBRANCH  18  19
ENDBRANCH   3  18
TORSDOF 8
ENDMDL
