MODEL 1
REMARK VINA RESULT:    -8.071      0.000      0.000
REMARK INTER + INTRA:         -14.213
REMARK INTER:                 -12.553
REMARK INTRA:                  -1.659
REMARK UNBOUND:                -1.659
REMARK  Name = 
REMARK  10 active torsions:
REMARK  status: ('A' for Active; 'I' for Inactive)
REMARK    1  A    between atoms: C_2  and  C_23
REMARK    2  A    between atoms: N_3  and  C_4
REMARK    3  A    between atoms: C_4  and  C_5
REMARK    4  A    between atoms: C_8  and  C_9
REMARK    5  A    between atoms: C_9  and  N_10
REMARK    6  A    between atoms: N_10  and  C_11
REMARK    7  A    between atoms: N_10  and  C_14
REMARK    8  A    between atoms: C_11  and  C_12
REMARK    9  A    between atoms: C_12  and  O_13
REMARK   10  A    between atoms: C_14  and  C_15
REMARK                            x       y       z     vdW  Elec       q    Type
REMARK                         _______ _______ _______ _____ _____    ______ ____
ROOT
ATOM      1  C   UNL     1      46.769   7.787  12.760  0.00  0.00    +0.000 A 
ATOM      2  C   UNL     1      47.201   6.663  12.047  0.00  0.00    +0.000 A 
ATOM      3  C   UNL     1      46.318   5.970  11.222  0.00  0.00    +0.000 A 
ATOM      4  C   UNL     1      44.984   6.387  11.105  0.00  0.00    +0.000 A 
ATOM      5  C   UNL     1      44.586   7.580  11.722  0.00  0.00    +0.000 A 
ATOM      6  C   UNL     1      45.476   8.279  12.540  0.00  0.00    +0.000 A 
ENDROOT
BRANCH   1   7
ATOM      7  C   UNL     1      47.680   8.434  13.768  0.00  0.00    +0.000 C 
BRANCH   7  10
ATOM      8  O   UNL     1      50.165   7.318  14.440  0.00  0.00    +0.000 OA
ATOM      9  C   UNL     1      49.197   7.097  15.163  0.00  0.00    +0.000 C 
ATOM     10  N   UNL     1      47.944   7.570  14.882  0.00  0.00    +0.000 N 
ATOM     11  H   UNL     1      47.217   7.514  15.586  0.00  0.00    +0.000 HD
BRANCH   9  12
ATOM     12  C   UNL     1      49.312   6.246  16.354  0.00  0.00    +0.000 A 
ATOM     13  C   UNL     1      50.198   6.598  17.363  0.00  0.00    +0.000 A 
ATOM     14  S   UNL     1      50.216   5.498  18.666  0.00  0.00    +0.000 S 
ATOM     15  C   UNL     1      49.008   4.540  17.947  0.00  0.00    +0.000 A 
ATOM     16  N   UNL     1      48.528   3.436  18.578  0.00  0.00    +0.000 NA
ATOM     17  C   UNL     1      47.584   2.826  17.939  0.00  0.00    +0.000 A 
ATOM     18  N   UNL     1      47.090   3.214  16.720  0.00  0.00    +0.000 N 
ATOM     19  C   UNL     1      47.602   4.271  16.008  0.00  0.00    +0.000 A 
ATOM     20  O   UNL     1      47.240   4.497  14.863  0.00  0.00    +0.000 OA
ATOM     21  C   UNL     1      48.623   5.031  16.711  0.00  0.00    +0.000 A 
ATOM     22  H   UNL     1      46.376   2.669  16.257  0.00  0.00    +0.000 HD
ENDBRANCH   9  12
ENDBRANCH   7  10
ENDBRANCH   1   7
BRANCH   4  23
ATOM     23  C   UNL     1      43.979   5.511  10.382  0.00  0.00    +0.000 C 
BRANCH  23  24
ATOM     24  N   UNL     1      44.494   4.141  10.114  0.00  0.00    +0.000 NA
BRANCH  24  25
ATOM     25  C   UNL     1      43.769   3.144  10.943  0.00  0.00    +0.000 C 
BRANCH  25  26
ATOM     26  C   UNL     1      44.094   3.176  12.449  0.00  0.00    +0.000 C 
BRANCH  26  27
ATOM     27  O   UNL     1      45.468   2.860  12.670  0.00  0.00    +0.000 OA
ATOM     28  H   UNL     1      45.541   2.520  13.578  0.00  0.00    +0.000 HD
ENDBRANCH  26  27
ENDBRANCH  25  26
ENDBRANCH  24  25
BRANCH  24  29
ATOM     29  C   UNL     1      44.356   3.814   8.683  0.00  0.00    +0.000 C 
BRANCH  29  30
ATOM     30  C   UNL     1      45.473   2.981   8.105  0.00  0.00    +0.000 A 
ATOM     31  C   UNL     1      46.460   3.533   7.283  0.00  0.00    +0.000 A 
ATOM     32  C   UNL     1      47.516   2.737   6.847  0.00  0.00    +0.000 A 
ATOM     33  C   UNL     1      47.547   1.412   7.245  0.00  0.00    +0.000 A 
ATOM     34  N   UNL     1      46.606   0.838   8.024  0.00  0.00    +0.000 NA
ATOM     35  C   UNL     1      45.595   1.636   8.436  0.00  0.00    +0.000 A 
ENDBRANCH  29  30
ENDBRANCH  24  29
ENDBRANCH  23  24
ENDBRANCH   4  23
TORSDOF 10
ENDMDL
MODEL 2
REMARK VINA RESULT:    -7.622      2.567      3.306
REMARK INTER + INTRA:         -13.514
REMARK INTER:                 -12.158
REMARK INTRA:                  -1.355
REMARK UNBOUND:                -1.659
REMARK  Name = 
REMARK  10 active torsions:
REMARK  status: ('A' for Active; 'I' for Inactive)
REMARK    1  A    between atoms: C_2  and  C_23
REMARK    2  A    between atoms: N_3  and  C_4
REMARK    3  A    between atoms: C_4  and  C_5
REMARK    4  A    between atoms: C_8  and  C_9
REMARK    5  A    between atoms: C_9  and  N_10
REMARK    6  A    between atoms: N_10  and  C_11
REMARK    7  A    between atoms: N_10  and  C_14
REMARK    8  A    between atoms: C_11  and  C_12
REMARK    9  A    between atoms: C_12  and  O_13
REMARK   10  A    between atoms: C_14  and  C_15
REMARK                            x       y       z     vdW  Elec       q    Type
REMARK                         _______ _______ _______ _____ _____    ______ ____
ROOT
ATOM      1  C   UNL     1      46.942   4.607  14.778  0.00  0.00    +0.000 A 
ATOM      2  C   UNL     1      46.313   3.619  14.013  0.00  0.00    +0.000 A 
ATOM      3  C   UNL     1      45.985   3.862  12.681  0.00  0.00    +0.000 A 
ATOM      4  C   UNL     1      46.275   5.102  12.096  0.00  0.00    +0.000 A 
ATOM      5  C   UNL     1      47.014   6.043  12.824  0.00  0.00    +0.000 A 
ATOM      6  C   UNL     1      47.350   5.794  14.156  0.00  0.00    +0.000 A 
ENDROOT
BRANCH   1   7
ATOM      7  C   UNL     1      47.150   4.398  16.253  0.00  0.00    +0.000 C 
BRANCH   7  10
ATOM      8  O   UNL     1      48.337   4.860  18.753  0.00  0.00    +0.000 OA
ATOM      9  C   UNL     1      49.029   4.428  17.836  0.00  0.00    +0.000 C 
ATOM     10  N   UNL     1      48.535   4.216  16.577  0.00  0.00    +0.000 N 
ATOM     11  H   UNL     1      49.088   3.699  15.902  0.00  0.00    +0.000 HD
BRANCH   9  12
ATOM     12  C   UNL     1      50.463   4.172  18.017  0.00  0.00    +0.000 A 
ATOM     13  C   UNL     1      51.270   5.156  18.571  0.00  0.00    +0.000 A 
ATOM     14  S   UNL     1      52.908   4.699  18.700  0.00  0.00    +0.000 S 
ATOM     15  C   UNL     1      52.586   3.155  18.063  0.00  0.00    +0.000 A 
ATOM     16  N   UNL     1      53.577   2.233  17.938  0.00  0.00    +0.000 NA
ATOM     17  C   UNL     1      53.185   1.089  17.480  0.00  0.00    +0.000 A 
ATOM     18  N   UNL     1      51.895   0.792  17.122  0.00  0.00    +0.000 N 
ATOM     19  C   UNL     1      50.880   1.717  17.152  0.00  0.00    +0.000 A 
ATOM     20  O   UNL     1      49.780   1.462  16.686  0.00  0.00    +0.000 OA
ATOM     21  C   UNL     1      51.254   3.003  17.720  0.00  0.00    +0.000 A 
ATOM     22  H   UNL     1      51.664  -0.111  16.735  0.00  0.00    +0.000 HD
ENDBRANCH   9  12
ENDBRANCH   7  10
ENDBRANCH   1   7
BRANCH   4  23
ATOM     23  C   UNL     1      45.728   5.437  10.722  0.00  0.00    +0.000 C 
BRANCH  23  24
ATOM     24  N   UNL     1      44.452   4.732  10.421  0.00  0.00    +0.000 NA
BRANCH  24  25
ATOM     25  C   UNL     1      43.295   5.523  10.911  0.00  0.00    +0.000 C 
BRANCH  25  26
ATOM     26  C   UNL     1      42.580   4.951  12.150  0.00  0.00    +0.000 C 
BRANCH  26  27
ATOM     27  O   UNL     1      42.948   5.681  13.320  0.00  0.00    +0.000 OA
ATOM     28  H   UNL     1      43.903   5.552  13.450  0.00  0.00    +0.000 HD
ENDBRANCH  26  27
ENDBRANCH  25  26
ENDBRANCH  24  25
BRANCH  24  29
ATOM     29  C   UNL     1      44.332   4.491   8.971  0.00  0.00    +0.000 C 
BRANCH  29  30
ATOM     30  C   UNL     1      45.220   3.400   8.426  0.00  0.00    +0.000 A 
ATOM     31  C   UNL     1      46.201   3.656   7.463  0.00  0.00    +0.000 A 
ATOM     32  C   UNL     1      47.051   2.630   7.058  0.00  0.00    +0.000 A 
ATOM     33  C   UNL     1      46.887   1.379   7.628  0.00  0.00    +0.000 A 
ATOM     34  N   UNL     1      45.944   1.088   8.548  0.00  0.00    +0.000 NA
ATOM     35  C   UNL     1      45.136   2.105   8.925  0.00  0.00    +0.000 A 
ENDBRANCH  29  30
ENDBRANCH  24  29
ENDBRANCH  23  24
ENDBRANCH   4  23
TORSDOF 10
ENDMDL
MODEL 3
REMARK VINA RESULT:    -7.421      2.272      2.823
REMARK INTER + INTRA:         -13.201
REMARK INTER:                 -11.910
REMARK INTRA:                  -1.291
REMARK UNBOUND:                -1.659
REMARK  Name = 
REMARK  10 active torsions:
REMARK  status: ('A' for Active; 'I' for Inactive)
REMARK    1  A    between atoms: C_2  and  C_23
REMARK    2  A    between atoms: N_3  and  C_4
REMARK    3  A    between atoms: C_4  and  C_5
REMARK    4  A    between atoms: C_8  and  C_9
REMARK    5  A    between atoms: C_9  and  N_10
REMARK    6  A    between atoms: N_10  and  C_11
REMARK    7  A    between atoms: N_10  and  C_14
REMARK    8  A    between atoms: C_11  and  C_12
REMARK    9  A    between atoms: C_12  and  O_13
REMARK   10  A    between atoms: C_14  and  C_15
REMARK                            x       y       z     vdW  Elec       q    Type
REMARK                         _______ _______ _______ _____ _____    ______ ____
ROOT
ATOM      1  C   UNL     1      48.224   6.686  13.454  0.00  0.00    +0.000 A 
ATOM      2  C   UNL     1      47.232   5.775  13.834  0.00  0.00    +0.000 A 
ATOM      3  C   UNL     1      46.181   5.478  12.970  0.00  0.00    +0.000 A 
ATOM      4  C   UNL     1      46.100   6.094  11.714  0.00  0.00    +0.000 A 
ATOM      5  C   UNL     1      47.156   6.910  11.287  0.00  0.00    +0.000 A 
ATOM      6  C   UNL     1      48.215   7.199  12.150  0.00  0.00    +0.000 A 
ENDROOT
BRANCH   1   7
ATOM      7  C   UNL     1      49.266   7.122  14.447  0.00  0.00    +0.000 C 
BRANCH   7  10
ATOM      8  O   UNL     1      50.952   5.988  16.382  0.00  0.00    +0.000 OA
ATOM      9  C   UNL     1      49.795   6.262  16.688  0.00  0.00    +0.000 C 
ATOM     10  N   UNL     1      48.899   6.779  15.791  0.00  0.00    +0.000 N 
ATOM     11  H   UNL     1      48.016   7.151  16.122  0.00  0.00    +0.000 HD
BRANCH   9  12
ATOM     12  C   UNL     1      49.275   5.989  18.033  0.00  0.00    +0.000 A 
ATOM     13  C   UNL     1      49.448   4.730  18.591  0.00  0.00    +0.000 A 
ATOM     14  S   UNL     1      48.776   4.580  20.151  0.00  0.00    +0.000 S 
ATOM     15  C   UNL     1      48.272   6.204  20.152  0.00  0.00    +0.000 A 
ATOM     16  N   UNL     1      47.649   6.739  21.235  0.00  0.00    +0.000 NA
ATOM     17  C   UNL     1      47.359   7.994  21.117  0.00  0.00    +0.000 A 
ATOM     18  N   UNL     1      47.624   8.755  20.007  0.00  0.00    +0.000 N 
ATOM     19  C   UNL     1      48.174   8.237  18.860  0.00  0.00    +0.000 A 
ATOM     20  O   UNL     1      48.258   8.906  17.842  0.00  0.00    +0.000 OA
ATOM     21  C   UNL     1      48.578   6.843  18.963  0.00  0.00    +0.000 A 
ATOM     22  H   UNL     1      47.336   9.722  19.966  0.00  0.00    +0.000 HD
ENDBRANCH   9  12
ENDBRANCH   7  10
ENDBRANCH   1   7
BRANCH   4  23
ATOM     23  C   UNL     1      44.851   5.934  10.871  0.00  0.00    +0.000 C 
BRANCH  23  24
ATOM     24  N   UNL     1      44.493   4.509  10.632  0.00  0.00    +0.000 NA
BRANCH  24  25
ATOM     25  C   UNL     1      43.299   4.134  11.432  0.00  0.00    +0.000 C 
BRANCH  25  26
ATOM     26  C   UNL     1      42.466   5.314  11.969  0.00  0.00    +0.000 C 
BRANCH  26  27
ATOM     27  O   UNL     1      42.541   5.371  13.393  0.00  0.00    +0.000 OA
ATOM     28  H   UNL     1      43.459   5.592  13.623  0.00  0.00    +0.000 HD
ENDBRANCH  26  27
ENDBRANCH  25  26
ENDBRANCH  24  25
BRANCH  24  29
ATOM     29  C   UNL     1      44.243   4.278   9.198  0.00  0.00    +0.000 C 
BRANCH  29  30
ATOM     30  C   UNL     1      45.203   3.330   8.524  0.00  0.00    +0.000 A 
ATOM     31  C   UNL     1      46.127   3.766   7.570  0.00  0.00    +0.000 A 
ATOM     32  C   UNL     1      47.047   2.864   7.041  0.00  0.00    +0.000 A 
ATOM     33  C   UNL     1      47.009   1.553   7.484  0.00  0.00    +0.000 A 
ATOM     34  N   UNL     1      46.124   1.090   8.391  0.00  0.00    +0.000 NA
ATOM     35  C   UNL     1      45.245   1.989   8.889  0.00  0.00    +0.000 A 
ENDBRANCH  29  30
ENDBRANCH  24  29
ENDBRANCH  23  24
ENDBRANCH   4  23
TORSDOF 10
ENDMDL
MODEL 4
REMARK VINA RESULT:    -7.241      1.819      2.202
REMARK INTER + INTRA:         -12.922
REMARK INTER:                 -11.607
REMARK INTRA:                  -1.315
REMARK UNBOUND:                -1.659
REMARK  Name = 
REMARK  10 active torsions:
REMARK  status: ('A' for Active; 'I' for Inactive)
REMARK    1  A    between atoms: C_2  and  C_23
REMARK    2  A    between atoms: N_3  and  C_4
REMARK    3  A    between atoms: C_4  and  C_5
REMARK    4  A    between atoms: C_8  and  C_9
REMARK    5  A    between atoms: C_9  and  N_10
REMARK    6  A    between atoms: N_10  and  C_11
REMARK    7  A    between atoms: N_10  and  C_14
REMARK    8  A    between atoms: C_11  and  C_12
REMARK    9  A    between atoms: C_12  and  O_13
REMARK   10  A    between atoms: C_14  and  C_15
REMARK                            x       y       z     vdW  Elec       q    Type
REMARK                         _______ _______ _______ _____ _____    ______ ____
ROOT
ATOM      1  C   UNL     1      48.245   6.690  13.407  0.00  0.00    +0.000 A 
ATOM      2  C   UNL     1      47.318   5.721  13.810  0.00  0.00    +0.000 A 
ATOM      3  C   UNL     1      46.236   5.401  12.994  0.00  0.00    +0.000 A 
ATOM      4  C   UNL     1      46.058   6.051  11.765  0.00  0.00    +0.000 A 
ATOM      5  C   UNL     1      47.050   6.929  11.309  0.00  0.00    +0.000 A 
ATOM      6  C   UNL     1      48.140   7.241  12.123  0.00  0.00    +0.000 A 
ENDROOT
BRANCH   1   7
ATOM      7  C   UNL     1      49.319   7.145  14.357  0.00  0.00    +0.000 C 
BRANCH   7  10
ATOM      8  O   UNL     1      50.275   8.618  16.544  0.00  0.00    +0.000 OA
ATOM      9  C   UNL     1      49.415   7.763  16.733  0.00  0.00    +0.000 C 
ATOM     10  N   UNL     1      48.928   6.974  15.726  0.00  0.00    +0.000 N 
ATOM     11  H   UNL     1      48.102   6.407  15.888  0.00  0.00    +0.000 HD
BRANCH   9  12
ATOM     12  C   UNL     1      48.897   7.484  18.078  0.00  0.00    +0.000 A 
ATOM     13  C   UNL     1      48.238   8.485  18.779  0.00  0.00    +0.000 A 
ATOM     14  S   UNL     1      47.712   7.998  20.326  0.00  0.00    +0.000 S 
ATOM     15  C   UNL     1      48.306   6.421  20.094  0.00  0.00    +0.000 A 
ATOM     16  N   UNL     1      48.143   5.468  21.049  0.00  0.00    +0.000 NA
ATOM     17  C   UNL     1      48.604   4.305  20.725  0.00  0.00    +0.000 A 
ATOM     18  N   UNL     1      49.226   4.015  19.538  0.00  0.00    +0.000 N 
ATOM     19  C   UNL     1      49.487   4.965  18.580  0.00  0.00    +0.000 A 
ATOM     20  O   UNL     1      50.173   4.704  17.603  0.00  0.00    +0.000 OA
ATOM     21  C   UNL     1      48.932   6.278  18.868  0.00  0.00    +0.000 A 
ATOM     22  H   UNL     1      49.597   3.092  19.363  0.00  0.00    +0.000 HD
ENDBRANCH   9  12
ENDBRANCH   7  10
ENDBRANCH   1   7
BRANCH   4  23
ATOM     23  C   UNL     1      44.772   5.857  10.986  0.00  0.00    +0.000 C 
BRANCH  23  24
ATOM     24  N   UNL     1      44.522   4.434  10.628  0.00  0.00    +0.000 NA
BRANCH  24  25
ATOM     25  C   UNL     1      43.337   3.917  11.359  0.00  0.00    +0.000 C 
BRANCH  25  26
ATOM     26  C   UNL     1      43.571   2.626  12.168  0.00  0.00    +0.000 C 
BRANCH  26  27
ATOM     27  O   UNL     1      44.955   2.477  12.481  0.00  0.00    +0.000 OA
ATOM     28  H   UNL     1      45.458   2.840  11.732  0.00  0.00    +0.000 HD
ENDBRANCH  26  27
ENDBRANCH  25  26
ENDBRANCH  24  25
BRANCH  24  29
ATOM     29  C   UNL     1      44.326   4.299   9.173  0.00  0.00    +0.000 C 
BRANCH  29  30
ATOM     30  C   UNL     1      45.283   3.361   8.481  0.00  0.00    +0.000 A 
ATOM     31  C   UNL     1      46.208   3.812   7.535  0.00  0.00    +0.000 A 
ATOM     32  C   UNL     1      47.126   2.918   6.989  0.00  0.00    +0.000 A 
ATOM     33  C   UNL     1      47.085   1.599   7.407  0.00  0.00    +0.000 A 
ATOM     34  N   UNL     1      46.198   1.122   8.306  0.00  0.00    +0.000 NA
ATOM     35  C   UNL     1      45.322   2.014   8.821  0.00  0.00    +0.000 A 
ENDBRANCH  29  30
ENDBRANCH  24  29
ENDBRANCH  23  24
ENDBRANCH   4  23
TORSDOF 10
ENDMDL
MODEL 5
REMARK VINA RESULT:    -6.463      3.174      7.869
REMARK INTER + INTRA:         -11.712
REMARK INTER:                 -10.637
REMARK INTRA:                  -1.074
REMARK UNBOUND:                -1.659
REMARK  Name = 
REMARK  10 active torsions:
REMARK  status: ('A' for Active; 'I' for Inactive)
REMARK    1  A    between atoms: C_2  and  C_23
REMARK    2  A    between atoms: N_3  and  C_4
REMARK    3  A    between atoms: C_4  and  C_5
REMARK    4  A    between atoms: C_8  and  C_9
REMARK    5  A    between atoms: C_9  and  N_10
REMARK    6  A    between atoms: N_10  and  C_11
REMARK    7  A    between atoms: N_10  and  C_14
REMARK    8  A    between atoms: C_11  and  C_12
REMARK    9  A    between atoms: C_12  and  O_13
REMARK   10  A    between atoms: C_14  and  C_15
REMARK                            x       y       z     vdW  Elec       q    Type
REMARK                         _______ _______ _______ _____ _____    ______ ____
ROOT
ATOM      1  C   UNL     1      49.565   7.828  14.702  0.00  0.00    +0.000 A 
ATOM      2  C   UNL     1      48.560   8.627  15.258  0.00  0.00    +0.000 A 
ATOM      3  C   UNL     1      48.467   8.780  16.640  0.00  0.00    +0.000 A 
ATOM      4  C   UNL     1      49.373   8.129  17.487  0.00  0.00    +0.000 A 
ATOM      5  C   UNL     1      50.450   7.430  16.926  0.00  0.00    +0.000 A 
ATOM      6  C   UNL     1      50.548   7.287  15.541  0.00  0.00    +0.000 A 
ENDROOT
BRANCH   1   7
ATOM      7  C   UNL     1      49.566   7.539  13.225  0.00  0.00    +0.000 C 
BRANCH   7  10
ATOM      8  O   UNL     1      48.055   5.247  13.806  0.00  0.00    +0.000 OA
ATOM      9  C   UNL     1      47.562   6.122  13.100  0.00  0.00    +0.000 C 
ATOM     10  N   UNL     1      48.248   7.250  12.738  0.00  0.00    +0.000 N 
ATOM     11  H   UNL     1      47.753   8.021  12.305  0.00  0.00    +0.000 HD
BRANCH   9  12
ATOM     12  C   UNL     1      46.212   5.982  12.541  0.00  0.00    +0.000 A 
ATOM     13  C   UNL     1      45.552   7.102  12.054  0.00  0.00    +0.000 A 
ATOM     14  S   UNL     1      43.994   6.765  11.452  0.00  0.00    +0.000 S 
ATOM     15  C   UNL     1      44.164   5.105  11.779  0.00  0.00    +0.000 A 
ATOM     16  N   UNL     1      43.177   4.227  11.460  0.00  0.00    +0.000 NA
ATOM     17  C   UNL     1      43.456   2.993  11.724  0.00  0.00    +0.000 A 
ATOM     18  N   UNL     1      44.628   2.561  12.291  0.00  0.00    +0.000 N 
ATOM     19  C   UNL     1      45.616   3.420  12.707  0.00  0.00    +0.000 A 
ATOM     20  O   UNL     1      46.578   3.015  13.343  0.00  0.00    +0.000 OA
ATOM     21  C   UNL     1      45.379   4.816  12.375  0.00  0.00    +0.000 A 
ATOM     22  H   UNL     1      44.766   1.584  12.506  0.00  0.00    +0.000 HD
ENDBRANCH   9  12
ENDBRANCH   7  10
ENDBRANCH   1   7
BRANCH   4  23
ATOM     23  C   UNL     1      49.138   8.123  18.985  0.00  0.00    +0.000 C 
BRANCH  23  24
ATOM     24  N   UNL     1      48.880   6.761  19.525  0.00  0.00    +0.000 NA
BRANCH  24  25
ATOM     25  C   UNL     1      48.609   6.824  20.984  0.00  0.00    +0.000 C 
BRANCH  25  26
ATOM     26  C   UNL     1      47.385   6.020  21.464  0.00  0.00    +0.000 C 
BRANCH  26  27
ATOM     27  O   UNL     1      47.771   4.698  21.836  0.00  0.00    +0.000 OA
ATOM     28  H   UNL     1      48.494   4.782  22.482  0.00  0.00    +0.000 HD
ENDBRANCH  26  27
ENDBRANCH  25  26
ENDBRANCH  24  25
BRANCH  24  29
ATOM     29  C   UNL     1      47.745   6.138  18.819  0.00  0.00    +0.000 C 
BRANCH  29  30
ATOM     30  C   UNL     1      48.077   4.882  18.052  0.00  0.00    +0.000 A 
ATOM     31  C   UNL     1      49.289   4.207  18.227  0.00  0.00    +0.000 A 
ATOM     32  C   UNL     1      49.510   3.006  17.558  0.00  0.00    +0.000 A 
ATOM     33  C   UNL     1      48.510   2.522  16.731  0.00  0.00    +0.000 A 
ATOM     34  N   UNL     1      47.334   3.152  16.524  0.00  0.00    +0.000 NA
ATOM     35  C   UNL     1      47.147   4.313  17.190  0.00  0.00    +0.000 A 
ENDBRANCH  29  30
ENDBRANCH  24  29
ENDBRANCH  23  24
ENDBRANCH   4  23
TORSDOF 10
ENDMDL
MODEL 6
REMARK VINA RESULT:    -6.335      3.125      8.142
REMARK INTER + INTRA:         -11.513
REMARK INTER:                  -9.753
REMARK INTRA:                  -1.761
REMARK UNBOUND:                -1.659
REMARK  Name = 
REMARK  10 active torsions:
REMARK  status: ('A' for Active; 'I' for Inactive)
REMARK    1  A    between atoms: C_2  and  C_23
REMARK    2  A    between atoms: N_3  and  C_4
REMARK    3  A    between atoms: C_4  and  C_5
REMARK    4  A    between atoms: C_8  and  C_9
REMARK    5  A    between atoms: C_9  and  N_10
REMARK    6  A    between atoms: N_10  and  C_11
REMARK    7  A    between atoms: N_10  and  C_14
REMARK    8  A    between atoms: C_11  and  C_12
REMARK    9  A    between atoms: C_12  and  O_13
REMARK   10  A    between atoms: C_14  and  C_15
REMARK                            x       y       z     vdW  Elec       q    Type
REMARK                         _______ _______ _______ _____ _____    ______ ____
ROOT
ATOM      1  C   UNL     1      49.066   7.508  13.531  0.00  0.00    +0.000 A 
ATOM      2  C   UNL     1      50.332   7.984  13.891  0.00  0.00    +0.000 A 
ATOM      3  C   UNL     1      50.848   7.723  15.158  0.00  0.00    +0.000 A 
ATOM      4  C   UNL     1      50.103   6.987  16.089  0.00  0.00    +0.000 A 
ATOM      5  C   UNL     1      48.892   6.408  15.687  0.00  0.00    +0.000 A 
ATOM      6  C   UNL     1      48.380   6.662  14.413  0.00  0.00    +0.000 A 
ENDROOT
BRANCH   1   7
ATOM      7  C   UNL     1      48.449   7.925  12.225  0.00  0.00    +0.000 C 
BRANCH   7  10
ATOM      8  O   UNL     1      45.665   7.904  11.870  0.00  0.00    +0.000 OA
ATOM      9  C   UNL     1      46.324   6.951  11.464  0.00  0.00    +0.000 C 
ATOM     10  N   UNL     1      47.680   6.867  11.636  0.00  0.00    +0.000 N 
ATOM     11  H   UNL     1      48.205   6.157  11.137  0.00  0.00    +0.000 HD
BRANCH   9  12
ATOM     12  C   UNL     1      45.683   5.798  10.819  0.00  0.00    +0.000 A 
ATOM     13  C   UNL     1      45.864   5.587   9.460  0.00  0.00    +0.000 A 
ATOM     14  S   UNL     1      45.043   4.214   8.871  0.00  0.00    +0.000 S 
ATOM     15  C   UNL     1      44.456   3.830  10.420  0.00  0.00    +0.000 A 
ATOM     16  N   UNL     1      43.696   2.721  10.622  0.00  0.00    +0.000 NA
ATOM     17  C   UNL     1      43.354   2.527  11.854  0.00  0.00    +0.000 A 
ATOM     18  N   UNL     1      43.691   3.351  12.896  0.00  0.00    +0.000 N 
ATOM     19  C   UNL     1      44.385   4.525  12.727  0.00  0.00    +0.000 A 
ATOM     20  O   UNL     1      44.538   5.307  13.653  0.00  0.00    +0.000 OA
ATOM     21  C   UNL     1      44.849   4.758  11.368  0.00  0.00    +0.000 A 
ATOM     22  H   UNL     1      43.358   3.161  13.831  0.00  0.00    +0.000 HD
ENDBRANCH   9  12
ENDBRANCH   7  10
ENDBRANCH   1   7
BRANCH   4  23
ATOM     23  C   UNL     1      50.572   6.890  17.527  0.00  0.00    +0.000 C 
BRANCH  23  24
ATOM     24  N   UNL     1      51.460   5.721  17.767  0.00  0.00    +0.000 NA
BRANCH  24  25
ATOM     25  C   UNL     1      52.741   6.160  18.377  0.00  0.00    +0.000 C 
BRANCH  25  26
ATOM     26  C   UNL     1      53.763   6.772  17.399  0.00  0.00    +0.000 C 
BRANCH  26  27
ATOM     27  O   UNL     1      53.816   6.013  16.192  0.00  0.00    +0.000 OA
ATOM     28  H   UNL     1      52.903   5.919  15.872  0.00  0.00    +0.000 HD
ENDBRANCH  26  27
ENDBRANCH  25  26
ENDBRANCH  24  25
BRANCH  24  29
ATOM     29  C   UNL     1      50.788   4.739  18.639  0.00  0.00    +0.000 C 
BRANCH  29  30
ATOM     30  C   UNL     1      49.918   3.736  17.922  0.00  0.00    +0.000 A 
ATOM     31  C   UNL     1      48.524   3.763  18.020  0.00  0.00    +0.000 A 
ATOM     32  C   UNL     1      47.764   2.868  17.271  0.00  0.00    +0.000 A 
ATOM     33  C   UNL     1      48.428   1.972  16.450  0.00  0.00    +0.000 A 
ATOM     34  N   UNL     1      49.771   1.904  16.340  0.00  0.00    +0.000 NA
ATOM     35  C   UNL     1      50.482   2.788  17.076  0.00  0.00    +0.000 A 
ENDBRANCH  29  30
ENDBRANCH  24  29
ENDBRANCH  23  24
ENDBRANCH   4  23
TORSDOF 10
ENDMDL
MODEL 7
REMARK VINA RESULT:    -6.283      2.866      8.360
REMARK INTER + INTRA:         -11.432
REMARK INTER:                  -9.664
REMARK INTRA:                  -1.769
REMARK UNBOUND:                -1.659
REMARK  Name = 
REMARK  10 active torsions:
REMARK  status: ('A' for Active; 'I' for Inactive)
REMARK    1  A    between atoms: C_2  and  C_23
REMARK    2  A    between atoms: N_3  and  C_4
REMARK    3  A    between atoms: C_4  and  C_5
REMARK    4  A    between atoms: C_8  and  C_9
REMARK    5  A    between atoms: C_9  and  N_10
REMARK    6  A    between atoms: N_10  and  C_11
REMARK    7  A    between atoms: N_10  and  C_14
REMARK    8  A    between atoms: C_11  and  C_12
REMARK    9  A    between atoms: C_12  and  O_13
REMARK   10  A    between atoms: C_14  and  C_15
REMARK                            x       y       z     vdW  Elec       q    Type
REMARK                         _______ _______ _______ _____ _____    ______ ____
ROOT
ATOM      1  C   UNL     1      48.334   8.011  13.408  0.00  0.00    +0.000 A 
ATOM      2  C   UNL     1      48.008   9.153  14.148  0.00  0.00    +0.000 A 
ATOM      3  C   UNL     1      48.334   9.233  15.500  0.00  0.00    +0.000 A 
ATOM      4  C   UNL     1      48.984   8.167  16.136  0.00  0.00    +0.000 A 
ATOM      5  C   UNL     1      49.417   7.078  15.369  0.00  0.00    +0.000 A 
ATOM      6  C   UNL     1      49.099   7.003  14.012  0.00  0.00    +0.000 A 
ENDROOT
BRANCH   1   7
ATOM      7  C   UNL     1      47.841   7.864  11.995  0.00  0.00    +0.000 C 
BRANCH   7  10
ATOM      8  O   UNL     1      45.106   7.520  12.518  0.00  0.00    +0.000 OA
ATOM      9  C   UNL     1      45.747   6.580  12.058  0.00  0.00    +0.000 C 
ATOM     10  N   UNL     1      47.091   6.654  11.814  0.00  0.00    +0.000 N 
ATOM     11  H   UNL     1      47.545   5.924  11.276  0.00  0.00    +0.000 HD
BRANCH   9  12
ATOM     12  C   UNL     1      45.115   5.280  11.797  0.00  0.00    +0.000 A 
ATOM     13  C   UNL     1      44.469   4.614  12.829  0.00  0.00    +0.000 A 
ATOM     14  S   UNL     1      43.802   3.117  12.360  0.00  0.00    +0.000 S 
ATOM     15  C   UNL     1      44.314   3.329  10.752  0.00  0.00    +0.000 A 
ATOM     16  N   UNL     1      44.024   2.403   9.801  0.00  0.00    +0.000 NA
ATOM     17  C   UNL     1      44.436   2.710   8.614  0.00  0.00    +0.000 A 
ATOM     18  N   UNL     1      45.124   3.854   8.299  0.00  0.00    +0.000 N 
ATOM     19  C   UNL     1      45.512   4.776   9.241  0.00  0.00    +0.000 A 
ATOM     20  O   UNL     1      46.251   5.704   8.949  0.00  0.00    +0.000 OA
ATOM     21  C   UNL     1      45.019   4.508  10.583  0.00  0.00    +0.000 A 
ATOM     22  H   UNL     1      45.450   4.014   7.357  0.00  0.00    +0.000 HD
ENDBRANCH   9  12
ENDBRANCH   7  10
ENDBRANCH   1   7
BRANCH   4  23
ATOM     23  C   UNL     1      49.142   8.168  17.644  0.00  0.00    +0.000 C 
BRANCH  23  24
ATOM     24  N   UNL     1      49.991   7.049  18.137  0.00  0.00    +0.000 NA
BRANCH  24  25
ATOM     25  C   UNL     1      51.108   7.572  18.964  0.00  0.00    +0.000 C 
BRANCH  25  26
ATOM     26  C   UNL     1      51.542   6.670  20.135  0.00  0.00    +0.000 C 
BRANCH  26  27
ATOM     27  O   UNL     1      51.885   7.459  21.273  0.00  0.00    +0.000 OA
ATOM     28  H   UNL     1      52.768   7.173  21.565  0.00  0.00    +0.000 HD
ENDBRANCH  26  27
ENDBRANCH  25  26
ENDBRANCH  24  25
BRANCH  24  29
ATOM     29  C   UNL     1      49.178   6.097  18.916  0.00  0.00    +0.000 C 
BRANCH  29  30
ATOM     30  C   UNL     1      48.720   4.875  18.159  0.00  0.00    +0.000 A 
ATOM     31  C   UNL     1      49.598   3.843  17.818  0.00  0.00    +0.000 A 
ATOM     32  C   UNL     1      49.107   2.699  17.194  0.00  0.00    +0.000 A 
ATOM     33  C   UNL     1      47.750   2.628  16.929  0.00  0.00    +0.000 A 
ATOM     34  N   UNL     1      46.873   3.609  17.228  0.00  0.00    +0.000 NA
ATOM     35  C   UNL     1      47.378   4.706  17.837  0.00  0.00    +0.000 A 
ENDBRANCH  29  30
ENDBRANCH  24  29
ENDBRANCH  23  24
ENDBRANCH   4  23
TORSDOF 10
ENDMDL
MODEL 8
REMARK VINA RESULT:    -6.153      1.890      2.745
REMARK INTER + INTRA:         -11.229
REMARK INTER:                  -9.298
REMARK INTRA:                  -1.931
REMARK UNBOUND:                -1.659
REMARK  Name = 
REMARK  10 active torsions:
REMARK  status: ('A' for Active; 'I' for Inactive)
REMARK    1  A    between atoms: C_2  and  C_23
REMARK    2  A    between atoms: N_3  and  C_4
REMARK    3  A    between atoms: C_4  and  C_5
REMARK    4  A    between atoms: C_8  and  C_9
REMARK    5  A    between atoms: C_9  and  N_10
REMARK    6  A    between atoms: N_10  and  C_11
REMARK    7  A    between atoms: N_10  and  C_14
REMARK    8  A    between atoms: C_11  and  C_12
REMARK    9  A    between atoms: C_12  and  O_13
REMARK   10  A    between atoms: C_14  and  C_15
REMARK                            x       y       z     vdW  Elec       q    Type
REMARK                         _______ _______ _______ _____ _____    ______ ____
ROOT
ATOM      1  C   UNL     1      49.283   8.698  13.459  0.00  0.00    +0.000 A 
ATOM      2  C   UNL     1      49.335   7.850  12.347  0.00  0.00    +0.000 A 
ATOM      3  C   UNL     1      48.160   7.422  11.733  0.00  0.00    +0.000 A 
ATOM      4  C   UNL     1      46.913   7.831  12.227  0.00  0.00    +0.000 A 
ATOM      5  C   UNL     1      46.866   8.775  13.260  0.00  0.00    +0.000 A 
ATOM      6  C   UNL     1      48.045   9.210  13.869  0.00  0.00    +0.000 A 
ENDROOT
BRANCH   1   7
ATOM      7  C   UNL     1      50.542   9.028  14.213  0.00  0.00    +0.000 C 
BRANCH   7  10
ATOM      8  O   UNL     1      49.946   9.941  16.798  0.00  0.00    +0.000 OA
ATOM      9  C   UNL     1      50.305   8.777  16.646  0.00  0.00    +0.000 C 
ATOM     10  N   UNL     1      50.653   8.267  15.424  0.00  0.00    +0.000 N 
ATOM     11  H   UNL     1      50.774   7.266  15.314  0.00  0.00    +0.000 HD
BRANCH   9  12
ATOM     12  C   UNL     1      50.448   7.866  17.788  0.00  0.00    +0.000 A 
ATOM     13  C   UNL     1      51.129   8.289  18.921  0.00  0.00    +0.000 A 
ATOM     14  S   UNL     1      51.212   7.107  20.146  0.00  0.00    +0.000 S 
ATOM     15  C   UNL     1      50.302   6.006  19.224  0.00  0.00    +0.000 A 
ATOM     16  N   UNL     1      49.977   4.783  19.721  0.00  0.00    +0.000 NA
ATOM     17  C   UNL     1      49.247   4.064  18.932  0.00  0.00    +0.000 A 
ATOM     18  N   UNL     1      48.828   4.454  17.686  0.00  0.00    +0.000 N 
ATOM     19  C   UNL     1      49.203   5.644  17.110  0.00  0.00    +0.000 A 
ATOM     20  O   UNL     1      48.936   5.893  15.944  0.00  0.00    +0.000 OA
ATOM     21  C   UNL     1      49.972   6.518  17.981  0.00  0.00    +0.000 A 
ATOM     22  H   UNL     1      48.291   3.827  17.104  0.00  0.00    +0.000 HD
ENDBRANCH   9  12
ENDBRANCH   7  10
ENDBRANCH   1   7
BRANCH   4  23
ATOM     23  C   UNL     1      45.644   7.196  11.694  0.00  0.00    +0.000 C 
BRANCH  23  24
ATOM     24  N   UNL     1      45.640   5.714  11.824  0.00  0.00    +0.000 NA
BRANCH  24  25
ATOM     25  C   UNL     1      45.456   5.319  13.244  0.00  0.00    +0.000 C 
BRANCH  25  26
ATOM     26  C   UNL     1      46.550   4.400  13.821  0.00  0.00    +0.000 C 
BRANCH  26  27
ATOM     27  O   UNL     1      46.537   4.442  15.247  0.00  0.00    +0.000 OA
ATOM     28  H   UNL     1      46.999   3.647  15.562  0.00  0.00    +0.000 HD
ENDBRANCH  26  27
ENDBRANCH  25  26
ENDBRANCH  24  25
BRANCH  24  29
ATOM     29  C   UNL     1      44.574   5.130  10.988  0.00  0.00    +0.000 C 
BRANCH  29  30
ATOM     30  C   UNL     1      45.055   4.276   9.840  0.00  0.00    +0.000 A 
ATOM     31  C   UNL     1      44.800   2.903   9.783  0.00  0.00    +0.000 A 
ATOM     32  C   UNL     1      45.192   2.178   8.660  0.00  0.00    +0.000 A 
ATOM     33  C   UNL     1      45.830   2.852   7.633  0.00  0.00    +0.000 A 
ATOM     34  N   UNL     1      46.107   4.172   7.658  0.00  0.00    +0.000 NA
ATOM     35  C   UNL     1      45.711   4.851   8.758  0.00  0.00    +0.000 A 
ENDBRANCH  29  30
ENDBRANCH  24  29
ENDBRANCH  23  24
ENDBRANCH   4  23
TORSDOF 10
ENDMDL
