MODEL 1
REMARK VINA RESULT:    -8.086      0.000      0.000
REMARK INTER + INTRA:         -11.550
REMARK INTER:                 -10.450
REMARK INTRA:                  -1.100
REMARK UNBOUND:                -1.100
REMARK  Name = 
REMARK  5 active torsions:
REMARK  status: ('A' for Active; 'I' for Inactive)
REMARK    1  A    between atoms: C_2  and  C_4
REMARK    2  A    between atoms: C_7  and  N_8
REMARK    3  A    between atoms: N_8  and  C_9
REMARK    4  A    between atoms: C_9  and  C_10
REMARK    5  A    between atoms: C_15  and  N_16
REMARK                            x       y       z     vdW  Elec       q    Type
REMARK                         _______ _______ _______ _____ _____    ______ ____
ROOT
ATOM      1  C   UNL     1      43.369   4.433  11.226  0.00  0.00    +0.000 C 
ENDROOT
BRANCH   1   2
ATOM      2  C   UNL     1      44.522   4.939  12.056  0.00  0.00    +0.000 A 
ATOM      3  C   UNL     1      45.284   4.065  12.831  0.00  0.00    +0.000 A 
ATOM      4  C   UNL     1      46.403   4.550  13.504  0.00  0.00    +0.000 A 
ATOM      5 CL   UNL     1      47.352   3.476  14.459  0.00  0.00    +0.000 Cl
ATOM      6  C   UNL     1      46.773   5.891  13.400  0.00  0.00    +0.000 A 
ATOM      7  C   UNL     1      46.040   6.800  12.622  0.00  0.00    +0.000 A 
ATOM      8  C   UNL     1      44.902   6.298  11.975  0.00  0.00    +0.000 A 
BRANCH   7   9
ATOM      9  N   UNL     1      46.429   8.128  12.547  0.00  0.00    +0.000 N 
ATOM     10  C   UNL     1      45.416   9.183  12.695  0.00  0.00    +0.000 C 
ATOM     11  C   UNL     1      45.750  10.324  11.734  0.00  0.00    +0.000 C 
ATOM     12  C   UNL     1      47.186  10.816  11.922  0.00  0.00    +0.000 C 
ATOM     13  C   UNL     1      48.184   9.658  11.888  0.00  0.00    +0.000 C 
ATOM     14  C   UNL     1      47.792   8.552  12.870  0.00  0.00    +0.000 C 
ENDBRANCH   7   9
ENDBRANCH   1   2
BRANCH   1  15
ATOM     15  N   UNL     1      43.638   4.630   9.812  0.00  0.00    +0.000 N 
ATOM     16  H   UNL     1      42.801   4.732   9.241  0.00  0.00    +0.000 HD
BRANCH  15  20
ATOM     17  C   UNL     1      46.598   2.542   7.647  0.00  0.00    +0.000 A 
ATOM     18  C   UNL     1      46.556   3.934   7.589  0.00  0.00    +0.000 A 
ATOM     19  C   UNL     1      45.608   4.640   8.338  0.00  0.00    +0.000 A 
ATOM     20  C   UNL     1      44.688   3.985   9.165  0.00  0.00    +0.000 A 
ATOM     21  C   UNL     1      44.735   2.583   9.199  0.00  0.00    +0.000 A 
ATOM     22  C   UNL     1      45.677   1.866   8.449  0.00  0.00    +0.000 A 
BRANCH  17  24
ATOM     23  N   UNL     1      48.731   2.389   6.486  0.00  0.00    +0.000 N 
ATOM     24  C   UNL     1      47.571   1.759   6.845  0.00  0.00    +0.000 C 
ATOM     25  O   UNL     1      47.368   0.590   6.540  0.00  0.00    +0.000 OA
ATOM     26  H   UNL     1      49.427   1.820   6.024  0.00  0.00    +0.000 HD
ATOM     27  H   UNL     1      49.039   3.247   6.921  0.00  0.00    +0.000 HD
ENDBRANCH  17  24
ENDBRANCH  15  20
ENDBRANCH   1  15
TORSDOF 5
ENDMDL
MODEL 2
REMARK VINA RESULT:    -7.929      2.472      4.108
REMARK INTER + INTRA:         -11.347
REMARK INTER:                 -10.477
REMARK INTRA:                  -0.869
REMARK UNBOUND:                -1.100
REMARK  Name = 
REMARK  5 active torsions:
REMARK  status: ('A' for Active; 'I' for Inactive)
REMARK    1  A    between atoms: C_2  and  C_4
REMARK    2  A    between atoms: C_7  and  N_8
REMARK    3  A    between atoms: N_8  and  C_9
REMARK    4  A    between atoms: C_9  and  C_10
REMARK    5  A    between atoms: C_15  and  N_16
REMARK                            x       y       z     vdW  Elec       q    Type
REMARK                         _______ _______ _______ _____ _____    ______ ____
ROOT
ATOM      1  C   UNL     1      44.479   4.668  11.724  0.00  0.00    +0.000 C 
ENDROOT
BRANCH   1   2
ATOM      2  C   UNL     1      45.747   5.228  12.319  0.00  0.00    +0.000 A 
ATOM      3  C   UNL     1      46.436   6.265  11.689  0.00  0.00    +0.000 A 
ATOM      4  C   UNL     1      47.545   6.826  12.317  0.00  0.00    +0.000 A 
ATOM      5 CL   UNL     1      48.398   8.110  11.548  0.00  0.00    +0.000 Cl
ATOM      6  C   UNL     1      47.962   6.372  13.568  0.00  0.00    +0.000 A 
ATOM      7  C   UNL     1      47.290   5.340  14.240  0.00  0.00    +0.000 A 
ATOM      8  C   UNL     1      46.193   4.770  13.578  0.00  0.00    +0.000 A 
BRANCH   7   9
ATOM      9  N   UNL     1      47.736   4.905  15.478  0.00  0.00    +0.000 N 
ATOM     10  C   UNL     1      48.519   5.819  16.322  0.00  0.00    +0.000 C 
ATOM     11  C   UNL     1      49.607   5.018  17.036  0.00  0.00    +0.000 C 
ATOM     12  C   UNL     1      49.023   3.825  17.794  0.00  0.00    +0.000 C 
ATOM     13  C   UNL     1      48.113   2.983  16.900  0.00  0.00    +0.000 C 
ATOM     14  C   UNL     1      47.048   3.844  16.216  0.00  0.00    +0.000 C 
ENDBRANCH   7   9
ENDBRANCH   1   2
BRANCH   1  15
ATOM     15  N   UNL     1      44.422   4.945  10.298  0.00  0.00    +0.000 N 
ATOM     16  H   UNL     1      43.537   5.340   9.988  0.00  0.00    +0.000 HD
BRANCH  15  20
ATOM     17  C   UNL     1      46.553   2.510   7.589  0.00  0.00    +0.000 A 
ATOM     18  C   UNL     1      45.754   1.917   8.565  0.00  0.00    +0.000 A 
ATOM     19  C   UNL     1      45.007   2.714   9.441  0.00  0.00    +0.000 A 
ATOM     20  C   UNL     1      45.029   4.112   9.363  0.00  0.00    +0.000 A 
ATOM     21  C   UNL     1      45.851   4.690   8.384  0.00  0.00    +0.000 A 
ATOM     22  C   UNL     1      46.606   3.902   7.506  0.00  0.00    +0.000 A 
BRANCH  17  24
ATOM     23  N   UNL     1      48.475   2.304   6.111  0.00  0.00    +0.000 N 
ATOM     24  C   UNL     1      47.380   1.697   6.663  0.00  0.00    +0.000 C 
ATOM     25  O   UNL     1      47.119   0.525   6.420  0.00  0.00    +0.000 OA
ATOM     26  H   UNL     1      49.084   1.715   5.559  0.00  0.00    +0.000 HD
ATOM     27  H   UNL     1      48.856   3.167   6.472  0.00  0.00    +0.000 HD
ENDBRANCH  17  24
ENDBRANCH  15  20
ENDBRANCH   1  15
TORSDOF 5
ENDMDL
MODEL 3
REMARK VINA RESULT:    -7.880      1.034      1.629
REMARK INTER + INTRA:         -11.283
REMARK INTER:                 -10.340
REMARK INTRA:                  -0.943
REMARK UNBOUND:                -1.100
REMARK  Name = 
REMARK  5 active torsions:
REMARK  status: ('A' for Active; 'I' for Inactive)
REMARK    1  A    between atoms: C_2  and  C_4
REMARK    2  A    between atoms: C_7  and  N_8
REMARK    3  A    between atoms: N_8  and  C_9
REMARK    4  A    between atoms: C_9  and  C_10
REMARK    5  A    between atoms: C_15  and  N_16
REMARK                            x       y       z     vdW  Elec       q    Type
REMARK                         _______ _______ _______ _____ _____    ______ ____
ROOT
ATOM      1  C   UNL     1      44.078   5.346  10.787  0.00  0.00    +0.000 C 
ENDROOT
BRANCH   1   2
ATOM      2  C   UNL     1      45.246   5.504  11.727  0.00  0.00    +0.000 A 
ATOM      3  C   UNL     1      45.554   4.513  12.660  0.00  0.00    +0.000 A 
ATOM      4  C   UNL     1      46.699   4.645  13.442  0.00  0.00    +0.000 A 
ATOM      5 CL   UNL     1      47.088   3.423  14.592  0.00  0.00    +0.000 Cl
ATOM      6  C   UNL     1      47.542   5.746  13.292  0.00  0.00    +0.000 A 
ATOM      7  C   UNL     1      47.275   6.758  12.358  0.00  0.00    +0.000 A 
ATOM      8  C   UNL     1      46.103   6.620  11.600  0.00  0.00    +0.000 A 
BRANCH   7   9
ATOM      9  N   UNL     1      48.128   7.844  12.240  0.00  0.00    +0.000 N 
ATOM     10  C   UNL     1      47.608   9.197  12.484  0.00  0.00    +0.000 C 
ATOM     11  C   UNL     1      48.258  10.160  11.492  0.00  0.00    +0.000 C 
ATOM     12  C   UNL     1      49.785  10.068  11.535  0.00  0.00    +0.000 C 
ATOM     13  C   UNL     1      50.263   8.622  11.407  0.00  0.00    +0.000 C 
ATOM     14  C   UNL     1      49.575   7.712  12.426  0.00  0.00    +0.000 C 
ENDBRANCH   7   9
ENDBRANCH   1   2
BRANCH   1  15
ATOM     15  N   UNL     1      43.940   3.958  10.380  0.00  0.00    +0.000 N 
ATOM     16  H   UNL     1      43.732   3.320  11.146  0.00  0.00    +0.000 HD
BRANCH  15  20
ATOM     17  C   UNL     1      46.606   2.409   7.499  0.00  0.00    +0.000 A 
ATOM     18  C   UNL     1      45.947   1.538   8.365  0.00  0.00    +0.000 A 
ATOM     19  C   UNL     1      45.026   2.035   9.294  0.00  0.00    +0.000 A 
ATOM     20  C   UNL     1      44.733   3.402   9.380  0.00  0.00    +0.000 A 
ATOM     21  C   UNL     1      45.417   4.264   8.511  0.00  0.00    +0.000 A 
ATOM     22  C   UNL     1      46.344   3.778   7.580  0.00  0.00    +0.000 A 
BRANCH  17  24
ATOM     23  N   UNL     1      48.720   2.696   6.328  0.00  0.00    +0.000 N 
ATOM     24  C   UNL     1      47.609   1.921   6.519  0.00  0.00    +0.000 C 
ATOM     25  O   UNL     1      47.472   0.858   5.927  0.00  0.00    +0.000 OA
ATOM     26  H   UNL     1      49.440   2.309   5.733  0.00  0.00    +0.000 HD
ATOM     27  H   UNL     1      48.983   3.433   6.966  0.00  0.00    +0.000 HD
ENDBRANCH  17  24
ENDBRANCH  15  20
ENDBRANCH   1  15
TORSDOF 5
ENDMDL
MODEL 4
REMARK VINA RESULT:    -7.651      1.543      2.230
REMARK INTER + INTRA:         -10.988
REMARK INTER:                  -9.977
REMARK INTRA:                  -1.010
REMARK UNBOUND:                -1.100
REMARK  Name = 
REMARK  5 active torsions:
REMARK  status: ('A' for Active; 'I' for Inactive)
REMARK    1  A    between atoms: C_2  and  C_4
REMARK    2  A    between atoms: C_7  and  N_8
REMARK    3  A    between atoms: N_8  and  C_9
REMARK    4  A    between atoms: C_9  and  C_10
REMARK    5  A    between atoms: C_15  and  N_16
REMARK                            x       y       z     vdW  Elec       q    Type
REMARK                         _______ _______ _______ _____ _____    ______ ____
ROOT
ATOM      1  C   UNL     1      44.152   4.285  11.727  0.00  0.00    +0.000 C 
ENDROOT
BRANCH   1   2
ATOM      2  C   UNL     1      44.957   5.536  11.974  0.00  0.00    +0.000 A 
ATOM      3  C   UNL     1      46.252   5.463  12.489  0.00  0.00    +0.000 A 
ATOM      4  C   UNL     1      47.004   6.628  12.609  0.00  0.00    +0.000 A 
ATOM      5 CL   UNL     1      48.605   6.546  13.240  0.00  0.00    +0.000 Cl
ATOM      6  C   UNL     1      46.484   7.858  12.207  0.00  0.00    +0.000 A 
ATOM      7  C   UNL     1      45.192   7.973  11.672  0.00  0.00    +0.000 A 
ATOM      8  C   UNL     1      44.440   6.792  11.587  0.00  0.00    +0.000 A 
BRANCH   7   9
ATOM      9  N   UNL     1      44.700   9.211  11.291  0.00  0.00    +0.000 N 
ATOM     10  C   UNL     1      43.300   9.327  10.859  0.00  0.00    +0.000 C 
ATOM     11  C   UNL     1      43.222  10.329   9.708  0.00  0.00    +0.000 C 
ATOM     12  C   UNL     1      43.866  11.666  10.079  0.00  0.00    +0.000 C 
ATOM     13  C   UNL     1      45.273  11.472  10.644  0.00  0.00    +0.000 C 
ATOM     14  C   UNL     1      45.281  10.459  11.791  0.00  0.00    +0.000 C 
ENDBRANCH   7   9
ENDBRANCH   1   2
BRANCH   1  15
ATOM     15  N   UNL     1      43.779   4.191  10.325  0.00  0.00    +0.000 N 
ATOM     16  H   UNL     1      42.785   4.039  10.170  0.00  0.00    +0.000 HD
BRANCH  15  20
ATOM     17  C   UNL     1      46.524   2.421   7.653  0.00  0.00    +0.000 A 
ATOM     18  C   UNL     1      45.712   1.609   8.444  0.00  0.00    +0.000 A 
ATOM     19  C   UNL     1      44.767   2.183   9.301  0.00  0.00    +0.000 A 
ATOM     20  C   UNL     1      44.599   3.571   9.387  0.00  0.00    +0.000 A 
ATOM     21  C   UNL     1      45.435   4.372   8.595  0.00  0.00    +0.000 A 
ATOM     22  C   UNL     1      46.389   3.807   7.737  0.00  0.00    +0.000 A 
BRANCH  17  24
ATOM     23  N   UNL     1      48.530   2.697   6.303  0.00  0.00    +0.000 N 
ATOM     24  C   UNL     1      47.557   1.847   6.754  0.00  0.00    +0.000 C 
ATOM     25  O   UNL     1      47.564   0.661   6.449  0.00  0.00    +0.000 OA
ATOM     26  H   UNL     1      49.280   2.278   5.771  0.00  0.00    +0.000 HD
ATOM     27  H   UNL     1      48.699   3.600   6.722  0.00  0.00    +0.000 HD
ENDBRANCH  17  24
ENDBRANCH  15  20
ENDBRANCH   1  15
TORSDOF 5
ENDMDL
MODEL 5
REMARK VINA RESULT:    -7.632      2.140      3.057
REMARK INTER + INTRA:         -10.963
REMARK INTER:                 -10.033
REMARK INTRA:                  -0.929
REMARK UNBOUND:                -1.100
REMARK  Name = 
REMARK  5 active torsions:
REMARK  status: ('A' for Active; 'I' for Inactive)
REMARK    1  A    between atoms: C_2  and  C_4
REMARK    2  A    between atoms: C_7  and  N_8
REMARK    3  A    between atoms: N_8  and  C_9
REMARK    4  A    between atoms: C_9  and  C_10
REMARK    5  A    between atoms: C_15  and  N_16
REMARK                            x       y       z     vdW  Elec       q    Type
REMARK                         _______ _______ _______ _____ _____    ______ ____
ROOT
ATOM      1  C   UNL     1      44.328   4.339  11.644  0.00  0.00    +0.000 C 
ENDROOT
BRANCH   1   2
ATOM      2  C   UNL     1      45.016   5.672  11.799  0.00  0.00    +0.000 A 
ATOM      3  C   UNL     1      44.381   6.854  11.419  0.00  0.00    +0.000 A 
ATOM      4  C   UNL     1      45.003   8.074  11.671  0.00  0.00    +0.000 A 
ATOM      5 CL   UNL     1      44.223   9.538  11.208  0.00  0.00    +0.000 Cl
ATOM      6  C   UNL     1      46.243   8.124  12.308  0.00  0.00    +0.000 A 
ATOM      7  C   UNL     1      46.909   6.959  12.717  0.00  0.00    +0.000 A 
ATOM      8  C   UNL     1      46.278   5.740  12.429  0.00  0.00    +0.000 A 
BRANCH   7   9
ATOM      9  N   UNL     1      48.145   7.042  13.340  0.00  0.00    +0.000 N 
ATOM     10  C   UNL     1      48.325   6.432  14.665  0.00  0.00    +0.000 C 
ATOM     11  C   UNL     1      49.233   7.333  15.501  0.00  0.00    +0.000 C 
ATOM     12  C   UNL     1      50.546   7.637  14.778  0.00  0.00    +0.000 C 
ATOM     13  C   UNL     1      50.299   8.146  13.358  0.00  0.00    +0.000 C 
ATOM     14  C   UNL     1      49.384   7.201  12.576  0.00  0.00    +0.000 C 
ENDBRANCH   7   9
ENDBRANCH   1   2
BRANCH   1  15
ATOM     15  N   UNL     1      43.883   4.155  10.272  0.00  0.00    +0.000 N 
ATOM     16  H   UNL     1      42.892   3.939  10.184  0.00  0.00    +0.000 HD
BRANCH  15  20
ATOM     17  C   UNL     1      46.572   2.432   7.515  0.00  0.00    +0.000 A 
ATOM     18  C   UNL     1      45.900   1.615   8.423  0.00  0.00    +0.000 A 
ATOM     19  C   UNL     1      44.972   2.169   9.312  0.00  0.00    +0.000 A 
ATOM     20  C   UNL     1      44.684   3.539   9.315  0.00  0.00    +0.000 A 
ATOM     21  C   UNL     1      45.381   4.347   8.404  0.00  0.00    +0.000 A 
ATOM     22  C   UNL     1      46.316   3.804   7.513  0.00  0.00    +0.000 A 
BRANCH  17  24
ATOM     23  N   UNL     1      48.696   2.646   6.346  0.00  0.00    +0.000 N 
ATOM     24  C   UNL     1      47.583   1.884   6.576  0.00  0.00    +0.000 C 
ATOM     25  O   UNL     1      47.451   0.786   6.050  0.00  0.00    +0.000 OA
ATOM     26  H   UNL     1      49.421   2.223   5.782  0.00  0.00    +0.000 HD
ATOM     27  H   UNL     1      48.954   3.422   6.939  0.00  0.00    +0.000 HD
ENDBRANCH  17  24
ENDBRANCH  15  20
ENDBRANCH   1  15
TORSDOF 5
ENDMDL
MODEL 6
REMARK VINA RESULT:    -6.396      5.454      8.023
REMARK INTER + INTRA:          -9.366
REMARK INTER:                  -8.532
REMARK INTRA:                  -0.834
REMARK UNBOUND:                -1.100
REMARK  Name = 
REMARK  5 active torsions:
REMARK  status: ('A' for Active; 'I' for Inactive)
REMARK    1  A    between atoms: C_2  and  C_4
REMARK    2  A    between atoms: C_7  and  N_8
REMARK    3  A    between atoms: N_8  and  C_9
REMARK    4  A    between atoms: C_9  and  C_10
REMARK    5  A    between atoms: C_15  and  N_16
REMARK                            x       y       z     vdW  Elec       q    Type
REMARK                         _______ _______ _______ _____ _____    ______ ____
ROOT
ATOM      1  C   UNL     1      47.339   4.057  16.330  0.00  0.00    +0.000 C 
ENDROOT
BRANCH   1   2
ATOM      2  C   UNL     1      47.317   4.918  15.092  0.00  0.00    +0.000 A 
ATOM      3  C   UNL     1      48.186   6.001  14.959  0.00  0.00    +0.000 A 
ATOM      4  C   UNL     1      48.210   6.712  13.762  0.00  0.00    +0.000 A 
ATOM      5 CL   UNL     1      49.283   8.048  13.587  0.00  0.00    +0.000 Cl
ATOM      6  C   UNL     1      47.388   6.344  12.697  0.00  0.00    +0.000 A 
ATOM      7  C   UNL     1      46.509   5.254  12.786  0.00  0.00    +0.000 A 
ATOM      8  C   UNL     1      46.480   4.569  14.009  0.00  0.00    +0.000 A 
BRANCH   7   9
ATOM      9  N   UNL     1      45.698   4.920  11.713  0.00  0.00    +0.000 N 
ATOM     10  C   UNL     1      44.564   4.009  11.925  0.00  0.00    +0.000 C 
ATOM     11  C   UNL     1      44.434   3.095  10.707  0.00  0.00    +0.000 C 
ATOM     12  C   UNL     1      44.347   3.896   9.407  0.00  0.00    +0.000 C 
ATOM     13  C   UNL     1      45.479   4.918   9.303  0.00  0.00    +0.000 C 
ATOM     14  C   UNL     1      45.555   5.799  10.551  0.00  0.00    +0.000 C 
ENDBRANCH   7   9
ENDBRANCH   1   2
BRANCH   1  15
ATOM     15  N   UNL     1      48.390   4.494  17.234  0.00  0.00    +0.000 N 
ATOM     16  H   UNL     1      48.572   5.495  17.203  0.00  0.00    +0.000 HD
BRANCH  15  20
ATOM     17  C   UNL     1      51.855   2.121  17.642  0.00  0.00    +0.000 A 
ATOM     18  C   UNL     1      51.887   3.459  18.032  0.00  0.00    +0.000 A 
ATOM     19  C   UNL     1      50.732   4.244  17.944  0.00  0.00    +0.000 A 
ATOM     20  C   UNL     1      49.521   3.720  17.476  0.00  0.00    +0.000 A 
ATOM     21  C   UNL     1      49.512   2.376  17.074  0.00  0.00    +0.000 A 
ATOM     22  C   UNL     1      50.664   1.583  17.153  0.00  0.00    +0.000 A 
BRANCH  17  24
ATOM     23  N   UNL     1      52.917   0.004  18.200  0.00  0.00    +0.000 N 
ATOM     24  C   UNL     1      53.068   1.266  17.695  0.00  0.00    +0.000 C 
ATOM     25  O   UNL     1      54.153   1.654  17.279  0.00  0.00    +0.000 OA
ATOM     26  H   UNL     1      53.725  -0.601  18.143  0.00  0.00    +0.000 HD
ATOM     27  H   UNL     1      52.012  -0.429  18.316  0.00  0.00    +0.000 HD
ENDBRANCH  17  24
ENDBRANCH  15  20
ENDBRANCH   1  15
TORSDOF 5
ENDMDL
MODEL 7
REMARK VINA RESULT:    -6.317      5.301      8.034
REMARK INTER + INTRA:          -9.264
REMARK INTER:                  -8.318
REMARK INTRA:                  -0.946
REMARK UNBOUND:                -1.100
REMARK  Name = 
REMARK  5 active torsions:
REMARK  status: ('A' for Active; 'I' for Inactive)
REMARK    1  A    between atoms: C_2  and  C_4
REMARK    2  A    between atoms: C_7  and  N_8
REMARK    3  A    between atoms: N_8  and  C_9
REMARK    4  A    between atoms: C_9  and  C_10
REMARK    5  A    between atoms: C_15  and  N_16
REMARK                            x       y       z     vdW  Elec       q    Type
REMARK                         _______ _______ _______ _____ _____    ______ ____
ROOT
ATOM      1  C   UNL     1      49.207   7.004  16.450  0.00  0.00    +0.000 C 
ENDROOT
BRANCH   1   2
ATOM      2  C   UNL     1      48.959   7.046  14.963  0.00  0.00    +0.000 A 
ATOM      3  C   UNL     1      49.877   7.647  14.101  0.00  0.00    +0.000 A 
ATOM      4  C   UNL     1      49.666   7.579  12.726  0.00  0.00    +0.000 A 
ATOM      5 CL   UNL     1      50.797   8.315  11.655  0.00  0.00    +0.000 Cl
ATOM      6  C   UNL     1      48.560   6.907  12.206  0.00  0.00    +0.000 A 
ATOM      7  C   UNL     1      47.620   6.279  13.038  0.00  0.00    +0.000 A 
ATOM      8  C   UNL     1      47.836   6.384  14.420  0.00  0.00    +0.000 A 
BRANCH   7   9
ATOM      9  N   UNL     1      46.526   5.628  12.491  0.00  0.00    +0.000 N 
ATOM     10  C   UNL     1      45.787   4.653  13.306  0.00  0.00    +0.000 C 
ATOM     11  C   UNL     1      45.357   3.491  12.413  0.00  0.00    +0.000 C 
ATOM     12  C   UNL     1      44.587   3.978  11.185  0.00  0.00    +0.000 C 
ATOM     13  C   UNL     1      45.345   5.083  10.450  0.00  0.00    +0.000 C 
ATOM     14  C   UNL     1      45.747   6.214  11.399  0.00  0.00    +0.000 C 
ENDBRANCH   7   9
ENDBRANCH   1   2
BRANCH   1  15
ATOM     15  N   UNL     1      48.729   5.750  17.008  0.00  0.00    +0.000 N 
ATOM     16  H   UNL     1      47.970   5.858  17.678  0.00  0.00    +0.000 HD
BRANCH  15  20
ATOM     17  C   UNL     1      51.319   2.465  17.562  0.00  0.00    +0.000 A 
ATOM     18  C   UNL     1      51.819   3.762  17.673  0.00  0.00    +0.000 A 
ATOM     19  C   UNL     1      50.960   4.859  17.536  0.00  0.00    +0.000 A 
ATOM     20  C   UNL     1      49.591   4.696  17.296  0.00  0.00    +0.000 A 
ATOM     21  C   UNL     1      49.110   3.384  17.173  0.00  0.00    +0.000 A 
ATOM     22  C   UNL     1      49.961   2.279  17.303  0.00  0.00    +0.000 A 
BRANCH  17  24
ATOM     23  N   UNL     1      51.644   0.127  18.155  0.00  0.00    +0.000 N 
ATOM     24  C   UNL     1      52.205   1.279  17.674  0.00  0.00    +0.000 C 
ATOM     25  O   UNL     1      53.378   1.311  17.325  0.00  0.00    +0.000 OA
ATOM     26  H   UNL     1      52.228  -0.698  18.136  0.00  0.00    +0.000 HD
ATOM     27  H   UNL     1      50.644  -0.005  18.214  0.00  0.00    +0.000 HD
ENDBRANCH  17  24
ENDBRANCH  15  20
ENDBRANCH   1  15
TORSDOF 5
ENDMDL
MODEL 8
REMARK VINA RESULT:    -6.291      3.297      6.974
REMARK INTER + INTRA:          -9.230
REMARK INTER:                  -8.385
REMARK INTRA:                  -0.844
REMARK UNBOUND:                -1.100
REMARK  Name = 
REMARK  5 active torsions:
REMARK  status: ('A' for Active; 'I' for Inactive)
REMARK    1  A    between atoms: C_2  and  C_4
REMARK    2  A    between atoms: C_7  and  N_8
REMARK    3  A    between atoms: N_8  and  C_9
REMARK    4  A    between atoms: C_9  and  C_10
REMARK    5  A    between atoms: C_15  and  N_16
REMARK                            x       y       z     vdW  Elec       q    Type
REMARK                         _______ _______ _______ _____ _____    ______ ____
ROOT
ATOM      1  C   UNL     1      46.427   4.212  13.894  0.00  0.00    +0.000 C 
ENDROOT
BRANCH   1   2
ATOM      2  C   UNL     1      45.462   4.225  12.735  0.00  0.00    +0.000 A 
ATOM      3  C   UNL     1      44.230   4.871  12.837  0.00  0.00    +0.000 A 
ATOM      4  C   UNL     1      43.408   4.951  11.716  0.00  0.00    +0.000 A 
ATOM      5 CL   UNL     1      41.887   5.751  11.833  0.00  0.00    +0.000 Cl
ATOM      6  C   UNL     1      43.809   4.406  10.496  0.00  0.00    +0.000 A 
ATOM      7  C   UNL     1      45.045   3.759  10.349  0.00  0.00    +0.000 A 
ATOM      8  C   UNL     1      45.846   3.664  11.497  0.00  0.00    +0.000 A 
BRANCH   7   9
ATOM      9  N   UNL     1      45.410   3.219   9.126  0.00  0.00    +0.000 N 
ATOM     10  C   UNL     1      45.172   1.791   8.870  0.00  0.00    +0.000 C 
ATOM     11  C   UNL     1      46.343   1.235   8.061  0.00  0.00    +0.000 C 
ATOM     12  C   UNL     1      46.594   2.056   6.795  0.00  0.00    +0.000 C 
ATOM     13  C   UNL     1      46.705   3.548   7.107  0.00  0.00    +0.000 C 
ATOM     14  C   UNL     1      45.504   4.041   7.917  0.00  0.00    +0.000 C 
ENDBRANCH   7   9
ENDBRANCH   1   2
BRANCH   1  15
ATOM     15  N   UNL     1      46.640   5.561  14.392  0.00  0.00    +0.000 N 
ATOM     16  H   UNL     1      45.783   6.050  14.642  0.00  0.00    +0.000 HD
BRANCH  15  20
ATOM     17  C   UNL     1      49.861   7.815  12.859  0.00  0.00    +0.000 A 
ATOM     18  C   UNL     1      48.808   7.459  12.017  0.00  0.00    +0.000 A 
ATOM     19  C   UNL     1      47.712   6.751  12.525  0.00  0.00    +0.000 A 
ATOM     20  C   UNL     1      47.632   6.387  13.874  0.00  0.00    +0.000 A 
ATOM     21  C   UNL     1      48.709   6.742  14.702  0.00  0.00    +0.000 A 
ATOM     22  C   UNL     1      49.812   7.446  14.204  0.00  0.00    +0.000 A 
BRANCH  17  24
ATOM     23  N   UNL     1      52.277   8.016  12.651  0.00  0.00    +0.000 N 
ATOM     24  C   UNL     1      51.051   8.542  12.350  0.00  0.00    +0.000 C 
ATOM     25  O   UNL     1      50.949   9.552  11.664  0.00  0.00    +0.000 OA
ATOM     26  H   UNL     1      53.075   8.462  12.221  0.00  0.00    +0.000 HD
ATOM     27  H   UNL     1      52.393   7.072  12.991  0.00  0.00    +0.000 HD
ENDBRANCH  17  24
ENDBRANCH  15  20
ENDBRANCH   1  15
TORSDOF 5
ENDMDL
MODEL 9
REMARK VINA RESULT:    -6.224      4.066      6.450
REMARK INTER + INTRA:          -9.143
REMARK INTER:                  -8.239
REMARK INTRA:                  -0.905
REMARK UNBOUND:                -1.100
REMARK  Name = 
REMARK  5 active torsions:
REMARK  status: ('A' for Active; 'I' for Inactive)
REMARK    1  A    between atoms: C_2  and  C_4
REMARK    2  A    between atoms: C_7  and  N_8
REMARK    3  A    between atoms: N_8  and  C_9
REMARK    4  A    between atoms: C_9  and  C_10
REMARK    5  A    between atoms: C_15  and  N_16
REMARK                            x       y       z     vdW  Elec       q    Type
REMARK                         _______ _______ _______ _____ _____    ______ ____
ROOT
ATOM      1  C   UNL     1      47.948   7.995  13.588  0.00  0.00    +0.000 C 
ENDROOT
BRANCH   1   2
ATOM      2  C   UNL     1      48.399   7.710  14.998  0.00  0.00    +0.000 A 
ATOM      3  C   UNL     1      48.402   8.716  15.965  0.00  0.00    +0.000 A 
ATOM      4  C   UNL     1      48.727   8.396  17.281  0.00  0.00    +0.000 A 
ATOM      5 CL   UNL     1      48.729   9.631  18.481  0.00  0.00    +0.000 Cl
ATOM      6  C   UNL     1      49.033   7.083  17.641  0.00  0.00    +0.000 A 
ATOM      7  C   UNL     1      49.029   6.041  16.701  0.00  0.00    +0.000 A 
ATOM      8  C   UNL     1      48.727   6.390  15.377  0.00  0.00    +0.000 A 
BRANCH   7   9
ATOM      9  N   UNL     1      49.347   4.749  17.089  0.00  0.00    +0.000 N 
ATOM     10  C   UNL     1      50.488   4.529  17.990  0.00  0.00    +0.000 C 
ATOM     11  C   UNL     1      51.209   3.250  17.566  0.00  0.00    +0.000 C 
ATOM     12  C   UNL     1      50.250   2.062  17.484  0.00  0.00    +0.000 C 
ATOM     13  C   UNL     1      49.019   2.393  16.641  0.00  0.00    +0.000 C 
ATOM     14  C   UNL     1      48.344   3.682  17.116  0.00  0.00    +0.000 C 
ENDBRANCH   7   9
ENDBRANCH   1   2
BRANCH   1  15
ATOM     15  N   UNL     1      46.535   7.691  13.436  0.00  0.00    +0.000 N 
ATOM     16  H   UNL     1      45.969   7.937  14.246  0.00  0.00    +0.000 HD
BRANCH  15  20
ATOM     17  C   UNL     1      44.902   4.299  11.529  0.00  0.00    +0.000 A 
ATOM     18  C   UNL     1      45.293   5.397  10.765  0.00  0.00    +0.000 A 
ATOM     19  C   UNL     1      45.877   6.510  11.381  0.00  0.00    +0.000 A 
ATOM     20  C   UNL     1      46.094   6.556  12.763  0.00  0.00    +0.000 A 
ATOM     21  C   UNL     1      45.681   5.447  13.518  0.00  0.00    +0.000 A 
ATOM     22  C   UNL     1      45.090   4.331  12.912  0.00  0.00    +0.000 A 
BRANCH  17  24
ATOM     23  N   UNL     1      44.979   2.422   9.983  0.00  0.00    +0.000 N 
ATOM     24  C   UNL     1      44.254   3.114  10.914  0.00  0.00    +0.000 C 
ATOM     25  O   UNL     1      43.132   2.747  11.240  0.00  0.00    +0.000 OA
ATOM     26  H   UNL     1      44.568   1.563   9.641  0.00  0.00    +0.000 HD
ATOM     27  H   UNL     1      45.976   2.541   9.874  0.00  0.00    +0.000 HD
ENDBRANCH  17  24
ENDBRANCH  15  20
ENDBRANCH   1  15
TORSDOF 5
ENDMDL
