MODEL 1
REMARK VINA RESULT:    -8.765      0.000      0.000
REMARK INTER + INTRA:         -12.928
REMARK INTER:                 -11.839
REMARK INTRA:                  -1.089
REMARK UNBOUND:                -1.089
REMARK  Name = 
REMARK  6 active torsions:
REMARK  status: ('A' for Active; 'I' for Inactive)
REMARK    1  A    between atoms: C_2  and  C_4
REMARK    2  A    between atoms: C_7  and  C_8
REMARK    3  A    between atoms: C_8  and  C_9
REMARK    4  A    between atoms: C_12  and  C_13
REMARK    5  A    between atoms: C_13  and  N_14
REMARK    6  A    between atoms: C_15  and  C_17
REMARK                            x       y       z     vdW  Elec       q    Type
REMARK                         _______ _______ _______ _____ _____    ______ ____
ROOT
ATOM      1  C   UNL     1      44.813   5.394  11.211  0.00  0.00    +0.000 A 
ATOM      2  C   UNL     1      44.483   6.754  11.277  0.00  0.00    +0.000 A 
ATOM      3  C   UNL     1      45.228   7.630  12.073  0.00  0.00    +0.000 A 
ATOM      4  C   UNL     1      46.325   7.164  12.809  0.00  0.00    +0.000 A 
ATOM      5  C   UNL     1      46.616   5.793  12.791  0.00  0.00    +0.000 A 
ATOM      6  C   UNL     1      45.873   4.920  11.993  0.00  0.00    +0.000 A 
ENDROOT
BRANCH   1   7
ATOM      7  C   UNL     1      44.073   4.464  10.277  0.00  0.00    +0.000 C 
BRANCH   7  11
ATOM      8  C   UNL     1      46.642   2.459   7.432  0.00  0.00    +0.000 A 
ATOM      9  C   UNL     1      46.553   3.854   7.432  0.00  0.00    +0.000 A 
ATOM     10  C   UNL     1      45.715   4.502   8.346  0.00  0.00    +0.000 A 
ATOM     11  C   UNL     1      44.974   3.764   9.282  0.00  0.00    +0.000 A 
ATOM     12  C   UNL     1      45.074   2.364   9.271  0.00  0.00    +0.000 A 
ATOM     13  C   UNL     1      45.903   1.714   8.351  0.00  0.00    +0.000 A 
BRANCH   8  15
ATOM     14  N   UNL     1      48.614   2.371   6.048  0.00  0.00    +0.000 NA
ATOM     15  C   UNL     1      47.535   1.780   6.448  0.00  0.00    +0.000 C 
ATOM     16  N   UNL     1      47.208   0.547   5.958  0.00  0.00    +0.000 N 
ATOM     17  H   UNL     1      49.130   1.759   5.414  0.00  0.00    +0.000 HD
ATOM     18  H   UNL     1      47.646   0.300   5.079  0.00  0.00    +0.000 HD
ATOM     19  H   UNL     1      46.213   0.339   5.947  0.00  0.00    +0.000 HD
ENDBRANCH   8  15
ENDBRANCH   7  11
ENDBRANCH   1   7
BRANCH   4  20
ATOM     20  C   UNL     1      47.180   8.111  13.607  0.00  0.00    +0.000 C 
BRANCH  20  21
ATOM     21  N   UNL     1      47.651   7.508  14.825  0.00  0.00    +0.000 N 
ATOM     22  C   UNL     1      48.904   6.955  14.897  0.00  0.00    +0.000 C 
ATOM     23  O   UNL     1      49.691   7.004  13.953  0.00  0.00    +0.000 OA
ATOM     24  H   UNL     1      46.950   7.254  15.515  0.00  0.00    +0.000 HD
BRANCH  22  25
ATOM     25  C   UNL     1      49.285   6.347  16.178  0.00  0.00    +0.000 A 
ATOM     26  C   UNL     1      50.343   6.882  16.901  0.00  0.00    +0.000 A 
ATOM     27  S   UNL     1      50.619   6.100  18.390  0.00  0.00    +0.000 S 
ATOM     28  C   UNL     1      49.368   4.985  18.097  0.00  0.00    +0.000 A 
ATOM     29  N   UNL     1      49.084   4.001  18.992  0.00  0.00    +0.000 NA
ATOM     30  C   UNL     1      48.136   3.206  18.628  0.00  0.00    +0.000 A 
ATOM     31  N   UNL     1      47.440   3.306  17.451  0.00  0.00    +0.000 N 
ATOM     32  C   UNL     1      47.674   4.299  16.529  0.00  0.00    +0.000 A 
ATOM     33  O   UNL     1      47.008   4.384  15.503  0.00  0.00    +0.000 OA
ATOM     34  C   UNL     1      48.736   5.216  16.888  0.00  0.00    +0.000 A 
ATOM     35  H   UNL     1      46.703   2.652  17.228  0.00  0.00    +0.000 HD
ENDBRANCH  22  25
ENDBRANCH  20  21
ENDBRANCH   4  20
TORSDOF 6
ENDMDL
MODEL 2
REMARK VINA RESULT:    -8.176      1.809      2.289
REMARK INTER + INTRA:         -12.133
REMARK INTER:                 -10.896
REMARK INTRA:                  -1.237
REMARK UNBOUND:                -1.089
REMARK  Name = 
REMARK  6 active torsions:
REMARK  status: ('A' for Active; 'I' for Inactive)
REMARK    1  A    between atoms: C_2  and  C_4
REMARK    2  A    between atoms: C_7  and  C_8
REMARK    3  A    between atoms: C_8  and  C_9
REMARK    4  A    between atoms: C_12  and  C_13
REMARK    5  A    between atoms: C_13  and  N_14
REMARK    6  A    between atoms: C_15  and  C_17
REMARK                            x       y       z     vdW  Elec       q    Type
REMARK                         _______ _______ _______ _____ _____    ______ ____
ROOT
ATOM      1  C   UNL     1      45.035   5.439  11.292  0.00  0.00    +0.000 A 
ATOM      2  C   UNL     1      45.046   6.825  11.083  0.00  0.00    +0.000 A 
ATOM      3  C   UNL     1      45.862   7.655  11.859  0.00  0.00    +0.000 A 
ATOM      4  C   UNL     1      46.690   7.114  12.849  0.00  0.00    +0.000 A 
ATOM      5  C   UNL     1      46.632   5.737  13.100  0.00  0.00    +0.000 A 
ATOM      6  C   UNL     1      45.819   4.907  12.323  0.00  0.00    +0.000 A 
ENDROOT
BRANCH   1   7
ATOM      7  C   UNL     1      44.230   4.529  10.393  0.00  0.00    +0.000 C 
BRANCH   7  11
ATOM      8  C   UNL     1      46.619   2.458   7.440  0.00  0.00    +0.000 A 
ATOM      9  C   UNL     1      46.537   3.853   7.420  0.00  0.00    +0.000 A 
ATOM     10  C   UNL     1      45.758   4.522   8.369  0.00  0.00    +0.000 A 
ATOM     11  C   UNL     1      45.068   3.806   9.360  0.00  0.00    +0.000 A 
ATOM     12  C   UNL     1      45.159   2.405   9.368  0.00  0.00    +0.000 A 
ATOM     13  C   UNL     1      45.930   1.734   8.413  0.00  0.00    +0.000 A 
BRANCH   8  15
ATOM     14  N   UNL     1      47.177   0.532   6.103  0.00  0.00    +0.000 NA
ATOM     15  C   UNL     1      47.450   1.756   6.418  0.00  0.00    +0.000 C 
ATOM     16  N   UNL     1      48.505   2.395   5.830  0.00  0.00    +0.000 N 
ATOM     17  H   UNL     1      47.807   0.215   5.365  0.00  0.00    +0.000 HD
ATOM     18  H   UNL     1      49.207   1.789   5.425  0.00  0.00    +0.000 HD
ATOM     19  H   UNL     1      48.929   3.130   6.391  0.00  0.00    +0.000 HD
ENDBRANCH   8  15
ENDBRANCH   7  11
ENDBRANCH   1   7
BRANCH   4  20
ATOM     20  C   UNL     1      47.629   7.989  13.636  0.00  0.00    +0.000 C 
BRANCH  20  21
ATOM     21  N   UNL     1      47.762   7.542  14.997  0.00  0.00    +0.000 N 
ATOM     22  C   UNL     1      48.944   7.015  15.451  0.00  0.00    +0.000 C 
ATOM     23  O   UNL     1      49.946   6.959  14.740  0.00  0.00    +0.000 OA
ATOM     24  H   UNL     1      46.904   7.365  15.510  0.00  0.00    +0.000 HD
BRANCH  22  25
ATOM     25  C   UNL     1      48.973   6.569  16.849  0.00  0.00    +0.000 A 
ATOM     26  C   UNL     1      49.344   5.263  17.144  0.00  0.00    +0.000 A 
ATOM     27  S   UNL     1      49.383   4.923  18.814  0.00  0.00    +0.000 S 
ATOM     28  C   UNL     1      48.856   6.494  19.200  0.00  0.00    +0.000 A 
ATOM     29  N   UNL     1      48.656   6.865  20.493  0.00  0.00    +0.000 NA
ATOM     30  C   UNL     1      48.222   8.072  20.640  0.00  0.00    +0.000 A 
ATOM     31  N   UNL     1      47.975   8.944  19.612  0.00  0.00    +0.000 N 
ATOM     32  C   UNL     1      48.187   8.621  18.292  0.00  0.00    +0.000 A 
ATOM     33  O   UNL     1      47.992   9.438  17.398  0.00  0.00    +0.000 OA
ATOM     34  C   UNL     1      48.669   7.273  18.073  0.00  0.00    +0.000 A 
ATOM     35  H   UNL     1      47.640   9.880  19.796  0.00  0.00    +0.000 HD
ENDBRANCH  22  25
ENDBRANCH  20  21
ENDBRANCH   4  20
TORSDOF 6
ENDMDL
MODEL 3
REMARK VINA RESULT:    -7.847      3.864      4.983
REMARK INTER + INTRA:         -11.689
REMARK INTER:                 -10.310
REMARK INTRA:                  -1.379
REMARK UNBOUND:                -1.089
REMARK  Name = 
REMARK  6 active torsions:
REMARK  status: ('A' for Active; 'I' for Inactive)
REMARK    1  A    between atoms: C_2  and  C_4
REMARK    2  A    between atoms: C_7  and  C_8
REMARK    3  A    between atoms: C_8  and  C_9
REMARK    4  A    between atoms: C_12  and  C_13
REMARK    5  A    between atoms: C_13  and  N_14
REMARK    6  A    between atoms: C_15  and  C_17
REMARK                            x       y       z     vdW  Elec       q    Type
REMARK                         _______ _______ _______ _____ _____    ______ ____
ROOT
ATOM      1  C   UNL     1      44.668   5.223  11.083  0.00  0.00    +0.000 A 
ATOM      2  C   UNL     1      45.801   5.106  11.899  0.00  0.00    +0.000 A 
ATOM      3  C   UNL     1      46.292   6.214  12.599  0.00  0.00    +0.000 A 
ATOM      4  C   UNL     1      45.652   7.455  12.504  0.00  0.00    +0.000 A 
ATOM      5  C   UNL     1      44.557   7.587  11.640  0.00  0.00    +0.000 A 
ATOM      6  C   UNL     1      44.065   6.480  10.944  0.00  0.00    +0.000 A 
ENDROOT
BRANCH   1   7
ATOM      7  C   UNL     1      44.076   4.010  10.404  0.00  0.00    +0.000 C 
BRANCH   7  11
ATOM      8  C   UNL     1      46.609   2.344   7.317  0.00  0.00    +0.000 A 
ATOM      9  C   UNL     1      46.406   3.725   7.385  0.00  0.00    +0.000 A 
ATOM     10  C   UNL     1      45.580   4.263   8.378  0.00  0.00    +0.000 A 
ATOM     11  C   UNL     1      44.965   3.429   9.324  0.00  0.00    +0.000 A 
ATOM     12  C   UNL     1      45.178   2.043   9.244  0.00  0.00    +0.000 A 
ATOM     13  C   UNL     1      45.996   1.503   8.246  0.00  0.00    +0.000 A 
BRANCH   8  15
ATOM     14  N   UNL     1      48.521   2.452   5.853  0.00  0.00    +0.000 NA
ATOM     15  C   UNL     1      47.489   1.783   6.250  0.00  0.00    +0.000 C 
ATOM     16  N   UNL     1      47.196   0.575   5.681  0.00  0.00    +0.000 N 
ATOM     17  H   UNL     1      49.036   1.914   5.155  0.00  0.00    +0.000 HD
ATOM     18  H   UNL     1      47.606   0.415   4.770  0.00  0.00    +0.000 HD
ATOM     19  H   UNL     1      46.212   0.321   5.695  0.00  0.00    +0.000 HD
ENDBRANCH   8  15
ENDBRANCH   7  11
ENDBRANCH   1   7
BRANCH   4  20
ATOM     20  C   UNL     1      46.126   8.633  13.312  0.00  0.00    +0.000 C 
BRANCH  20  21
ATOM     21  N   UNL     1      47.456   9.037  12.939  0.00  0.00    +0.000 N 
ATOM     22  C   UNL     1      47.656   9.992  11.976  0.00  0.00    +0.000 C 
ATOM     23  O   UNL     1      46.719  10.581  11.440  0.00  0.00    +0.000 OA
ATOM     24  H   UNL     1      48.215   8.411  13.192  0.00  0.00    +0.000 HD
BRANCH  22  25
ATOM     25  C   UNL     1      49.050  10.321  11.653  0.00  0.00    +0.000 A 
ATOM     26  C   UNL     1      49.413  11.648  11.464  0.00  0.00    +0.000 A 
ATOM     27  S   UNL     1      51.076  11.865  11.154  0.00  0.00    +0.000 S 
ATOM     28  C   UNL     1      51.359  10.189  11.210  0.00  0.00    +0.000 A 
ATOM     29  N   UNL     1      52.604   9.683  10.997  0.00  0.00    +0.000 NA
ATOM     30  C   UNL     1      52.669   8.395  11.034  0.00  0.00    +0.000 A 
ATOM     31  N   UNL     1      51.604   7.564  11.269  0.00  0.00    +0.000 N 
ATOM     32  C   UNL     1      50.334   8.031  11.515  0.00  0.00    +0.000 A 
ATOM     33  O   UNL     1      49.410   7.262  11.759  0.00  0.00    +0.000 OA
ATOM     34  C   UNL     1      50.206   9.473  11.478  0.00  0.00    +0.000 A 
ATOM     35  H   UNL     1      51.724   6.561  11.290  0.00  0.00    +0.000 HD
ENDBRANCH  22  25
ENDBRANCH  20  21
ENDBRANCH   4  20
TORSDOF 6
ENDMDL
MODEL 4
REMARK VINA RESULT:    -7.693      1.697      2.138
REMARK INTER + INTRA:         -11.480
REMARK INTER:                 -10.344
REMARK INTRA:                  -1.136
REMARK UNBOUND:                -1.089
REMARK  Name = 
REMARK  6 active torsions:
REMARK  status: ('A' for Active; 'I' for Inactive)
REMARK    1  A    between atoms: C_2  and  C_4
REMARK    2  A    between atoms: C_7  and  C_8
REMARK    3  A    between atoms: C_8  and  C_9
REMARK    4  A    between atoms: C_12  and  C_13
REMARK    5  A    between atoms: C_13  and  N_14
REMARK    6  A    between atoms: C_15  and  C_17
REMARK                            x       y       z     vdW  Elec       q    Type
REMARK                         _______ _______ _______ _____ _____    ______ ____
ROOT
ATOM      1  C   UNL     1      44.706   4.917  11.272  0.00  0.00    +0.000 A 
ATOM      2  C   UNL     1      44.207   6.221  11.157  0.00  0.00    +0.000 A 
ATOM      3  C   UNL     1      44.808   7.278  11.849  0.00  0.00    +0.000 A 
ATOM      4  C   UNL     1      45.928   7.051  12.659  0.00  0.00    +0.000 A 
ATOM      5  C   UNL     1      46.389   5.738  12.823  0.00  0.00    +0.000 A 
ATOM      6  C   UNL     1      45.789   4.684  12.129  0.00  0.00    +0.000 A 
ENDROOT
BRANCH   1   7
ATOM      7  C   UNL     1      44.122   3.791  10.452  0.00  0.00    +0.000 C 
BRANCH   7  11
ATOM      8  C   UNL     1      46.667   2.519   7.192  0.00  0.00    +0.000 A 
ATOM      9  C   UNL     1      46.394   3.877   7.377  0.00  0.00    +0.000 A 
ATOM     10  C   UNL     1      45.563   4.288   8.426  0.00  0.00    +0.000 A 
ATOM     11  C   UNL     1      45.014   3.348   9.312  0.00  0.00    +0.000 A 
ATOM     12  C   UNL     1      45.297   1.987   9.114  0.00  0.00    +0.000 A 
ATOM     13  C   UNL     1      46.118   1.574   8.060  0.00  0.00    +0.000 A 
BRANCH   8  15
ATOM     14  N   UNL     1      47.917   0.857   5.973  0.00  0.00    +0.000 NA
ATOM     15  C   UNL     1      47.549   2.094   6.067  0.00  0.00    +0.000 C 
ATOM     16  N   UNL     1      47.984   3.008   5.148  0.00  0.00    +0.000 N 
ATOM     17  H   UNL     1      48.478   0.725   5.131  0.00  0.00    +0.000 HD
ATOM     18  H   UNL     1      48.816   2.746   4.636  0.00  0.00    +0.000 HD
ATOM     19  H   UNL     1      48.044   3.964   5.489  0.00  0.00    +0.000 HD
ENDBRANCH   8  15
ENDBRANCH   7  11
ENDBRANCH   1   7
BRANCH   4  20
ATOM     20  C   UNL     1      46.629   8.192  13.346  0.00  0.00    +0.000 C 
BRANCH  20  21
ATOM     21  N   UNL     1      47.962   7.833  13.752  0.00  0.00    +0.000 N 
ATOM     22  C   UNL     1      48.493   8.313  14.922  0.00  0.00    +0.000 C 
ATOM     23  O   UNL     1      47.839   9.012  15.694  0.00  0.00    +0.000 OA
ATOM     24  H   UNL     1      48.579   7.464  13.035  0.00  0.00    +0.000 HD
BRANCH  22  25
ATOM     25  C   UNL     1      49.866   7.904  15.239  0.00  0.00    +0.000 A 
ATOM     26  C   UNL     1      50.933   8.615  14.703  0.00  0.00    +0.000 A 
ATOM     27  S   UNL     1      52.458   8.049  15.214  0.00  0.00    +0.000 S 
ATOM     28  C   UNL     1      51.749   6.802  16.128  0.00  0.00    +0.000 A 
ATOM     29  N   UNL     1      52.517   5.916  16.816  0.00  0.00    +0.000 NA
ATOM     30  C   UNL     1      51.851   5.002  17.437  0.00  0.00    +0.000 A 
ATOM     31  N   UNL     1      50.484   4.895  17.437  0.00  0.00    +0.000 N 
ATOM     32  C   UNL     1      49.667   5.783  16.779  0.00  0.00    +0.000 A 
ATOM     33  O   UNL     1      48.445   5.681  16.831  0.00  0.00    +0.000 OA
ATOM     34  C   UNL     1      50.367   6.826  16.060  0.00  0.00    +0.000 A 
ATOM     35  H   UNL     1      50.023   4.156  17.951  0.00  0.00    +0.000 HD
ENDBRANCH  22  25
ENDBRANCH  20  21
ENDBRANCH   4  20
TORSDOF 6
ENDMDL
MODEL 5
REMARK VINA RESULT:    -7.467      3.807      8.522
REMARK INTER + INTRA:         -11.175
REMARK INTER:                 -10.067
REMARK INTRA:                  -1.108
REMARK UNBOUND:                -1.089
REMARK  Name = 
REMARK  6 active torsions:
REMARK  status: ('A' for Active; 'I' for Inactive)
REMARK    1  A    between atoms: C_2  and  C_4
REMARK    2  A    between atoms: C_7  and  C_8
REMARK    3  A    between atoms: C_8  and  C_9
REMARK    4  A    between atoms: C_12  and  C_13
REMARK    5  A    between atoms: C_13  and  N_14
REMARK    6  A    between atoms: C_15  and  C_17
REMARK                            x       y       z     vdW  Elec       q    Type
REMARK                         _______ _______ _______ _____ _____    ______ ____
ROOT
ATOM      1  C   UNL     1      49.492   5.842  16.873  0.00  0.00    +0.000 A 
ATOM      2  C   UNL     1      48.319   5.434  16.225  0.00  0.00    +0.000 A 
ATOM      3  C   UNL     1      47.986   5.945  14.966  0.00  0.00    +0.000 A 
ATOM      4  C   UNL     1      48.827   6.864  14.327  0.00  0.00    +0.000 A 
ATOM      5  C   UNL     1      49.968   7.318  15.001  0.00  0.00    +0.000 A 
ATOM      6  C   UNL     1      50.301   6.806  16.258  0.00  0.00    +0.000 A 
ENDROOT
BRANCH   1   7
ATOM      7  C   UNL     1      49.905   5.220  18.187  0.00  0.00    +0.000 C 
BRANCH   7  11
ATOM      8  C   UNL     1      52.233   1.602  17.737  0.00  0.00    +0.000 A 
ATOM      9  C   UNL     1      50.892   1.623  17.346  0.00  0.00    +0.000 A 
ATOM     10  C   UNL     1      50.136   2.791  17.500  0.00  0.00    +0.000 A 
ATOM     11  C   UNL     1      50.719   3.953  18.027  0.00  0.00    +0.000 A 
ATOM     12  C   UNL     1      52.068   3.918  18.415  0.00  0.00    +0.000 A 
ATOM     13  C   UNL     1      52.821   2.748  18.272  0.00  0.00    +0.000 A 
BRANCH   8  15
ATOM     14  N   UNL     1      52.977  -0.565  18.486  0.00  0.00    +0.000 NA
ATOM     15  C   UNL     1      53.027   0.349  17.572  0.00  0.00    +0.000 C 
ATOM     16  N   UNL     1      53.817   0.173  16.471  0.00  0.00    +0.000 N 
ATOM     17  H   UNL     1      53.538  -1.369  18.203  0.00  0.00    +0.000 HD
ATOM     18  H   UNL     1      54.561  -0.505  16.576  0.00  0.00    +0.000 HD
ATOM     19  H   UNL     1      54.155   1.031  16.043  0.00  0.00    +0.000 HD
ENDBRANCH   8  15
ENDBRANCH   7  11
ENDBRANCH   1   7
BRANCH   4  20
ATOM     20  C   UNL     1      48.518   7.360  12.940  0.00  0.00    +0.000 C 
BRANCH  20  21
ATOM     21  N   UNL     1      47.746   6.405  12.191  0.00  0.00    +0.000 N 
ATOM     22  C   UNL     1      46.466   6.693  11.792  0.00  0.00    +0.000 C 
ATOM     23  O   UNL     1      45.951   7.789  12.003  0.00  0.00    +0.000 OA
ATOM     24  H   UNL     1      48.059   5.439  12.216  0.00  0.00    +0.000 HD
BRANCH  22  25
ATOM     25  C   UNL     1      45.755   5.645  11.049  0.00  0.00    +0.000 A 
ATOM     26  C   UNL     1      45.828   5.621   9.662  0.00  0.00    +0.000 A 
ATOM     27  S   UNL     1      44.997   4.311   8.956  0.00  0.00    +0.000 S 
ATOM     28  C   UNL     1      44.467   3.759  10.475  0.00  0.00    +0.000 A 
ATOM     29  N   UNL     1      43.673   2.660  10.582  0.00  0.00    +0.000 NA
ATOM     30  C   UNL     1      43.317   2.374  11.789  0.00  0.00    +0.000 A 
ATOM     31  N   UNL     1      43.686   3.085  12.901  0.00  0.00    +0.000 N 
ATOM     32  C   UNL     1      44.508   4.185  12.844  0.00  0.00    +0.000 A 
ATOM     33  O   UNL     1      44.851   4.776  13.864  0.00  0.00    +0.000 OA
ATOM     34  C   UNL     1      44.931   4.553  11.509  0.00  0.00    +0.000 A 
ATOM     35  H   UNL     1      43.376   2.803  13.822  0.00  0.00    +0.000 HD
ENDBRANCH  22  25
ENDBRANCH  20  21
ENDBRANCH   4  20
TORSDOF 6
ENDMDL
MODEL 6
REMARK VINA RESULT:    -7.456      2.169      3.026
REMARK INTER + INTRA:         -11.161
REMARK INTER:                 -10.105
REMARK INTRA:                  -1.055
REMARK UNBOUND:                -1.089
REMARK  Name = 
REMARK  6 active torsions:
REMARK  status: ('A' for Active; 'I' for Inactive)
REMARK    1  A    between atoms: C_2  and  C_4
REMARK    2  A    between atoms: C_7  and  C_8
REMARK    3  A    between atoms: C_8  and  C_9
REMARK    4  A    between atoms: C_12  and  C_13
REMARK    5  A    between atoms: C_13  and  N_14
REMARK    6  A    between atoms: C_15  and  C_17
REMARK                            x       y       z     vdW  Elec       q    Type
REMARK                         _______ _______ _______ _____ _____    ______ ____
ROOT
ATOM      1  C   UNL     1      44.867   5.583  11.128  0.00  0.00    +0.000 A 
ATOM      2  C   UNL     1      45.951   5.222  11.939  0.00  0.00    +0.000 A 
ATOM      3  C   UNL     1      46.577   6.169  12.756  0.00  0.00    +0.000 A 
ATOM      4  C   UNL     1      46.121   7.493  12.787  0.00  0.00    +0.000 A 
ATOM      5  C   UNL     1      45.077   7.868  11.931  0.00  0.00    +0.000 A 
ATOM      6  C   UNL     1      44.451   6.921  11.117  0.00  0.00    +0.000 A 
ENDROOT
BRANCH   1   7
ATOM      7  C   UNL     1      44.127   4.543  10.319  0.00  0.00    +0.000 C 
BRANCH   7  11
ATOM      8  C   UNL     1      46.631   2.507   7.438  0.00  0.00    +0.000 A 
ATOM      9  C   UNL     1      45.909   1.770   8.381  0.00  0.00    +0.000 A 
ATOM     10  C   UNL     1      45.106   2.430   9.318  0.00  0.00    +0.000 A 
ATOM     11  C   UNL     1      45.001   3.829   9.310  0.00  0.00    +0.000 A 
ATOM     12  C   UNL     1      45.732   4.556   8.357  0.00  0.00    +0.000 A 
ATOM     13  C   UNL     1      46.543   3.899   7.426  0.00  0.00    +0.000 A 
BRANCH   8  15
ATOM     14  N   UNL     1      48.532   2.381   5.962  0.00  0.00    +0.000 NA
ATOM     15  C   UNL     1      47.488   1.792   6.447  0.00  0.00    +0.000 C 
ATOM     16  N   UNL     1      47.162   0.529   6.039  0.00  0.00    +0.000 N 
ATOM     17  H   UNL     1      49.029   1.746   5.335  0.00  0.00    +0.000 HD
ATOM     18  H   UNL     1      47.561   0.244   5.153  0.00  0.00    +0.000 HD
ATOM     19  H   UNL     1      46.173   0.302   6.090  0.00  0.00    +0.000 HD
ENDBRANCH   8  15
ENDBRANCH   7  11
ENDBRANCH   1   7
BRANCH   4  20
ATOM     20  C   UNL     1      46.736   8.501  13.720  0.00  0.00    +0.000 C 
BRANCH  20  21
ATOM     21  N   UNL     1      47.643   7.883  14.652  0.00  0.00    +0.000 N 
ATOM     22  C   UNL     1      48.743   8.557  15.114  0.00  0.00    +0.000 C 
ATOM     23  O   UNL     1      48.967   9.726  14.804  0.00  0.00    +0.000 OA
ATOM     24  H   UNL     1      47.605   6.871  14.729  0.00  0.00    +0.000 HD
BRANCH  22  25
ATOM     25  C   UNL     1      49.617   7.834  16.046  0.00  0.00    +0.000 A 
ATOM     26  C   UNL     1      49.119   7.435  17.280  0.00  0.00    +0.000 A 
ATOM     27  S   UNL     1      50.240   6.557  18.219  0.00  0.00    +0.000 S 
ATOM     28  C   UNL     1      51.446   6.725  17.031  0.00  0.00    +0.000 A 
ATOM     29  N   UNL     1      52.690   6.210  17.221  0.00  0.00    +0.000 NA
ATOM     30  C   UNL     1      53.516   6.440  16.256  0.00  0.00    +0.000 A 
ATOM     31  N   UNL     1      53.211   7.136  15.116  0.00  0.00    +0.000 N 
ATOM     32  C   UNL     1      51.960   7.652  14.869  0.00  0.00    +0.000 A 
ATOM     33  O   UNL     1      51.709   8.237  13.820  0.00  0.00    +0.000 OA
ATOM     34  C   UNL     1      50.996   7.426  15.926  0.00  0.00    +0.000 A 
ATOM     35  H   UNL     1      53.904   7.277  14.394  0.00  0.00    +0.000 HD
ENDBRANCH  22  25
ENDBRANCH  20  21
ENDBRANCH   4  20
TORSDOF 6
ENDMDL
MODEL 7
REMARK VINA RESULT:    -7.234      3.499      5.337
REMARK INTER + INTRA:         -10.861
REMARK INTER:                  -9.758
REMARK INTRA:                  -1.103
REMARK UNBOUND:                -1.089
REMARK  Name = 
REMARK  6 active torsions:
REMARK  status: ('A' for Active; 'I' for Inactive)
REMARK    1  A    between atoms: C_2  and  C_4
REMARK    2  A    between atoms: C_7  and  C_8
REMARK    3  A    between atoms: C_8  and  C_9
REMARK    4  A    between atoms: C_12  and  C_13
REMARK    5  A    between atoms: C_13  and  N_14
REMARK    6  A    between atoms: C_15  and  C_17
REMARK                            x       y       z     vdW  Elec       q    Type
REMARK                         _______ _______ _______ _____ _____    ______ ____
ROOT
ATOM      1  C   UNL     1      44.673   4.325  11.170  0.00  0.00    +0.000 A 
ATOM      2  C   UNL     1      44.356   5.660  10.890  0.00  0.00    +0.000 A 
ATOM      3  C   UNL     1      44.947   6.700  11.616  0.00  0.00    +0.000 A 
ATOM      4  C   UNL     1      45.876   6.423  12.626  0.00  0.00    +0.000 A 
ATOM      5  C   UNL     1      46.146   5.086  12.947  0.00  0.00    +0.000 A 
ATOM      6  C   UNL     1      45.557   4.048  12.221  0.00  0.00    +0.000 A 
ENDROOT
BRANCH   1   7
ATOM      7  C   UNL     1      44.112   3.204  10.325  0.00  0.00    +0.000 C 
BRANCH   7  11
ATOM      8  C   UNL     1      46.508   2.296   6.839  0.00  0.00    +0.000 A 
ATOM      9  C   UNL     1      45.918   3.556   6.973  0.00  0.00    +0.000 A 
ATOM     10  C   UNL     1      45.136   3.846   8.097  0.00  0.00    +0.000 A 
ATOM     11  C   UNL     1      44.952   2.889   9.105  0.00  0.00    +0.000 A 
ATOM     12  C   UNL     1      45.550   1.627   8.957  0.00  0.00    +0.000 A 
ATOM     13  C   UNL     1      46.324   1.331   7.830  0.00  0.00    +0.000 A 
BRANCH   8  15
ATOM     14  N   UNL     1      48.616   1.868   5.753  0.00  0.00    +0.000 NA
ATOM     15  C   UNL     1      47.335   1.996   5.634  0.00  0.00    +0.000 C 
ATOM     16  N   UNL     1      46.746   1.876   4.406  0.00  0.00    +0.000 N 
ATOM     17  H   UNL     1      49.026   1.624   4.850  0.00  0.00    +0.000 HD
ATOM     18  H   UNL     1      47.363   2.012   3.615  0.00  0.00    +0.000 HD
ATOM     19  H   UNL     1      45.879   2.393   4.294  0.00  0.00    +0.000 HD
ENDBRANCH   8  15
ENDBRANCH   7  11
ENDBRANCH   1   7
BRANCH   4  20
ATOM     20  C   UNL     1      46.576   7.536  13.359  0.00  0.00    +0.000 C 
BRANCH  20  21
ATOM     21  N   UNL     1      47.608   8.138  12.557  0.00  0.00    +0.000 N 
ATOM     22  C   UNL     1      48.914   8.134  12.973  0.00  0.00    +0.000 C 
ATOM     23  O   UNL     1      49.265   7.568  14.007  0.00  0.00    +0.000 OA
ATOM     24  H   UNL     1      47.311   8.795  11.842  0.00  0.00    +0.000 HD
BRANCH  22  25
ATOM     25  C   UNL     1      49.889   8.790  12.093  0.00  0.00    +0.000 A 
ATOM     26  C   UNL     1      51.082   8.144  11.791  0.00  0.00    +0.000 A 
ATOM     27  S   UNL     1      52.076   9.013  10.713  0.00  0.00    +0.000 S 
ATOM     28  C   UNL     1      50.971  10.305  10.652  0.00  0.00    +0.000 A 
ATOM     29  N   UNL     1      51.233  11.413   9.908  0.00  0.00    +0.000 NA
ATOM     30  C   UNL     1      50.327  12.330   9.980  0.00  0.00    +0.000 A 
ATOM     31  N   UNL     1      49.180  12.239  10.725  0.00  0.00    +0.000 N 
ATOM     32  C   UNL     1      48.862  11.129  11.471  0.00  0.00    +0.000 A 
ATOM     33  O   UNL     1      47.809  11.064  12.097  0.00  0.00    +0.000 OA
ATOM     34  C   UNL     1      49.851  10.071  11.429  0.00  0.00    +0.000 A 
ATOM     35  H   UNL     1      48.507  12.993  10.734  0.00  0.00    +0.000 HD
ENDBRANCH  22  25
ENDBRANCH  20  21
ENDBRANCH   4  20
TORSDOF 6
ENDMDL
MODEL 8
REMARK VINA RESULT:    -6.972      3.095      9.133
REMARK INTER + INTRA:         -10.506
REMARK INTER:                  -9.168
REMARK INTRA:                  -1.338
REMARK UNBOUND:                -1.089
REMARK  Name = 
REMARK  6 active torsions:
REMARK  status: ('A' for Active; 'I' for Inactive)
REMARK    1  A    between atoms: C_2  and  C_4
REMARK    2  A    between atoms: C_7  and  C_8
REMARK    3  A    between atoms: C_8  and  C_9
REMARK    4  A    between atoms: C_12  and  C_13
REMARK    5  A    between atoms: C_13  and  N_14
REMARK    6  A    between atoms: C_15  and  C_17
REMARK                            x       y       z     vdW  Elec       q    Type
REMARK                         _______ _______ _______ _____ _____    ______ ____
ROOT
ATOM      1  C   UNL     1      49.725   8.581  15.512  0.00  0.00    +0.000 A 
ATOM      2  C   UNL     1      48.836   9.540  15.009  0.00  0.00    +0.000 A 
ATOM      3  C   UNL     1      48.283   9.399  13.732  0.00  0.00    +0.000 A 
ATOM      4  C   UNL     1      48.600   8.289  12.939  0.00  0.00    +0.000 A 
ATOM      5  C   UNL     1      49.535   7.362  13.417  0.00  0.00    +0.000 A 
ATOM      6  C   UNL     1      50.085   7.503  14.694  0.00  0.00    +0.000 A 
ENDROOT
BRANCH   1   7
ATOM      7  C   UNL     1      50.248   8.678  16.926  0.00  0.00    +0.000 C 
BRANCH   7  11
ATOM      8  C   UNL     1      48.884   5.469  19.488  0.00  0.00    +0.000 A 
ATOM      9  C   UNL     1      50.239   5.814  19.459  0.00  0.00    +0.000 A 
ATOM     10  C   UNL     1      50.681   6.846  18.625  0.00  0.00    +0.000 A 
ATOM     11  C   UNL     1      49.772   7.556  17.825  0.00  0.00    +0.000 A 
ATOM     12  C   UNL     1      48.415   7.199  17.863  0.00  0.00    +0.000 A 
ATOM     13  C   UNL     1      47.973   6.161  18.689  0.00  0.00    +0.000 A 
BRANCH   8  15
ATOM     14  N   UNL     1      48.093   4.622  21.601  0.00  0.00    +0.000 NA
ATOM     15  C   UNL     1      48.426   4.363  20.378  0.00  0.00    +0.000 C 
ATOM     16  N   UNL     1      48.375   3.079  19.912  0.00  0.00    +0.000 N 
ATOM     17  H   UNL     1      47.765   3.771  22.058  0.00  0.00    +0.000 HD
ATOM     18  H   UNL     1      48.390   2.360  20.623  0.00  0.00    +0.000 HD
ATOM     19  H   UNL     1      49.025   2.870  19.159  0.00  0.00    +0.000 HD
ENDBRANCH   8  15
ENDBRANCH   7  11
ENDBRANCH   1   7
BRANCH   4  20
ATOM     20  C   UNL     1      47.950   8.088  11.596  0.00  0.00    +0.000 C 
BRANCH  20  21
ATOM     21  N   UNL     1      47.184   6.870  11.550  0.00  0.00    +0.000 N 
ATOM     22  C   UNL     1      45.817   6.897  11.650  0.00  0.00    +0.000 C 
ATOM     23  O   UNL     1      45.190   7.952  11.721  0.00  0.00    +0.000 OA
ATOM     24  H   UNL     1      47.684   6.005  11.728  0.00  0.00    +0.000 HD
BRANCH  22  25
ATOM     25  C   UNL     1      45.128   5.601  11.612  0.00  0.00    +0.000 A 
ATOM     26  C   UNL     1      44.468   5.143  12.745  0.00  0.00    +0.000 A 
ATOM     27  S   UNL     1      43.672   3.653  12.519  0.00  0.00    +0.000 S 
ATOM     28  C   UNL     1      44.224   3.541  10.913  0.00  0.00    +0.000 A 
ATOM     29  N   UNL     1      43.914   2.466  10.140  0.00  0.00    +0.000 NA
ATOM     30  C   UNL     1      44.427   2.495   8.957  0.00  0.00    +0.000 A 
ATOM     31  N   UNL     1      45.221   3.502   8.473  0.00  0.00    +0.000 N 
ATOM     32  C   UNL     1      45.539   4.619   9.208  0.00  0.00    +0.000 A 
ATOM     33  O   UNL     1      46.220   5.521   8.732  0.00  0.00    +0.000 OA
ATOM     34  C   UNL     1      44.992   4.633  10.549  0.00  0.00    +0.000 A 
ATOM     35  H   UNL     1      45.587   3.465   7.531  0.00  0.00    +0.000 HD
ENDBRANCH  22  25
ENDBRANCH  20  21
ENDBRANCH   4  20
TORSDOF 6
ENDMDL
MODEL 9
REMARK VINA RESULT:    -6.947      5.739      8.157
REMARK INTER + INTRA:         -10.473
REMARK INTER:                  -9.266
REMARK INTRA:                  -1.207
REMARK UNBOUND:                -1.089
REMARK  Name = 
REMARK  6 active torsions:
REMARK  status: ('A' for Active; 'I' for Inactive)
REMARK    1  A    between atoms: C_2  and  C_4
REMARK    2  A    between atoms: C_7  and  C_8
REMARK    3  A    between atoms: C_8  and  C_9
REMARK    4  A    between atoms: C_12  and  C_13
REMARK    5  A    between atoms: C_13  and  N_14
REMARK    6  A    between atoms: C_15  and  C_17
REMARK                            x       y       z     vdW  Elec       q    Type
REMARK                         _______ _______ _______ _____ _____    ______ ____
ROOT
ATOM      1  C   UNL     1      47.951   8.201  12.441  0.00  0.00    +0.000 A 
ATOM      2  C   UNL     1      48.966   7.237  12.385  0.00  0.00    +0.000 A 
ATOM      3  C   UNL     1      50.226   7.558  11.870  0.00  0.00    +0.000 A 
ATOM      4  C   UNL     1      50.498   8.853  11.413  0.00  0.00    +0.000 A 
ATOM      5  C   UNL     1      49.465   9.800  11.411  0.00  0.00    +0.000 A 
ATOM      6  C   UNL     1      48.207   9.479  11.928  0.00  0.00    +0.000 A 
ENDROOT
BRANCH   1   7
ATOM      7  C   UNL     1      46.621   7.886  13.085  0.00  0.00    +0.000 C 
BRANCH   7  11
ATOM      8  C   UNL     1      44.769   4.295  11.539  0.00  0.00    +0.000 A 
ATOM      9  C   UNL     1      45.107   4.380  12.892  0.00  0.00    +0.000 A 
ATOM     10  C   UNL     1      45.714   5.538  13.390  0.00  0.00    +0.000 A 
ATOM     11  C   UNL     1      45.971   6.629  12.546  0.00  0.00    +0.000 A 
ATOM     12  C   UNL     1      45.626   6.530  11.189  0.00  0.00    +0.000 A 
ATOM     13  C   UNL     1      45.028   5.369  10.687  0.00  0.00    +0.000 A 
BRANCH   8  15
ATOM     14  N   UNL     1      43.002   2.655  11.518  0.00  0.00    +0.000 NA
ATOM     15  C   UNL     1      44.127   3.052  11.019  0.00  0.00    +0.000 C 
ATOM     16  N   UNL     1      44.732   2.326  10.031  0.00  0.00    +0.000 N 
ATOM     17  H   UNL     1      42.680   1.821  11.027  0.00  0.00    +0.000 HD
ATOM     18  H   UNL     1      44.441   1.359   9.965  0.00  0.00    +0.000 HD
ATOM     19  H   UNL     1      45.744   2.412   9.993  0.00  0.00    +0.000 HD
ENDBRANCH   8  15
ENDBRANCH   7  11
ENDBRANCH   1   7
BRANCH   4  20
ATOM     20  C   UNL     1      51.873   9.230  10.930  0.00  0.00    +0.000 C 
BRANCH  20  21
ATOM     21  N   UNL     1      52.212   8.555   9.705  0.00  0.00    +0.000 N 
ATOM     22  C   UNL     1      53.387   8.830   9.053  0.00  0.00    +0.000 C 
ATOM     23  O   UNL     1      54.219   9.611   9.514  0.00  0.00    +0.000 OA
ATOM     24  H   UNL     1      51.455   8.101   9.204  0.00  0.00    +0.000 HD
BRANCH  22  25
ATOM     25  C   UNL     1      53.633   8.104   7.802  0.00  0.00    +0.000 A 
ATOM     26  C   UNL     1      53.809   8.814   6.621  0.00  0.00    +0.000 A 
ATOM     27  S   UNL     1      54.142   7.827   5.272  0.00  0.00    +0.000 S 
ATOM     28  C   UNL     1      54.011   6.412   6.207  0.00  0.00    +0.000 A 
ATOM     29  N   UNL     1      54.166   5.185   5.643  0.00  0.00    +0.000 NA
ATOM     30  C   UNL     1      54.006   4.199   6.460  0.00  0.00    +0.000 A 
ATOM     31  N   UNL     1      53.709   4.327   7.792  0.00  0.00    +0.000 N 
ATOM     32  C   UNL     1      53.570   5.547   8.410  0.00  0.00    +0.000 A 
ATOM     33  O   UNL     1      53.343   5.628   9.613  0.00  0.00    +0.000 OA
ATOM     34  C   UNL     1      53.734   6.688   7.535  0.00  0.00    +0.000 A 
ATOM     35  H   UNL     1      53.602   3.511   8.380  0.00  0.00    +0.000 HD
ENDBRANCH  22  25
ENDBRANCH  20  21
ENDBRANCH   4  20
TORSDOF 6
ENDMDL
