MODEL 1
REMARK VINA RESULT:    -8.076      0.000      0.000
REMARK INTER + INTRA:         -12.884
REMARK INTER:                 -11.381
REMARK INTRA:                  -1.504
REMARK UNBOUND:                -1.504
REMARK  Name = 
REMARK  7 active torsions:
REMARK  status: ('A' for Active; 'I' for Inactive)
REMARK    1  A    between atoms: C_2  and  C_20
REMARK    2  A    between atoms: N_3  and  C_4
REMARK    3  A    between atoms: C_4  and  C_5
REMARK    4  A    between atoms: C_9  and  C_10
REMARK    5  A    between atoms: C_10  and  N_11
REMARK    6  A    between atoms: N_11  and  C_12
REMARK    7  A    between atoms: C_12  and  C_13
REMARK                            x       y       z     vdW  Elec       q    Type
REMARK                         _______ _______ _______ _____ _____    ______ ____
ROOT
ATOM      1  C   UNL     1      45.389   7.215  12.390  0.00  0.00    +0.000 A 
ATOM      2  C   UNL     1      44.586   7.836  11.424  0.00  0.00    +0.000 A 
ATOM      3  C   UNL     1      43.360   7.281  11.065  0.00  0.00    +0.000 A 
ATOM      4  C   UNL     1      42.944   6.081  11.640  0.00  0.00    +0.000 A 
ATOM      5  C   UNL     1      43.763   5.398  12.553  0.00  0.00    +0.000 A 
ATOM      6  C   UNL     1      44.971   5.995  12.945  0.00  0.00    +0.000 A 
ENDROOT
BRANCH   1   7
ATOM      7  C   UNL     1      46.709   7.815  12.797  0.00  0.00    +0.000 C 
BRANCH   7  10
ATOM      8  O   UNL     1      49.199   6.562  13.259  0.00  0.00    +0.000 OA
ATOM      9  C   UNL     1      48.422   6.724  14.197  0.00  0.00    +0.000 C 
ATOM     10  N   UNL     1      47.172   7.262  14.043  0.00  0.00    +0.000 N 
ATOM     11  H   UNL     1      46.664   7.561  14.867  0.00  0.00    +0.000 HD
BRANCH   9  12
ATOM     12  C   UNL     1      48.759   6.281  15.556  0.00  0.00    +0.000 A 
ATOM     13  C   UNL     1      49.642   7.020  16.331  0.00  0.00    +0.000 A 
ATOM     14  S   UNL     1      49.937   6.336  17.866  0.00  0.00    +0.000 S 
ATOM     15  C   UNL     1      48.855   5.055  17.566  0.00  0.00    +0.000 A 
ATOM     16  N   UNL     1      48.617   4.100  18.504  0.00  0.00    +0.000 NA
ATOM     17  C   UNL     1      47.741   3.218  18.161  0.00  0.00    +0.000 A 
ATOM     18  N   UNL     1      47.088   3.197  16.959  0.00  0.00    +0.000 N 
ATOM     19  C   UNL     1      47.350   4.095  15.951  0.00  0.00    +0.000 A 
ATOM     20  O   UNL     1      46.848   3.963  14.840  0.00  0.00    +0.000 OA
ATOM     21  C   UNL     1      48.295   5.137  16.304  0.00  0.00    +0.000 A 
ATOM     22  H   UNL     1      46.436   2.458  16.732  0.00  0.00    +0.000 HD
ENDBRANCH   9  12
ENDBRANCH   7  10
ENDBRANCH   1   7
BRANCH   5  23
ATOM     23  C   UNL     1      43.367   4.052  13.127  0.00  0.00    +0.000 C 
BRANCH  23  24
ATOM     24  N   UNL     1      44.083   2.973  12.447  0.00  0.00    +0.000 NA
ATOM     25  H   UNL     1      43.907   2.122  12.982  0.00  0.00    +0.000 HD
BRANCH  24  26
ATOM     26  C   UNL     1      43.611   2.745  11.077  0.00  0.00    +0.000 C 
BRANCH  26  27
ATOM     27  C   UNL     1      44.802   2.889  10.089  0.00  0.00    +0.000 C 
ATOM     28  C   UNL     1      44.675   4.165   9.248  0.00  0.00    +0.000 C 
ATOM     29  C   UNL     1      45.836   4.292   8.264  0.00  0.00    +0.000 C 
ATOM     30  C   UNL     1      45.987   3.020   7.436  0.00  0.00    +0.000 C 
ATOM     31  C   UNL     1      46.064   1.787   8.328  0.00  0.00    +0.000 C 
ATOM     32  N   UNL     1      44.907   1.696   9.218  0.00  0.00    +0.000 NA
ATOM     33  H   UNL     1      45.039   0.886   9.823  0.00  0.00    +0.000 HD
ENDBRANCH  26  27
ENDBRANCH  24  26
ENDBRANCH  23  24
ENDBRANCH   5  23
TORSDOF 7
ENDMDL
MODEL 2
REMARK VINA RESULT:    -8.049      2.439      3.529
REMARK INTER + INTRA:         -12.847
REMARK INTER:                 -11.884
REMARK INTRA:                  -0.963
REMARK UNBOUND:                -1.504
REMARK  Name = 
REMARK  7 active torsions:
REMARK  status: ('A' for Active; 'I' for Inactive)
REMARK    1  A    between atoms: C_2  and  C_20
REMARK    2  A    between atoms: N_3  and  C_4
REMARK    3  A    between atoms: C_4  and  C_5
REMARK    4  A    between atoms: C_9  and  C_10
REMARK    5  A    between atoms: C_10  and  N_11
REMARK    6  A    between atoms: N_11  and  C_12
REMARK    7  A    between atoms: C_12  and  C_13
REMARK                            x       y       z     vdW  Elec       q    Type
REMARK                         _______ _______ _______ _____ _____    ______ ____
ROOT
ATOM      1  C   UNL     1      46.801   5.328  13.744  0.00  0.00    +0.000 A 
ATOM      2  C   UNL     1      47.905   6.172  13.564  0.00  0.00    +0.000 A 
ATOM      3  C   UNL     1      47.995   6.981  12.434  0.00  0.00    +0.000 A 
ATOM      4  C   UNL     1      47.002   6.926  11.456  0.00  0.00    +0.000 A 
ATOM      5  C   UNL     1      45.925   6.032  11.574  0.00  0.00    +0.000 A 
ATOM      6  C   UNL     1      45.820   5.262  12.741  0.00  0.00    +0.000 A 
ENDROOT
BRANCH   1   7
ATOM      7  C   UNL     1      46.686   4.460  14.970  0.00  0.00    +0.000 C 
BRANCH   7  10
ATOM      8  O   UNL     1      46.912   4.336  17.783  0.00  0.00    +0.000 OA
ATOM      9  C   UNL     1      47.931   4.342  17.096  0.00  0.00    +0.000 C 
ATOM     10  N   UNL     1      47.906   4.466  15.731  0.00  0.00    +0.000 N 
ATOM     11  H   UNL     1      48.748   4.257  15.207  0.00  0.00    +0.000 HD
BRANCH   9  12
ATOM     12  C   UNL     1      49.266   4.285  17.704  0.00  0.00    +0.000 A 
ATOM     13  C   UNL     1      49.696   5.307  18.538  0.00  0.00    +0.000 A 
ATOM     14  S   UNL     1      51.283   5.083  19.125  0.00  0.00    +0.000 S 
ATOM     15  C   UNL     1      51.430   3.588  18.324  0.00  0.00    +0.000 A 
ATOM     16  N   UNL     1      52.561   2.842  18.428  0.00  0.00    +0.000 NA
ATOM     17  C   UNL     1      52.518   1.712  17.808  0.00  0.00    +0.000 A 
ATOM     18  N   UNL     1      51.448   1.264  17.083  0.00  0.00    +0.000 N 
ATOM     19  C   UNL     1      50.312   2.014  16.885  0.00  0.00    +0.000 A 
ATOM     20  O   UNL     1      49.433   1.640  16.116  0.00  0.00    +0.000 OA
ATOM     21  C   UNL     1      50.293   3.275  17.600  0.00  0.00    +0.000 A 
ATOM     22  H   UNL     1      51.485   0.382  16.588  0.00  0.00    +0.000 HD
ENDBRANCH   9  12
ENDBRANCH   7  10
ENDBRANCH   1   7
BRANCH   5  23
ATOM     23  C   UNL     1      44.881   5.896  10.484  0.00  0.00    +0.000 C 
BRANCH  23  24
ATOM     24  N   UNL     1      45.424   5.162   9.341  0.00  0.00    +0.000 NA
ATOM     25  H   UNL     1      46.241   4.654   9.681  0.00  0.00    +0.000 HD
BRANCH  24  26
ATOM     26  C   UNL     1      44.483   4.178   8.792  0.00  0.00    +0.000 C 
BRANCH  26  27
ATOM     27  C   UNL     1      45.248   3.193   7.864  0.00  0.00    +0.000 C 
ATOM     28  C   UNL     1      45.821   2.013   8.659  0.00  0.00    +0.000 C 
ATOM     29  C   UNL     1      46.589   1.058   7.747  0.00  0.00    +0.000 C 
ATOM     30  C   UNL     1      47.630   1.813   6.925  0.00  0.00    +0.000 C 
ATOM     31  C   UNL     1      47.005   2.996   6.197  0.00  0.00    +0.000 C 
ATOM     32  N   UNL     1      46.321   3.896   7.124  0.00  0.00    +0.000 NA
ATOM     33  H   UNL     1      45.881   4.636   6.577  0.00  0.00    +0.000 HD
ENDBRANCH  26  27
ENDBRANCH  24  26
ENDBRANCH  23  24
ENDBRANCH   5  23
TORSDOF 7
ENDMDL
MODEL 3
REMARK VINA RESULT:    -7.890      2.056      3.095
REMARK INTER + INTRA:         -12.622
REMARK INTER:                 -11.822
REMARK INTRA:                  -0.800
REMARK UNBOUND:                -1.504
REMARK  Name = 
REMARK  7 active torsions:
REMARK  status: ('A' for Active; 'I' for Inactive)
REMARK    1  A    between atoms: C_2  and  C_20
REMARK    2  A    between atoms: N_3  and  C_4
REMARK    3  A    between atoms: C_4  and  C_5
REMARK    4  A    between atoms: C_9  and  C_10
REMARK    5  A    between atoms: C_10  and  N_11
REMARK    6  A    between atoms: N_11  and  C_12
REMARK    7  A    between atoms: C_12  and  C_13
REMARK                            x       y       z     vdW  Elec       q    Type
REMARK                         _______ _______ _______ _____ _____    ______ ____
ROOT
ATOM      1  C   UNL     1      46.482   4.991  13.521  0.00  0.00    +0.000 A 
ATOM      2  C   UNL     1      47.399   5.953  13.077  0.00  0.00    +0.000 A 
ATOM      3  C   UNL     1      47.024   6.893  12.120  0.00  0.00    +0.000 A 
ATOM      4  C   UNL     1      45.744   6.855  11.570  0.00  0.00    +0.000 A 
ATOM      5  C   UNL     1      44.831   5.855  11.940  0.00  0.00    +0.000 A 
ATOM      6  C   UNL     1      45.203   4.947  12.943  0.00  0.00    +0.000 A 
ENDROOT
BRANCH   1   7
ATOM      7  C   UNL     1      46.871   3.980  14.567  0.00  0.00    +0.000 C 
BRANCH   7  10
ATOM      8  O   UNL     1      46.481   3.153  17.240  0.00  0.00    +0.000 OA
ATOM      9  C   UNL     1      47.204   4.120  17.008  0.00  0.00    +0.000 C 
ATOM     10  N   UNL     1      47.390   4.621  15.746  0.00  0.00    +0.000 N 
ATOM     11  H   UNL     1      48.148   5.276  15.589  0.00  0.00    +0.000 HD
BRANCH   9  12
ATOM     12  C   UNL     1      47.871   4.855  18.088  0.00  0.00    +0.000 A 
ATOM     13  C   UNL     1      47.169   5.796  18.829  0.00  0.00    +0.000 A 
ATOM     14  S   UNL     1      48.117   6.571  20.018  0.00  0.00    +0.000 S 
ATOM     15  C   UNL     1      49.485   5.639  19.617  0.00  0.00    +0.000 A 
ATOM     16  N   UNL     1      50.659   5.788  20.285  0.00  0.00    +0.000 NA
ATOM     17  C   UNL     1      51.596   4.987  19.909  0.00  0.00    +0.000 A 
ATOM     18  N   UNL     1      51.469   4.054  18.916  0.00  0.00    +0.000 N 
ATOM     19  C   UNL     1      50.329   3.918  18.160  0.00  0.00    +0.000 A 
ATOM     20  O   UNL     1      50.298   3.169  17.189  0.00  0.00    +0.000 OA
ATOM     21  C   UNL     1      49.227   4.766  18.575  0.00  0.00    +0.000 A 
ATOM     22  H   UNL     1      52.252   3.476  18.640  0.00  0.00    +0.000 HD
ENDBRANCH   9  12
ENDBRANCH   7  10
ENDBRANCH   1   7
BRANCH   5  23
ATOM     23  C   UNL     1      43.463   5.745  11.294  0.00  0.00    +0.000 C 
BRANCH  23  24
ATOM     24  N   UNL     1      43.541   4.975  10.053  0.00  0.00    +0.000 NA
ATOM     25  H   UNL     1      44.280   5.399   9.492  0.00  0.00    +0.000 HD
BRANCH  24  26
ATOM     26  C   UNL     1      43.899   3.569  10.273  0.00  0.00    +0.000 C 
BRANCH  26  27
ATOM     27  C   UNL     1      45.162   3.220   9.437  0.00  0.00    +0.000 C 
ATOM     28  C   UNL     1      45.390   4.246   8.320  0.00  0.00    +0.000 C 
ATOM     29  C   UNL     1      46.620   3.888   7.489  0.00  0.00    +0.000 C 
ATOM     30  C   UNL     1      46.542   2.446   6.997  0.00  0.00    +0.000 C 
ATOM     31  C   UNL     1      46.271   1.484   8.148  0.00  0.00    +0.000 C 
ATOM     32  N   UNL     1      45.061   1.852   8.880  0.00  0.00    +0.000 NA
ATOM     33  H   UNL     1      44.960   1.208   9.665  0.00  0.00    +0.000 HD
ENDBRANCH  26  27
ENDBRANCH  24  26
ENDBRANCH  23  24
ENDBRANCH   5  23
TORSDOF 7
ENDMDL
MODEL 4
REMARK VINA RESULT:    -7.231      2.212      2.769
REMARK INTER + INTRA:         -11.694
REMARK INTER:                 -10.587
REMARK INTRA:                  -1.107
REMARK UNBOUND:                -1.504
REMARK  Name = 
REMARK  7 active torsions:
REMARK  status: ('A' for Active; 'I' for Inactive)
REMARK    1  A    between atoms: C_2  and  C_20
REMARK    2  A    between atoms: N_3  and  C_4
REMARK    3  A    between atoms: C_4  and  C_5
REMARK    4  A    between atoms: C_9  and  C_10
REMARK    5  A    between atoms: C_10  and  N_11
REMARK    6  A    between atoms: N_11  and  C_12
REMARK    7  A    between atoms: C_12  and  C_13
REMARK                            x       y       z     vdW  Elec       q    Type
REMARK                         _______ _______ _______ _____ _____    ______ ____
ROOT
ATOM      1  C   UNL     1      46.665   5.230  13.798  0.00  0.00    +0.000 A 
ATOM      2  C   UNL     1      47.128   6.268  12.979  0.00  0.00    +0.000 A 
ATOM      3  C   UNL     1      46.274   6.873  12.061  0.00  0.00    +0.000 A 
ATOM      4  C   UNL     1      44.962   6.422  11.927  0.00  0.00    +0.000 A 
ATOM      5  C   UNL     1      44.495   5.334  12.681  0.00  0.00    +0.000 A 
ATOM      6  C   UNL     1      45.349   4.768  13.638  0.00  0.00    +0.000 A 
ENDROOT
BRANCH   1   7
ATOM      7  C   UNL     1      47.576   4.578  14.806  0.00  0.00    +0.000 C 
BRANCH   7  10
ATOM      8  O   UNL     1      49.801   5.595  16.217  0.00  0.00    +0.000 OA
ATOM      9  C   UNL     1      48.669   5.790  16.655  0.00  0.00    +0.000 C 
ATOM     10  N   UNL     1      47.546   5.274  16.065  0.00  0.00    +0.000 N 
ATOM     11  H   UNL     1      46.640   5.634  16.342  0.00  0.00    +0.000 HD
BRANCH   9  12
ATOM     12  C   UNL     1      48.446   6.542  17.896  0.00  0.00    +0.000 A 
ATOM     13  C   UNL     1      48.292   7.921  17.858  0.00  0.00    +0.000 A 
ATOM     14  S   UNL     1      48.074   8.624  19.397  0.00  0.00    +0.000 S 
ATOM     15  C   UNL     1      48.128   7.103  20.163  0.00  0.00    +0.000 A 
ATOM     16  N   UNL     1      47.979   6.987  21.509  0.00  0.00    +0.000 NA
ATOM     17  C   UNL     1      47.995   5.775  21.947  0.00  0.00    +0.000 A 
ATOM     18  N   UNL     1      48.156   4.666  21.162  0.00  0.00    +0.000 N 
ATOM     19  C   UNL     1      48.386   4.736  19.808  0.00  0.00    +0.000 A 
ATOM     20  O   UNL     1      48.665   3.733  19.161  0.00  0.00    +0.000 OA
ATOM     21  C   UNL     1      48.332   6.077  19.258  0.00  0.00    +0.000 A 
ATOM     22  H   UNL     1      48.195   3.740  21.568  0.00  0.00    +0.000 HD
ENDBRANCH   9  12
ENDBRANCH   7  10
ENDBRANCH   1   7
BRANCH   5  23
ATOM     23  C   UNL     1      43.098   4.774  12.491  0.00  0.00    +0.000 C 
BRANCH  23  24
ATOM     24  N   UNL     1      42.956   4.188  11.159  0.00  0.00    +0.000 NA
ATOM     25  H   UNL     1      43.437   4.813  10.511  0.00  0.00    +0.000 HD
BRANCH  24  26
ATOM     26  C   UNL     1      43.577   2.864  11.045  0.00  0.00    +0.000 C 
BRANCH  26  27
ATOM     27  C   UNL     1      44.760   2.932  10.038  0.00  0.00    +0.000 C 
ATOM     28  C   UNL     1      44.630   4.147   9.111  0.00  0.00    +0.000 C 
ATOM     29  C   UNL     1      45.783   4.198   8.110  0.00  0.00    +0.000 C 
ATOM     30  C   UNL     1      45.921   2.870   7.372  0.00  0.00    +0.000 C 
ATOM     31  C   UNL     1      46.001   1.703   8.349  0.00  0.00    +0.000 C 
ATOM     32  N   UNL     1      44.852   1.680   9.253  0.00  0.00    +0.000 NA
ATOM     33  H   UNL     1      44.986   0.914   9.913  0.00  0.00    +0.000 HD
ENDBRANCH  26  27
ENDBRANCH  24  26
ENDBRANCH  23  24
ENDBRANCH   5  23
TORSDOF 7
ENDMDL
MODEL 5
REMARK VINA RESULT:    -7.097      1.391      2.212
REMARK INTER + INTRA:         -11.506
REMARK INTER:                 -10.787
REMARK INTRA:                  -0.718
REMARK UNBOUND:                -1.504
REMARK  Name = 
REMARK  7 active torsions:
REMARK  status: ('A' for Active; 'I' for Inactive)
REMARK    1  A    between atoms: C_2  and  C_20
REMARK    2  A    between atoms: N_3  and  C_4
REMARK    3  A    between atoms: C_4  and  C_5
REMARK    4  A    between atoms: C_9  and  C_10
REMARK    5  A    between atoms: C_10  and  N_11
REMARK    6  A    between atoms: N_11  and  C_12
REMARK    7  A    between atoms: C_12  and  C_13
REMARK                            x       y       z     vdW  Elec       q    Type
REMARK                         _______ _______ _______ _____ _____    ______ ____
ROOT
ATOM      1  C   UNL     1      45.979   5.977  12.023  0.00  0.00    +0.000 A 
ATOM      2  C   UNL     1      45.032   6.005  13.055  0.00  0.00    +0.000 A 
ATOM      3  C   UNL     1      43.783   5.414  12.881  0.00  0.00    +0.000 A 
ATOM      4  C   UNL     1      43.455   4.825  11.661  0.00  0.00    +0.000 A 
ATOM      5  C   UNL     1      44.356   4.850  10.584  0.00  0.00    +0.000 A 
ATOM      6  C   UNL     1      45.629   5.402  10.790  0.00  0.00    +0.000 A 
ENDROOT
BRANCH   1   7
ATOM      7  C   UNL     1      47.338   6.598  12.205  0.00  0.00    +0.000 C 
BRANCH   7  10
ATOM      8  O   UNL     1      48.020   8.177  14.446  0.00  0.00    +0.000 OA
ATOM      9  C   UNL     1      48.207   6.963  14.485  0.00  0.00    +0.000 C 
ATOM     10  N   UNL     1      47.964   6.139  13.417  0.00  0.00    +0.000 N 
ATOM     11  H   UNL     1      47.936   5.138  13.570  0.00  0.00    +0.000 HD
BRANCH   9  12
ATOM     12  C   UNL     1      48.776   6.313  15.672  0.00  0.00    +0.000 A 
ATOM     13  C   UNL     1      49.870   6.872  16.316  0.00  0.00    +0.000 A 
ATOM     14  S   UNL     1      50.411   5.961  17.654  0.00  0.00    +0.000 S 
ATOM     15  C   UNL     1      49.170   4.814  17.448  0.00  0.00    +0.000 A 
ATOM     16  N   UNL     1      49.041   3.756  18.292  0.00  0.00    +0.000 NA
ATOM     17  C   UNL     1      48.030   2.994  18.046  0.00  0.00    +0.000 A 
ATOM     18  N   UNL     1      47.140   3.187  17.025  0.00  0.00    +0.000 N 
ATOM     19  C   UNL     1      47.272   4.196  16.100  0.00  0.00    +0.000 A 
ATOM     20  O   UNL     1      46.538   4.256  15.119  0.00  0.00    +0.000 OA
ATOM     21  C   UNL     1      48.368   5.110  16.359  0.00  0.00    +0.000 A 
ATOM     22  H   UNL     1      46.385   2.534  16.860  0.00  0.00    +0.000 HD
ENDBRANCH   9  12
ENDBRANCH   7  10
ENDBRANCH   1   7
BRANCH   5  23
ATOM     23  C   UNL     1      43.988   4.290   9.224  0.00  0.00    +0.000 C 
BRANCH  23  24
ATOM     24  N   UNL     1      44.050   2.828   9.237  0.00  0.00    +0.000 NA
ATOM     25  H   UNL     1      43.586   2.508   8.387  0.00  0.00    +0.000 HD
BRANCH  24  26
ATOM     26  C   UNL     1      45.423   2.313   9.218  0.00  0.00    +0.000 C 
BRANCH  26  27
ATOM     27  C   UNL     1      45.878   2.107   7.746  0.00  0.00    +0.000 C 
ATOM     28  C   UNL     1      46.828   0.909   7.621  0.00  0.00    +0.000 C 
ATOM     29  C   UNL     1      47.289   0.723   6.176  0.00  0.00    +0.000 C 
ATOM     30  C   UNL     1      47.857   2.023   5.616  0.00  0.00    +0.000 C 
ATOM     31  C   UNL     1      46.884   3.179   5.811  0.00  0.00    +0.000 C 
ATOM     32  N   UNL     1      46.512   3.336   7.216  0.00  0.00    +0.000 NA
ATOM     33  H   UNL     1      45.823   4.086   7.278  0.00  0.00    +0.000 HD
ENDBRANCH  26  27
ENDBRANCH  24  26
ENDBRANCH  23  24
ENDBRANCH   5  23
TORSDOF 7
ENDMDL
MODEL 6
REMARK VINA RESULT:    -7.021      2.963      8.961
REMARK INTER + INTRA:         -11.398
REMARK INTER:                  -9.937
REMARK INTRA:                  -1.461
REMARK UNBOUND:                -1.504
REMARK  Name = 
REMARK  7 active torsions:
REMARK  status: ('A' for Active; 'I' for Inactive)
REMARK    1  A    between atoms: C_2  and  C_20
REMARK    2  A    between atoms: N_3  and  C_4
REMARK    3  A    between atoms: C_4  and  C_5
REMARK    4  A    between atoms: C_9  and  C_10
REMARK    5  A    between atoms: C_10  and  N_11
REMARK    6  A    between atoms: N_11  and  C_12
REMARK    7  A    between atoms: C_12  and  C_13
REMARK                            x       y       z     vdW  Elec       q    Type
REMARK                         _______ _______ _______ _____ _____    ______ ____
ROOT
ATOM      1  C   UNL     1      48.699   3.604  17.101  0.00  0.00    +0.000 A 
ATOM      2  C   UNL     1      49.439   2.417  17.187  0.00  0.00    +0.000 A 
ATOM      3  C   UNL     1      50.809   2.458  17.431  0.00  0.00    +0.000 A 
ATOM      4  C   UNL     1      51.459   3.686  17.554  0.00  0.00    +0.000 A 
ATOM      5  C   UNL     1      50.756   4.891  17.395  0.00  0.00    +0.000 A 
ATOM      6  C   UNL     1      49.368   4.835  17.202  0.00  0.00    +0.000 A 
ENDROOT
BRANCH   1   7
ATOM      7  C   UNL     1      47.214   3.572  16.853  0.00  0.00    +0.000 C 
BRANCH   7  10
ATOM      8  O   UNL     1      47.236   3.123  14.063  0.00  0.00    +0.000 OA
ATOM      9  C   UNL     1      46.817   4.193  14.498  0.00  0.00    +0.000 C 
ATOM     10  N   UNL     1      46.835   4.512  15.831  0.00  0.00    +0.000 N 
ATOM     11  H   UNL     1      46.293   5.307  16.150  0.00  0.00    +0.000 HD
BRANCH   9  12
ATOM     12  C   UNL     1      46.325   5.245  13.601  0.00  0.00    +0.000 A 
ATOM     13  C   UNL     1      47.117   6.350  13.321  0.00  0.00    +0.000 A 
ATOM     14  S   UNL     1      46.367   7.480  12.286  0.00  0.00    +0.000 S 
ATOM     15  C   UNL     1      44.977   6.508  12.136  0.00  0.00    +0.000 A 
ATOM     16  N   UNL     1      43.932   6.889  11.356  0.00  0.00    +0.000 NA
ATOM     17  C   UNL     1      42.967   6.036  11.298  0.00  0.00    +0.000 A 
ATOM     18  N   UNL     1      42.947   4.839  11.959  0.00  0.00    +0.000 N 
ATOM     19  C   UNL     1      43.944   4.443  12.820  0.00  0.00    +0.000 A 
ATOM     20  O   UNL     1      43.827   3.431  13.501  0.00  0.00    +0.000 OA
ATOM     21  C   UNL     1      45.076   5.348  12.885  0.00  0.00    +0.000 A 
ATOM     22  H   UNL     1      42.144   4.225  11.903  0.00  0.00    +0.000 HD
ENDBRANCH   9  12
ENDBRANCH   7  10
ENDBRANCH   1   7
BRANCH   5  23
ATOM     23  C   UNL     1      51.458   6.234  17.441  0.00  0.00    +0.000 C 
BRANCH  23  24
ATOM     24  N   UNL     1      50.864   7.089  18.469  0.00  0.00    +0.000 NA
ATOM     25  H   UNL     1      49.852   6.980  18.392  0.00  0.00    +0.000 HD
BRANCH  24  26
ATOM     26  C   UNL     1      51.252   6.704  19.830  0.00  0.00    +0.000 C 
BRANCH  26  27
ATOM     27  C   UNL     1      49.982   6.605  20.722  0.00  0.00    +0.000 C 
ATOM     28  C   UNL     1      49.510   5.151  20.855  0.00  0.00    +0.000 C 
ATOM     29  C   UNL     1      48.250   5.061  21.715  0.00  0.00    +0.000 C 
ATOM     30  C   UNL     1      47.175   6.015  21.205  0.00  0.00    +0.000 C 
ATOM     31  C   UNL     1      47.721   7.430  21.054  0.00  0.00    +0.000 C 
ATOM     32  N   UNL     1      48.899   7.461  20.189  0.00  0.00    +0.000 NA
ATOM     33  H   UNL     1      49.249   8.419  20.167  0.00  0.00    +0.000 HD
ENDBRANCH  26  27
ENDBRANCH  24  26
ENDBRANCH  23  24
ENDBRANCH   5  23
TORSDOF 7
ENDMDL
MODEL 7
REMARK VINA RESULT:    -6.805      2.746      7.440
REMARK INTER + INTRA:         -11.093
REMARK INTER:                 -10.220
REMARK INTRA:                  -0.873
REMARK UNBOUND:                -1.504
REMARK  Name = 
REMARK  7 active torsions:
REMARK  status: ('A' for Active; 'I' for Inactive)
REMARK    1  A    between atoms: C_2  and  C_20
REMARK    2  A    between atoms: N_3  and  C_4
REMARK    3  A    between atoms: C_4  and  C_5
REMARK    4  A    between atoms: C_9  and  C_10
REMARK    5  A    between atoms: C_10  and  N_11
REMARK    6  A    between atoms: N_11  and  C_12
REMARK    7  A    between atoms: C_12  and  C_13
REMARK                            x       y       z     vdW  Elec       q    Type
REMARK                         _______ _______ _______ _____ _____    ______ ____
ROOT
ATOM      1  C   UNL     1      48.451   8.195  16.810  0.00  0.00    +0.000 A 
ATOM      2  C   UNL     1      48.256   9.564  17.033  0.00  0.00    +0.000 A 
ATOM      3  C   UNL     1      47.874  10.024  18.291  0.00  0.00    +0.000 A 
ATOM      4  C   UNL     1      47.647   9.118  19.325  0.00  0.00    +0.000 A 
ATOM      5  C   UNL     1      47.760   7.735  19.108  0.00  0.00    +0.000 A 
ATOM      6  C   UNL     1      48.195   7.289  17.852  0.00  0.00    +0.000 A 
ENDROOT
BRANCH   1   7
ATOM      7  C   UNL     1      48.878   7.687  15.458  0.00  0.00    +0.000 C 
BRANCH   7  10
ATOM      8  O   UNL     1      48.885   6.124  13.104  0.00  0.00    +0.000 OA
ATOM      9  C   UNL     1      47.820   6.560  13.535  0.00  0.00    +0.000 C 
ATOM     10  N   UNL     1      47.741   7.379  14.632  0.00  0.00    +0.000 N 
ATOM     11  H   UNL     1      46.836   7.535  15.060  0.00  0.00    +0.000 HD
BRANCH   9  12
ATOM     12  C   UNL     1      46.548   6.287  12.855  0.00  0.00    +0.000 A 
ATOM     13  C   UNL     1      45.840   7.321  12.260  0.00  0.00    +0.000 A 
ATOM     14  S   UNL     1      44.373   6.819  11.547  0.00  0.00    +0.000 S 
ATOM     15  C   UNL     1      44.659   5.193  11.967  0.00  0.00    +0.000 A 
ATOM     16  N   UNL     1      43.781   4.213  11.626  0.00  0.00    +0.000 NA
ATOM     17  C   UNL     1      44.146   3.024  11.966  0.00  0.00    +0.000 A 
ATOM     18  N   UNL     1      45.307   2.726  12.626  0.00  0.00    +0.000 N 
ATOM     19  C   UNL     1      46.188   3.689  13.059  0.00  0.00    +0.000 A 
ATOM     20  O   UNL     1      47.146   3.397  13.768  0.00  0.00    +0.000 OA
ATOM     21  C   UNL     1      45.846   5.041  12.661  0.00  0.00    +0.000 A 
ATOM     22  H   UNL     1      45.523   1.776  12.898  0.00  0.00    +0.000 HD
ENDBRANCH   9  12
ENDBRANCH   7  10
ENDBRANCH   1   7
BRANCH   5  23
ATOM     23  C   UNL     1      47.436   6.729  20.195  0.00  0.00    +0.000 C 
BRANCH  23  24
ATOM     24  N   UNL     1      47.614   5.364  19.702  0.00  0.00    +0.000 NA
ATOM     25  H   UNL     1      47.486   5.399  18.690  0.00  0.00    +0.000 HD
BRANCH  24  26
ATOM     26  C   UNL     1      48.955   4.830  19.963  0.00  0.00    +0.000 C 
BRANCH  26  27
ATOM     27  C   UNL     1      49.512   4.172  18.669  0.00  0.00    +0.000 C 
ATOM     28  C   UNL     1      48.563   3.087  18.145  0.00  0.00    +0.000 C 
ATOM     29  C   UNL     1      49.123   2.429  16.886  0.00  0.00    +0.000 C 
ATOM     30  C   UNL     1      50.550   1.942  17.117  0.00  0.00    +0.000 C 
ATOM     31  C   UNL     1      51.428   3.055  17.677  0.00  0.00    +0.000 C 
ATOM     32  N   UNL     1      50.864   3.617  18.903  0.00  0.00    +0.000 NA
ATOM     33  H   UNL     1      51.464   4.387  19.201  0.00  0.00    +0.000 HD
ENDBRANCH  26  27
ENDBRANCH  24  26
ENDBRANCH  23  24
ENDBRANCH   5  23
TORSDOF 7
ENDMDL
MODEL 8
REMARK VINA RESULT:    -6.804      2.905      8.775
REMARK INTER + INTRA:         -11.092
REMARK INTER:                  -9.648
REMARK INTRA:                  -1.444
REMARK UNBOUND:                -1.504
REMARK  Name = 
REMARK  7 active torsions:
REMARK  status: ('A' for Active; 'I' for Inactive)
REMARK    1  A    between atoms: C_2  and  C_20
REMARK    2  A    between atoms: N_3  and  C_4
REMARK    3  A    between atoms: C_4  and  C_5
REMARK    4  A    between atoms: C_9  and  C_10
REMARK    5  A    between atoms: C_10  and  N_11
REMARK    6  A    between atoms: N_11  and  C_12
REMARK    7  A    between atoms: C_12  and  C_13
REMARK                            x       y       z     vdW  Elec       q    Type
REMARK                         _______ _______ _______ _____ _____    ______ ____
ROOT
ATOM      1  C   UNL     1      49.027   5.733  16.497  0.00  0.00    +0.000 A 
ATOM      2  C   UNL     1      48.039   4.742  16.571  0.00  0.00    +0.000 A 
ATOM      3  C   UNL     1      48.201   3.650  17.420  0.00  0.00    +0.000 A 
ATOM      4  C   UNL     1      49.368   3.519  18.172  0.00  0.00    +0.000 A 
ATOM      5  C   UNL     1      50.406   4.457  18.059  0.00  0.00    +0.000 A 
ATOM      6  C   UNL     1      50.208   5.579  17.240  0.00  0.00    +0.000 A 
ENDROOT
BRANCH   1   7
ATOM      7  C   UNL     1      48.855   6.926  15.594  0.00  0.00    +0.000 C 
BRANCH   7  10
ATOM      8  O   UNL     1      48.850   6.046  12.909  0.00  0.00    +0.000 OA
ATOM      9  C   UNL     1      47.781   6.285  13.468  0.00  0.00    +0.000 C 
ATOM     10  N   UNL     1      47.704   6.778  14.744  0.00  0.00    +0.000 N 
ATOM     11  H   UNL     1      46.810   6.758  15.221  0.00  0.00    +0.000 HD
BRANCH   9  12
ATOM     12  C   UNL     1      46.499   6.123  12.772  0.00  0.00    +0.000 A 
ATOM     13  C   UNL     1      45.879   7.219  12.187  0.00  0.00    +0.000 A 
ATOM     14  S   UNL     1      44.386   6.844  11.452  0.00  0.00    +0.000 S 
ATOM     15  C   UNL     1      44.540   5.194  11.847  0.00  0.00    +0.000 A 
ATOM     16  N   UNL     1      43.592   4.291  11.482  0.00  0.00    +0.000 NA
ATOM     17  C   UNL     1      43.860   3.072  11.805  0.00  0.00    +0.000 A 
ATOM     18  N   UNL     1      44.988   2.674  12.470  0.00  0.00    +0.000 N 
ATOM     19  C   UNL     1      45.937   3.557  12.928  0.00  0.00    +0.000 A 
ATOM     20  O   UNL     1      46.861   3.181  13.640  0.00  0.00    +0.000 OA
ATOM     21  C   UNL     1      45.705   4.938  12.549  0.00  0.00    +0.000 A 
ATOM     22  H   UNL     1      45.127   1.705  12.729  0.00  0.00    +0.000 HD
ENDBRANCH   9  12
ENDBRANCH   7  10
ENDBRANCH   1   7
BRANCH   5  23
ATOM     23  C   UNL     1      51.716   4.290  18.804  0.00  0.00    +0.000 C 
BRANCH  23  24
ATOM     24  N   UNL     1      51.488   4.284  20.249  0.00  0.00    +0.000 NA
ATOM     25  H   UNL     1      52.211   3.691  20.657  0.00  0.00    +0.000 HD
BRANCH  24  26
ATOM     26  C   UNL     1      51.610   5.616  20.853  0.00  0.00    +0.000 C 
BRANCH  26  27
ATOM     27  C   UNL     1      50.212   6.094  21.337  0.00  0.00    +0.000 C 
ATOM     28  C   UNL     1      49.255   4.910  21.528  0.00  0.00    +0.000 C 
ATOM     29  C   UNL     1      47.877   5.385  21.983  0.00  0.00    +0.000 C 
ATOM     30  C   UNL     1      47.342   6.468  21.051  0.00  0.00    +0.000 C 
ATOM     31  C   UNL     1      48.356   7.592  20.871  0.00  0.00    +0.000 C 
ATOM     32  N   UNL     1      49.641   7.082  20.395  0.00  0.00    +0.000 NA
ATOM     33  H   UNL     1      50.291   7.867  20.343  0.00  0.00    +0.000 HD
ENDBRANCH  26  27
ENDBRANCH  24  26
ENDBRANCH  23  24
ENDBRANCH   5  23
TORSDOF 7
ENDMDL
MODEL 9
REMARK VINA RESULT:    -6.739      2.990      7.597
REMARK INTER + INTRA:         -11.001
REMARK INTER:                  -9.810
REMARK INTRA:                  -1.191
REMARK UNBOUND:                -1.504
REMARK  Name = 
REMARK  7 active torsions:
REMARK  status: ('A' for Active; 'I' for Inactive)
REMARK    1  A    between atoms: C_2  and  C_20
REMARK    2  A    between atoms: N_3  and  C_4
REMARK    3  A    between atoms: C_4  and  C_5
REMARK    4  A    between atoms: C_9  and  C_10
REMARK    5  A    between atoms: C_10  and  N_11
REMARK    6  A    between atoms: N_11  and  C_12
REMARK    7  A    between atoms: C_12  and  C_13
REMARK                            x       y       z     vdW  Elec       q    Type
REMARK                         _______ _______ _______ _____ _____    ______ ____
ROOT
ATOM      1  C   UNL     1      48.818   3.879  17.065  0.00  0.00    +0.000 A 
ATOM      2  C   UNL     1      49.598   2.764  17.400  0.00  0.00    +0.000 A 
ATOM      3  C   UNL     1      50.956   2.911  17.669  0.00  0.00    +0.000 A 
ATOM      4  C   UNL     1      51.555   4.165  17.569  0.00  0.00    +0.000 A 
ATOM      5  C   UNL     1      50.814   5.286  17.160  0.00  0.00    +0.000 A 
ATOM      6  C   UNL     1      49.437   5.134  16.943  0.00  0.00    +0.000 A 
ENDROOT
BRANCH   1   7
ATOM      7  C   UNL     1      47.345   3.735  16.787  0.00  0.00    +0.000 C 
BRANCH   7  10
ATOM      8  O   UNL     1      47.173   3.161  14.026  0.00  0.00    +0.000 OA
ATOM      9  C   UNL     1      46.806   4.259  14.437  0.00  0.00    +0.000 C 
ATOM     10  N   UNL     1      46.919   4.637  15.749  0.00  0.00    +0.000 N 
ATOM     11  H   UNL     1      46.416   5.458  16.065  0.00  0.00    +0.000 HD
BRANCH   9  12
ATOM     12  C   UNL     1      46.278   5.281  13.526  0.00  0.00    +0.000 A 
ATOM     13  C   UNL     1      47.063   6.369  13.167  0.00  0.00    +0.000 A 
ATOM     14  S   UNL     1      46.271   7.466  12.128  0.00  0.00    +0.000 S 
ATOM     15  C   UNL     1      44.870   6.500  12.081  0.00  0.00    +0.000 A 
ATOM     16  N   UNL     1      43.791   6.860  11.337  0.00  0.00    +0.000 NA
ATOM     17  C   UNL     1      42.819   6.014  11.357  0.00  0.00    +0.000 A 
ATOM     18  N   UNL     1      42.823   4.841  12.062  0.00  0.00    +0.000 N 
ATOM     19  C   UNL     1      43.857   4.470  12.889  0.00  0.00    +0.000 A 
ATOM     20  O   UNL     1      43.768   3.484  13.612  0.00  0.00    +0.000 OA
ATOM     21  C   UNL     1      44.997   5.368  12.866  0.00  0.00    +0.000 A 
ATOM     22  H   UNL     1      42.015   4.232  12.068  0.00  0.00    +0.000 HD
ENDBRANCH   9  12
ENDBRANCH   7  10
ENDBRANCH   1   7
BRANCH   5  23
ATOM     23  C   UNL     1      51.463   6.642  16.964  0.00  0.00    +0.000 C 
BRANCH  23  24
ATOM     24  N   UNL     1      51.422   7.033  15.555  0.00  0.00    +0.000 NA
ATOM     25  H   UNL     1      50.728   6.435  15.106  0.00  0.00    +0.000 HD
BRANCH  24  26
ATOM     26  C   UNL     1      51.006   8.426  15.358  0.00  0.00    +0.000 C 
BRANCH  26  27
ATOM     27  C   UNL     1      51.176   8.810  13.862  0.00  0.00    +0.000 C 
ATOM     28  C   UNL     1      49.851   8.681  13.101  0.00  0.00    +0.000 C 
ATOM     29  C   UNL     1      50.027   9.039  11.627  0.00  0.00    +0.000 C 
ATOM     30  C   UNL     1      51.173   8.245  11.008  0.00  0.00    +0.000 C 
ATOM     31  C   UNL     1      52.447   8.381  11.835  0.00  0.00    +0.000 C 
ATOM     32  N   UNL     1      52.228   7.985  13.225  0.00  0.00    +0.000 NA
ATOM     33  H   UNL     1      53.095   8.145  13.738  0.00  0.00    +0.000 HD
ENDBRANCH  26  27
ENDBRANCH  24  26
ENDBRANCH  23  24
ENDBRANCH   5  23
TORSDOF 7
ENDMDL
