MODEL 1
REMARK VINA RESULT:    -7.150      0.000      0.000
REMARK INTER + INTRA:         -10.324
REMARK INTER:                  -9.658
REMARK INTRA:                  -0.665
REMARK UNBOUND:                -0.665
REMARK  Name = 
REMARK  7 active torsions:
REMARK  status: ('A' for Active; 'I' for Inactive)
REMARK    1  A    between atoms: C_1  and  O_2
REMARK    2  A    between atoms: O_2  and  C_3
REMARK    3  A    between atoms: C_6  and  C_7
REMARK    4  A    between atoms: C_11  and  C_12
REMARK    5  A    between atoms: C_13  and  C_14
REMARK    6  A    between atoms: C_14  and  O_15
REMARK    7  A    between atoms: O_15  and  C_16
REMARK                            x       y       z     vdW  Elec       q    Type
REMARK                         _______ _______ _______ _____ _____    ______ ____
ROOT
ATOM      1  C   UNL     1      47.186   6.230  13.165  0.00  0.00    +0.000 A 
ATOM      2  C   UNL     1      48.071   6.575  14.194  0.00  0.00    +0.000 A 
ATOM      3  C   UNL     1      48.176   5.784  15.339  0.00  0.00    +0.000 A 
ATOM      4  C   UNL     1      47.398   4.633  15.480  0.00  0.00    +0.000 A 
ATOM      5  C   UNL     1      46.508   4.287  14.457  0.00  0.00    +0.000 A 
ATOM      6  C   UNL     1      46.370   5.083  13.301  0.00  0.00    +0.000 A 
ENDROOT
BRANCH   4   7
ATOM      7  C   UNL     1      47.569   3.827  16.722  0.00  0.00    +0.000 C 
ATOM      8  N   UNL     1      48.814   3.722  17.278  0.00  0.00    +0.000 N 
ATOM      9  O   UNL     1      46.619   3.256  17.247  0.00  0.00    +0.000 OA
ATOM     10  H   UNL     1      49.653   4.155  16.930  0.00  0.00    +0.000 HD
ATOM     11  H   UNL     1      48.884   3.169  18.124  0.00  0.00    +0.000 HD
ENDBRANCH   4   7
BRANCH   1  13
ATOM     12  C   UNL     1      47.338   8.365  12.123  0.00  0.00    +0.000 C 
ATOM     13  O   UNL     1      47.040   6.976  12.019  0.00  0.00    +0.000 OA
ENDBRANCH   1  13
BRANCH   6  14
ATOM     14  C   UNL     1      45.449   4.658  12.220  0.00  0.00    +0.000 C 
ATOM     15  C   UNL     1      44.603   3.613  12.285  0.00  0.00    +0.000 C 
BRANCH  15  16
ATOM     16  C   UNL     1      43.698   3.177  11.170  0.00  0.00    +0.000 C 
BRANCH  16  17
ATOM     17  O   UNL     1      44.045   3.933  10.010  0.00  0.00    +0.000 OA
BRANCH  17  18
ATOM     18  C   UNL     1      44.922   3.352   9.134  0.00  0.00    +0.000 A 
ATOM     19  C   UNL     1      45.209   1.988   9.048  0.00  0.00    +0.000 A 
ATOM     20  C   UNL     1      46.142   1.522   8.116  0.00  0.00    +0.000 A 
ATOM     21  C   UNL     1      46.788   2.420   7.269  0.00  0.00    +0.000 A 
ATOM     22 CL   UNL     1      47.939   1.841   6.127  0.00  0.00    +0.000 Cl
ATOM     23  C   UNL     1      46.507   3.781   7.344  0.00  0.00    +0.000 A 
ATOM     24  C   UNL     1      45.576   4.244   8.277  0.00  0.00    +0.000 A 
ENDBRANCH  17  18
ENDBRANCH  16  17
ENDBRANCH  15  16
ENDBRANCH   6  14
TORSDOF 6
ENDMDL
MODEL 2
REMARK VINA RESULT:    -6.898      2.093      2.568
REMARK INTER + INTRA:          -9.983
REMARK INTER:                  -9.212
REMARK INTRA:                  -0.771
REMARK UNBOUND:                -0.665
REMARK  Name = 
REMARK  7 active torsions:
REMARK  status: ('A' for Active; 'I' for Inactive)
REMARK    1  A    between atoms: C_1  and  O_2
REMARK    2  A    between atoms: O_2  and  C_3
REMARK    3  A    between atoms: C_6  and  C_7
REMARK    4  A    between atoms: C_11  and  C_12
REMARK    5  A    between atoms: C_13  and  C_14
REMARK    6  A    between atoms: C_14  and  O_15
REMARK    7  A    between atoms: O_15  and  C_16
REMARK                            x       y       z     vdW  Elec       q    Type
REMARK                         _______ _______ _______ _____ _____    ______ ____
ROOT
ATOM      1  C   UNL     1      45.373   8.007  11.887  0.00  0.00    +0.000 A 
ATOM      2  C   UNL     1      46.234   8.965  12.438  0.00  0.00    +0.000 A 
ATOM      3  C   UNL     1      47.350   8.577  13.182  0.00  0.00    +0.000 A 
ATOM      4  C   UNL     1      47.627   7.225  13.392  0.00  0.00    +0.000 A 
ATOM      5  C   UNL     1      46.766   6.264  12.849  0.00  0.00    +0.000 A 
ATOM      6  C   UNL     1      45.622   6.633  12.112  0.00  0.00    +0.000 A 
ENDROOT
BRANCH   4   7
ATOM      7  C   UNL     1      48.840   6.880  14.185  0.00  0.00    +0.000 C 
ATOM      8  N   UNL     1      50.037   7.446  13.844  0.00  0.00    +0.000 N 
ATOM      9  O   UNL     1      48.785   6.098  15.128  0.00  0.00    +0.000 OA
ATOM     10  H   UNL     1      50.188   8.101  13.094  0.00  0.00    +0.000 HD
ATOM     11  H   UNL     1      50.836   7.188  14.412  0.00  0.00    +0.000 HD
ENDBRANCH   4   7
BRANCH   1  13
ATOM     12  C   UNL     1      43.965   9.723  11.026  0.00  0.00    +0.000 C 
ATOM     13  O   UNL     1      44.259   8.334  11.150  0.00  0.00    +0.000 OA
ENDBRANCH   1  13
BRANCH   6  14
ATOM     14  C   UNL     1      44.760   5.585  11.515  0.00  0.00    +0.000 C 
ATOM     15  C   UNL     1      44.731   4.293  11.894  0.00  0.00    +0.000 C 
BRANCH  15  16
ATOM     16  C   UNL     1      43.875   3.238  11.260  0.00  0.00    +0.000 C 
BRANCH  16  17
ATOM     17  O   UNL     1      43.762   3.548   9.871  0.00  0.00    +0.000 OA
BRANCH  17  18
ATOM     18  C   UNL     1      44.751   3.075   9.051  0.00  0.00    +0.000 A 
ATOM     19  C   UNL     1      45.204   1.756   8.992  0.00  0.00    +0.000 A 
ATOM     20  C   UNL     1      46.239   1.404   8.118  0.00  0.00    +0.000 A 
ATOM     21  C   UNL     1      46.820   2.372   7.302  0.00  0.00    +0.000 A 
ATOM     22 CL   UNL     1      48.095   1.934   6.232  0.00  0.00    +0.000 Cl
ATOM     23  C   UNL     1      46.373   3.689   7.349  0.00  0.00    +0.000 A 
ATOM     24  C   UNL     1      45.341   4.038   8.225  0.00  0.00    +0.000 A 
ENDBRANCH  17  18
ENDBRANCH  16  17
ENDBRANCH  15  16
ENDBRANCH   6  14
TORSDOF 6
ENDMDL
MODEL 3
REMARK VINA RESULT:    -6.873      1.889      3.453
REMARK INTER + INTRA:          -9.948
REMARK INTER:                  -9.305
REMARK INTRA:                  -0.643
REMARK UNBOUND:                -0.665
REMARK  Name = 
REMARK  7 active torsions:
REMARK  status: ('A' for Active; 'I' for Inactive)
REMARK    1  A    between atoms: C_1  and  O_2
REMARK    2  A    between atoms: O_2  and  C_3
REMARK    3  A    between atoms: C_6  and  C_7
REMARK    4  A    between atoms: C_11  and  C_12
REMARK    5  A    between atoms: C_13  and  C_14
REMARK    6  A    between atoms: C_14  and  O_15
REMARK    7  A    between atoms: O_15  and  C_16
REMARK                            x       y       z     vdW  Elec       q    Type
REMARK                         _______ _______ _______ _____ _____    ______ ____
ROOT
ATOM      1  C   UNL     1      47.153   5.053  14.610  0.00  0.00    +0.000 A 
ATOM      2  C   UNL     1      48.138   5.969  15.002  0.00  0.00    +0.000 A 
ATOM      3  C   UNL     1      48.297   7.179  14.324  0.00  0.00    +0.000 A 
ATOM      4  C   UNL     1      47.476   7.497  13.239  0.00  0.00    +0.000 A 
ATOM      5  C   UNL     1      46.495   6.582  12.841  0.00  0.00    +0.000 A 
ATOM      6  C   UNL     1      46.330   5.345  13.498  0.00  0.00    +0.000 A 
ENDROOT
BRANCH   4   7
ATOM      7  C   UNL     1      47.691   8.810  12.567  0.00  0.00    +0.000 C 
ATOM      8  N   UNL     1      46.935   9.882  12.951  0.00  0.00    +0.000 N 
ATOM      9  O   UNL     1      48.525   8.941  11.678  0.00  0.00    +0.000 OA
ATOM     10  H   UNL     1      46.232   9.880  13.672  0.00  0.00    +0.000 HD
ATOM     11  H   UNL     1      47.116  10.756  12.472  0.00  0.00    +0.000 HD
ENDBRANCH   4   7
BRANCH   1  13
ATOM     12  C   UNL     1      47.307   3.787  16.621  0.00  0.00    +0.000 C 
ATOM     13  O   UNL     1      46.957   3.847  15.241  0.00  0.00    +0.000 OA
ENDBRANCH   1  13
BRANCH   6  14
ATOM     14  C   UNL     1      45.250   4.423  13.073  0.00  0.00    +0.000 C 
ATOM     15  C   UNL     1      45.065   3.966  11.821  0.00  0.00    +0.000 C 
BRANCH  15  16
ATOM     16  C   UNL     1      43.948   3.057  11.401  0.00  0.00    +0.000 C 
BRANCH  16  17
ATOM     17  O   UNL     1      43.690   3.296  10.018  0.00  0.00    +0.000 OA
BRANCH  17  18
ATOM     18  C   UNL     1      44.686   2.965   9.138  0.00  0.00    +0.000 A 
ATOM     19  C   UNL     1      45.238   1.694   8.969  0.00  0.00    +0.000 A 
ATOM     20  C   UNL     1      46.267   1.490   8.043  0.00  0.00    +0.000 A 
ATOM     21  C   UNL     1      46.743   2.557   7.285  0.00  0.00    +0.000 A 
ATOM     22 CL   UNL     1      48.012   2.301   6.151  0.00  0.00    +0.000 Cl
ATOM     23  C   UNL     1      46.198   3.828   7.443  0.00  0.00    +0.000 A 
ATOM     24  C   UNL     1      45.171   4.029   8.370  0.00  0.00    +0.000 A 
ENDBRANCH  17  18
ENDBRANCH  16  17
ENDBRANCH  15  16
ENDBRANCH   6  14
TORSDOF 6
ENDMDL
MODEL 4
REMARK VINA RESULT:    -6.517      4.360      7.668
REMARK INTER + INTRA:          -9.468
REMARK INTER:                  -8.803
REMARK INTRA:                  -0.665
REMARK UNBOUND:                -0.665
REMARK  Name = 
REMARK  7 active torsions:
REMARK  status: ('A' for Active; 'I' for Inactive)
REMARK    1  A    between atoms: C_1  and  O_2
REMARK    2  A    between atoms: O_2  and  C_3
REMARK    3  A    between atoms: C_6  and  C_7
REMARK    4  A    between atoms: C_11  and  C_12
REMARK    5  A    between atoms: C_13  and  C_14
REMARK    6  A    between atoms: C_14  and  O_15
REMARK    7  A    between atoms: O_15  and  C_16
REMARK                            x       y       z     vdW  Elec       q    Type
REMARK                         _______ _______ _______ _____ _____    ______ ____
ROOT
ATOM      1  C   UNL     1      47.289   5.848  12.755  0.00  0.00    +0.000 A 
ATOM      2  C   UNL     1      46.655   6.572  11.736  0.00  0.00    +0.000 A 
ATOM      3  C   UNL     1      45.333   6.298  11.383  0.00  0.00    +0.000 A 
ATOM      4  C   UNL     1      44.617   5.295  12.040  0.00  0.00    +0.000 A 
ATOM      5  C   UNL     1      45.248   4.565  13.054  0.00  0.00    +0.000 A 
ATOM      6  C   UNL     1      46.589   4.810  13.412  0.00  0.00    +0.000 A 
ENDROOT
BRANCH   4   7
ATOM      7  C   UNL     1      43.205   5.062  11.622  0.00  0.00    +0.000 C 
ATOM      8  N   UNL     1      42.314   6.096  11.696  0.00  0.00    +0.000 N 
ATOM      9  O   UNL     1      42.832   3.965  11.221  0.00  0.00    +0.000 OA
ATOM     10  H   UNL     1      42.520   7.032  12.004  0.00  0.00    +0.000 HD
ATOM     11  H   UNL     1      41.366   5.896  11.398  0.00  0.00    +0.000 HD
ENDBRANCH   4   7
BRANCH   1  13
ATOM     12  C   UNL     1      49.261   7.157  12.500  0.00  0.00    +0.000 C 
ATOM     13  O   UNL     1      48.589   6.074  13.138  0.00  0.00    +0.000 OA
ENDBRANCH   1  13
BRANCH   6  14
ATOM     14  C   UNL     1      47.206   4.046  14.523  0.00  0.00    +0.000 C 
ATOM     15  C   UNL     1      47.078   4.335  15.831  0.00  0.00    +0.000 C 
BRANCH  15  16
ATOM     16  C   UNL     1      47.733   3.569  16.942  0.00  0.00    +0.000 C 
BRANCH  16  17
ATOM     17  O   UNL     1      48.877   4.311  17.363  0.00  0.00    +0.000 OA
BRANCH  17  18
ATOM     18  C   UNL     1      50.046   3.612  17.511  0.00  0.00    +0.000 A 
ATOM     19  C   UNL     1      51.272   4.145  17.912  0.00  0.00    +0.000 A 
ATOM     20  C   UNL     1      52.400   3.323  18.008  0.00  0.00    +0.000 A 
ATOM     21  C   UNL     1      52.302   1.967  17.703  0.00  0.00    +0.000 A 
ATOM     22 CL   UNL     1      53.694   0.962  17.819  0.00  0.00    +0.000 Cl
ATOM     23  C   UNL     1      51.084   1.425  17.306  0.00  0.00    +0.000 A 
ATOM     24  C   UNL     1      49.959   2.248  17.209  0.00  0.00    +0.000 A 
ENDBRANCH  17  18
ENDBRANCH  16  17
ENDBRANCH  15  16
ENDBRANCH   6  14
TORSDOF 6
ENDMDL
MODEL 5
REMARK VINA RESULT:    -6.494      2.678      4.260
REMARK INTER + INTRA:          -9.437
REMARK INTER:                  -9.434
REMARK INTRA:                  -0.003
REMARK UNBOUND:                -0.665
REMARK  Name = 
REMARK  7 active torsions:
REMARK  status: ('A' for Active; 'I' for Inactive)
REMARK    1  A    between atoms: C_1  and  O_2
REMARK    2  A    between atoms: O_2  and  C_3
REMARK    3  A    between atoms: C_6  and  C_7
REMARK    4  A    between atoms: C_11  and  C_12
REMARK    5  A    between atoms: C_13  and  C_14
REMARK    6  A    between atoms: C_14  and  O_15
REMARK    7  A    between atoms: O_15  and  C_16
REMARK                            x       y       z     vdW  Elec       q    Type
REMARK                         _______ _______ _______ _____ _____    ______ ____
ROOT
ATOM      1  C   UNL     1      46.383   6.334  12.896  0.00  0.00    +0.000 A 
ATOM      2  C   UNL     1      47.021   7.484  13.378  0.00  0.00    +0.000 A 
ATOM      3  C   UNL     1      46.546   8.755  13.047  0.00  0.00    +0.000 A 
ATOM      4  C   UNL     1      45.426   8.902  12.227  0.00  0.00    +0.000 A 
ATOM      5  C   UNL     1      44.789   7.755  11.738  0.00  0.00    +0.000 A 
ATOM      6  C   UNL     1      45.263   6.463  12.042  0.00  0.00    +0.000 A 
ENDROOT
BRANCH   4   7
ATOM      7  C   UNL     1      44.965  10.286  11.923  0.00  0.00    +0.000 C 
ATOM      8  N   UNL     1      43.647  10.601  12.111  0.00  0.00    +0.000 N 
ATOM      9  O   UNL     1      45.740  11.139  11.504  0.00  0.00    +0.000 OA
ATOM     10  H   UNL     1      42.935   9.979  12.455  0.00  0.00    +0.000 HD
ATOM     11  H   UNL     1      43.377  11.554  11.897  0.00  0.00    +0.000 HD
ENDBRANCH   4   7
BRANCH   1  13
ATOM     12  C   UNL     1      47.042   4.766  14.562  0.00  0.00    +0.000 C 
ATOM     13  O   UNL     1      46.811   5.061  13.187  0.00  0.00    +0.000 OA
ENDBRANCH   1  13
BRANCH   6  14
ATOM     14  C   UNL     1      44.533   5.273  11.541  0.00  0.00    +0.000 C 
ATOM     15  C   UNL     1      44.901   3.994  11.740  0.00  0.00    +0.000 C 
BRANCH  15  16
ATOM     16  C   UNL     1      44.168   2.802  11.201  0.00  0.00    +0.000 C 
BRANCH  16  17
ATOM     17  O   UNL     1      43.816   3.085   9.848  0.00  0.00    +0.000 OA
BRANCH  17  18
ATOM     18  C   UNL     1      44.800   2.929   8.908  0.00  0.00    +0.000 A 
ATOM     19  C   UNL     1      45.247   3.910   8.022  0.00  0.00    +0.000 A 
ATOM     20  C   UNL     1      46.253   3.617   7.095  0.00  0.00    +0.000 A 
ATOM     21  C   UNL     1      46.813   2.342   7.055  0.00  0.00    +0.000 A 
ATOM     22 CL   UNL     1      48.047   1.986   5.909  0.00  0.00    +0.000 Cl
ATOM     23  C   UNL     1      46.377   1.358   7.936  0.00  0.00    +0.000 A 
ATOM     24  C   UNL     1      45.371   1.653   8.860  0.00  0.00    +0.000 A 
ENDBRANCH  17  18
ENDBRANCH  16  17
ENDBRANCH  15  16
ENDBRANCH   6  14
TORSDOF 6
ENDMDL
MODEL 6
REMARK VINA RESULT:    -6.428      4.180      7.431
REMARK INTER + INTRA:          -9.348
REMARK INTER:                  -8.733
REMARK INTRA:                  -0.614
REMARK UNBOUND:                -0.665
REMARK  Name = 
REMARK  7 active torsions:
REMARK  status: ('A' for Active; 'I' for Inactive)
REMARK    1  A    between atoms: C_1  and  O_2
REMARK    2  A    between atoms: O_2  and  C_3
REMARK    3  A    between atoms: C_6  and  C_7
REMARK    4  A    between atoms: C_11  and  C_12
REMARK    5  A    between atoms: C_13  and  C_14
REMARK    6  A    between atoms: C_14  and  O_15
REMARK    7  A    between atoms: O_15  and  C_16
REMARK                            x       y       z     vdW  Elec       q    Type
REMARK                         _______ _______ _______ _____ _____    ______ ____
ROOT
ATOM      1  C   UNL     1      44.224   3.068   9.953  0.00  0.00    +0.000 A 
ATOM      2  C   UNL     1      44.478   1.853   9.302  0.00  0.00    +0.000 A 
ATOM      3  C   UNL     1      45.448   1.770   8.302  0.00  0.00    +0.000 A 
ATOM      4  C   UNL     1      46.183   2.898   7.931  0.00  0.00    +0.000 A 
ATOM      5  C   UNL     1      45.928   4.115   8.574  0.00  0.00    +0.000 A 
ATOM      6  C   UNL     1      44.938   4.227   9.572  0.00  0.00    +0.000 A 
ENDROOT
BRANCH   4   7
ATOM      7  C   UNL     1      47.211   2.737   6.864  0.00  0.00    +0.000 C 
ATOM      8  N   UNL     1      47.087   3.461   5.710  0.00  0.00    +0.000 N 
ATOM      9  O   UNL     1      48.157   1.969   7.001  0.00  0.00    +0.000 OA
ATOM     10  H   UNL     1      46.355   4.120   5.503  0.00  0.00    +0.000 HD
ATOM     11  H   UNL     1      47.810   3.325   5.013  0.00  0.00    +0.000 HD
ENDBRANCH   4   7
BRANCH   1  13
ATOM     12  C   UNL     1      43.596   2.641  12.210  0.00  0.00    +0.000 C 
ATOM     13  O   UNL     1      43.277   3.205  10.941  0.00  0.00    +0.000 OA
ENDBRANCH   1  13
BRANCH   6  14
ATOM     14  C   UNL     1      44.730   5.523  10.261  0.00  0.00    +0.000 C 
ATOM     15  C   UNL     1      45.655   6.173  10.991  0.00  0.00    +0.000 C 
BRANCH  15  16
ATOM     16  C   UNL     1      45.420   7.470  11.707  0.00  0.00    +0.000 C 
BRANCH  16  17
ATOM     17  O   UNL     1      46.436   7.608  12.700  0.00  0.00    +0.000 OA
BRANCH  17  18
ATOM     18  C   UNL     1      47.620   8.166  12.298  0.00  0.00    +0.000 A 
ATOM     19  C   UNL     1      47.802   9.484  11.876  0.00  0.00    +0.000 A 
ATOM     20  C   UNL     1      49.066   9.927  11.473  0.00  0.00    +0.000 A 
ATOM     21  C   UNL     1      50.150   9.053  11.493  0.00  0.00    +0.000 A 
ATOM     22 CL   UNL     1      51.702   9.602  10.992  0.00  0.00    +0.000 Cl
ATOM     23  C   UNL     1      49.981   7.737  11.915  0.00  0.00    +0.000 A 
ATOM     24  C   UNL     1      48.717   7.297  12.315  0.00  0.00    +0.000 A 
ENDBRANCH  17  18
ENDBRANCH  16  17
ENDBRANCH  15  16
ENDBRANCH   6  14
TORSDOF 6
ENDMDL
MODEL 7
REMARK VINA RESULT:    -6.318      4.113      7.554
REMARK INTER + INTRA:          -9.199
REMARK INTER:                  -8.575
REMARK INTRA:                  -0.624
REMARK UNBOUND:                -0.665
REMARK  Name = 
REMARK  7 active torsions:
REMARK  status: ('A' for Active; 'I' for Inactive)
REMARK    1  A    between atoms: C_1  and  O_2
REMARK    2  A    between atoms: O_2  and  C_3
REMARK    3  A    between atoms: C_6  and  C_7
REMARK    4  A    between atoms: C_11  and  C_12
REMARK    5  A    between atoms: C_13  and  C_14
REMARK    6  A    between atoms: C_14  and  O_15
REMARK    7  A    between atoms: O_15  and  C_16
REMARK                            x       y       z     vdW  Elec       q    Type
REMARK                         _______ _______ _______ _____ _____    ______ ____
ROOT
ATOM      1  C   UNL     1      46.597   6.174  12.126  0.00  0.00    +0.000 A 
ATOM      2  C   UNL     1      45.978   6.161  10.869  0.00  0.00    +0.000 A 
ATOM      3  C   UNL     1      45.164   5.093  10.486  0.00  0.00    +0.000 A 
ATOM      4  C   UNL     1      44.953   4.017  11.350  0.00  0.00    +0.000 A 
ATOM      5  C   UNL     1      45.574   4.023  12.605  0.00  0.00    +0.000 A 
ATOM      6  C   UNL     1      46.417   5.080  13.004  0.00  0.00    +0.000 A 
ENDROOT
BRANCH   4   7
ATOM      7  C   UNL     1      44.063   2.916  10.884  0.00  0.00    +0.000 C 
ATOM      8  N   UNL     1      44.487   2.110   9.864  0.00  0.00    +0.000 N 
ATOM      9  O   UNL     1      42.963   2.726  11.392  0.00  0.00    +0.000 OA
ATOM     10  H   UNL     1      45.370   2.178   9.386  0.00  0.00    +0.000 HD
ATOM     11  H   UNL     1      43.853   1.371   9.580  0.00  0.00    +0.000 HD
ENDBRANCH   4   7
BRANCH   1  13
ATOM     12  C   UNL     1      48.402   7.645  11.630  0.00  0.00    +0.000 C 
ATOM     13  O   UNL     1      47.411   7.197  12.551  0.00  0.00    +0.000 OA
ENDBRANCH   1  13
BRANCH   6  14
ATOM     14  C   UNL     1      47.020   5.070  14.359  0.00  0.00    +0.000 C 
ATOM     15  C   UNL     1      46.971   4.040  15.224  0.00  0.00    +0.000 C 
BRANCH  15  16
ATOM     16  C   UNL     1      47.561   4.056  16.603  0.00  0.00    +0.000 C 
BRANCH  16  17
ATOM     17  O   UNL     1      48.211   2.803  16.811  0.00  0.00    +0.000 OA
BRANCH  17  18
ATOM     18  C   UNL     1      49.537   2.844  17.152  0.00  0.00    +0.000 A 
ATOM     19  C   UNL     1      50.415   1.760  17.150  0.00  0.00    +0.000 A 
ATOM     20  C   UNL     1      51.749   1.933  17.538  0.00  0.00    +0.000 A 
ATOM     21  C   UNL     1      52.203   3.190  17.928  0.00  0.00    +0.000 A 
ATOM     22 CL   UNL     1      53.843   3.396  18.408  0.00  0.00    +0.000 Cl
ATOM     23  C   UNL     1      51.336   4.279  17.930  0.00  0.00    +0.000 A 
ATOM     24  C   UNL     1      50.005   4.103  17.544  0.00  0.00    +0.000 A 
ENDBRANCH  17  18
ENDBRANCH  16  17
ENDBRANCH  15  16
ENDBRANCH   6  14
TORSDOF 6
ENDMDL
MODEL 8
REMARK VINA RESULT:    -6.124      4.228      7.498
REMARK INTER + INTRA:          -8.937
REMARK INTER:                  -8.258
REMARK INTRA:                  -0.679
REMARK UNBOUND:                -0.665
REMARK  Name = 
REMARK  7 active torsions:
REMARK  status: ('A' for Active; 'I' for Inactive)
REMARK    1  A    between atoms: C_1  and  O_2
REMARK    2  A    between atoms: O_2  and  C_3
REMARK    3  A    between atoms: C_6  and  C_7
REMARK    4  A    between atoms: C_11  and  C_12
REMARK    5  A    between atoms: C_13  and  C_14
REMARK    6  A    between atoms: C_14  and  O_15
REMARK    7  A    between atoms: O_15  and  C_16
REMARK                            x       y       z     vdW  Elec       q    Type
REMARK                         _______ _______ _______ _____ _____    ______ ____
ROOT
ATOM      1  C   UNL     1      44.100   3.205  10.153  0.00  0.00    +0.000 A 
ATOM      2  C   UNL     1      44.358   1.994   9.497  0.00  0.00    +0.000 A 
ATOM      3  C   UNL     1      45.318   1.920   8.487  0.00  0.00    +0.000 A 
ATOM      4  C   UNL     1      46.040   3.055   8.110  0.00  0.00    +0.000 A 
ATOM      5  C   UNL     1      45.782   4.269   8.759  0.00  0.00    +0.000 A 
ATOM      6  C   UNL     1      44.801   4.371   9.767  0.00  0.00    +0.000 A 
ENDROOT
BRANCH   4   7
ATOM      7  C   UNL     1      47.059   2.904   7.033  0.00  0.00    +0.000 C 
ATOM      8  N   UNL     1      47.028   3.762   5.968  0.00  0.00    +0.000 N 
ATOM      9  O   UNL     1      47.914   2.028   7.082  0.00  0.00    +0.000 OA
ATOM     10  H   UNL     1      46.373   4.515   5.836  0.00  0.00    +0.000 HD
ATOM     11  H   UNL     1      47.741   3.628   5.261  0.00  0.00    +0.000 HD
ENDBRANCH   4   7
BRANCH   1  13
ATOM     12  C   UNL     1      43.510   2.792  12.422  0.00  0.00    +0.000 C 
ATOM     13  O   UNL     1      43.163   3.333  11.151  0.00  0.00    +0.000 OA
ENDBRANCH   1  13
BRANCH   6  14
ATOM     14  C   UNL     1      44.590   5.664  10.461  0.00  0.00    +0.000 C 
ATOM     15  C   UNL     1      45.442   6.223  11.340  0.00  0.00    +0.000 C 
BRANCH  15  16
ATOM     16  C   UNL     1      45.199   7.518  12.057  0.00  0.00    +0.000 C 
BRANCH  16  17
ATOM     17  O   UNL     1      46.311   8.374  11.794  0.00  0.00    +0.000 OA
BRANCH  17  18
ATOM     18  C   UNL     1      47.407   8.229  12.603  0.00  0.00    +0.000 A 
ATOM     19  C   UNL     1      47.424   8.381  13.990  0.00  0.00    +0.000 A 
ATOM     20  C   UNL     1      48.618   8.221  14.701  0.00  0.00    +0.000 A 
ATOM     21  C   UNL     1      49.795   7.909  14.025  0.00  0.00    +0.000 A 
ATOM     22 CL   UNL     1      51.262   7.719  14.905  0.00  0.00    +0.000 Cl
ATOM     23  C   UNL     1      49.788   7.752  12.642  0.00  0.00    +0.000 A 
ATOM     24  C   UNL     1      48.595   7.913  11.934  0.00  0.00    +0.000 A 
ENDBRANCH  17  18
ENDBRANCH  16  17
ENDBRANCH  15  16
ENDBRANCH   6  14
TORSDOF 6
ENDMDL
MODEL 9
REMARK VINA RESULT:    -5.913      4.657      8.044
REMARK INTER + INTRA:          -8.652
REMARK INTER:                  -7.888
REMARK INTRA:                  -0.764
REMARK UNBOUND:                -0.665
REMARK  Name = 
REMARK  7 active torsions:
REMARK  status: ('A' for Active; 'I' for Inactive)
REMARK    1  A    between atoms: C_1  and  O_2
REMARK    2  A    between atoms: O_2  and  C_3
REMARK    3  A    between atoms: C_6  and  C_7
REMARK    4  A    between atoms: C_11  and  C_12
REMARK    5  A    between atoms: C_13  and  C_14
REMARK    6  A    between atoms: C_14  and  O_15
REMARK    7  A    between atoms: O_15  and  C_16
REMARK                            x       y       z     vdW  Elec       q    Type
REMARK                         _______ _______ _______ _____ _____    ______ ____
ROOT
ATOM      1  C   UNL     1      47.157   6.220  12.421  0.00  0.00    +0.000 A 
ATOM      2  C   UNL     1      46.479   6.620  11.262  0.00  0.00    +0.000 A 
ATOM      3  C   UNL     1      45.168   6.202  11.023  0.00  0.00    +0.000 A 
ATOM      4  C   UNL     1      44.509   5.377  11.935  0.00  0.00    +0.000 A 
ATOM      5  C   UNL     1      45.185   4.970  13.092  0.00  0.00    +0.000 A 
ATOM      6  C   UNL     1      46.515   5.361  13.344  0.00  0.00    +0.000 A 
ENDROOT
BRANCH   4   7
ATOM      7  C   UNL     1      43.107   4.978  11.624  0.00  0.00    +0.000 C 
ATOM      8  N   UNL     1      42.117   5.917  11.710  0.00  0.00    +0.000 N 
ATOM      9  O   UNL     1      42.828   3.828  11.301  0.00  0.00    +0.000 OA
ATOM     10  H   UNL     1      42.242   6.885  11.959  0.00  0.00    +0.000 HD
ATOM     11  H   UNL     1      41.179   5.605  11.486  0.00  0.00    +0.000 HD
ENDBRANCH   4   7
BRANCH   1  13
ATOM     12  C   UNL     1      49.015   7.600  11.864  0.00  0.00    +0.000 C 
ATOM     13  O   UNL     1      48.448   6.598  12.703  0.00  0.00    +0.000 OA
ENDBRANCH   1  13
BRANCH   6  14
ATOM     14  C   UNL     1      47.180   4.946  14.603  0.00  0.00    +0.000 C 
ATOM     15  C   UNL     1      47.017   3.757  15.212  0.00  0.00    +0.000 C 
BRANCH  15  16
ATOM     16  C   UNL     1      47.674   3.363  16.502  0.00  0.00    +0.000 C 
BRANCH  16  17
ATOM     17  O   UNL     1      46.921   3.943  17.567  0.00  0.00    +0.000 OA
BRANCH  17  18
ATOM     18  C   UNL     1      47.497   4.996  18.227  0.00  0.00    +0.000 A 
ATOM     19  C   UNL     1      46.833   5.905  19.052  0.00  0.00    +0.000 A 
ATOM     20  C   UNL     1      47.536   6.952  19.657  0.00  0.00    +0.000 A 
ATOM     21  C   UNL     1      48.905   7.090  19.438  0.00  0.00    +0.000 A 
ATOM     22 CL   UNL     1      49.764   8.382  20.181  0.00  0.00    +0.000 Cl
ATOM     23  C   UNL     1      49.578   6.187  18.620  0.00  0.00    +0.000 A 
ATOM     24  C   UNL     1      48.872   5.143  18.015  0.00  0.00    +0.000 A 
ENDBRANCH  17  18
ENDBRANCH  16  17
ENDBRANCH  15  16
ENDBRANCH   6  14
TORSDOF 6
ENDMDL
