MODEL 1
REMARK VINA RESULT:    -7.900      0.000      0.000
REMARK INTER + INTRA:         -11.927
REMARK INTER:                 -11.133
REMARK INTRA:                  -0.794
REMARK UNBOUND:                -0.794
REMARK  Name = 
REMARK  8 active torsions:
REMARK  status: ('A' for Active; 'I' for Inactive)
REMARK    1  A    between atoms: C_1  and  C_2
REMARK    2  A    between atoms: C_2  and  C_3
REMARK    3  A    between atoms: C_2  and  C_14
REMARK    4  A    between atoms: C_3  and  O_4
REMARK    5  A    between atoms: O_4  and  C_5
REMARK    6  A    between atoms: C_8  and  C_9
REMARK    7  A    between atoms: C_18  and  O_19
REMARK    8  A    between atoms: O_19  and  C_20
REMARK                            x       y       z     vdW  Elec       q    Type
REMARK                         _______ _______ _______ _____ _____    ______ ____
ROOT
ATOM      1  C   UNL     1      44.018   3.188  12.723  0.00  0.00    +0.000 C 
ATOM      2  C   UNL     1      44.064   4.661  12.296  0.00  0.00    +0.000 C 
ENDROOT
BRANCH   2   3
ATOM      3  C   UNL     1      45.434   5.250  12.596  0.00  0.00    +0.000 A 
ATOM      4  C   UNL     1      45.983   6.220  11.747  0.00  0.00    +0.000 A 
ATOM      5  C   UNL     1      47.215   6.804  12.043  0.00  0.00    +0.000 A 
ATOM      6  C   UNL     1      47.921   6.427  13.188  0.00  0.00    +0.000 A 
ATOM      7  C   UNL     1      47.398   5.451  14.029  0.00  0.00    +0.000 A 
ATOM      8  C   UNL     1      46.164   4.869  13.733  0.00  0.00    +0.000 A 
BRANCH   7   9
ATOM      9  O   UNL     1      47.979   5.019  15.194  0.00  0.00    +0.000 OA
BRANCH   9  10
ATOM     10  C   UNL     1      47.214   4.188  16.095  0.00  0.00    +0.000 C 
ATOM     11  C   UNL     1      47.162   4.597  17.580  0.00  0.00    +0.000 C 
ATOM     12  N   UNL     1      47.599   3.252  17.983  0.00  0.00    +0.000 NA
ATOM     13  C   UNL     1      47.950   2.928  16.593  0.00  0.00    +0.000 C 
ATOM     14  H   UNL     1      46.859   2.670  18.371  0.00  0.00    +0.000 HD
ENDBRANCH   9  10
ENDBRANCH   7   9
ENDBRANCH   2   3
BRANCH   2  15
ATOM     15  C   UNL     1      43.676   4.812  10.814  0.00  0.00    +0.000 C 
BRANCH  15  16
ATOM     16  O   UNL     1      43.528   3.514  10.218  0.00  0.00    +0.000 OA
BRANCH  16  17
ATOM     17  C   UNL     1      44.520   3.235   9.304  0.00  0.00    +0.000 A 
ATOM     18  C   UNL     1      45.027   4.287   8.543  0.00  0.00    +0.000 A 
ATOM     19  N   UNL     1      46.012   4.126   7.616  0.00  0.00    +0.000 NA
ATOM     20  C   UNL     1      46.466   2.845   7.496  0.00  0.00    +0.000 A 
ATOM     21  C   UNL     1      45.958   1.798   8.250  0.00  0.00    +0.000 A 
ATOM     22  N   UNL     1      44.970   1.969   9.164  0.00  0.00    +0.000 NA
BRANCH  20  23
ATOM     23  C   UNL     1      47.555   2.570   6.517  0.00  0.00    +0.000 C 
ATOM     24  N   UNL     1      47.423   3.151   5.286  0.00  0.00    +0.000 N 
ATOM     25  O   UNL     1      48.515   1.861   6.794  0.00  0.00    +0.000 OA
ATOM     26  H   UNL     1      46.619   3.734   5.080  0.00  0.00    +0.000 HD
ATOM     27  H   UNL     1      48.137   2.997   4.588  0.00  0.00    +0.000 HD
ENDBRANCH  20  23
ENDBRANCH  16  17
ENDBRANCH  15  16
ENDBRANCH   2  15
TORSDOF 7
ENDMDL
MODEL 2
REMARK VINA RESULT:    -6.810      1.982      8.353
REMARK INTER + INTRA:         -10.391
REMARK INTER:                  -9.759
REMARK INTRA:                  -0.633
REMARK UNBOUND:                -0.794
REMARK  Name = 
REMARK  8 active torsions:
REMARK  status: ('A' for Active; 'I' for Inactive)
REMARK    1  A    between atoms: C_1  and  C_2
REMARK    2  A    between atoms: C_2  and  C_3
REMARK    3  A    between atoms: C_2  and  C_14
REMARK    4  A    between atoms: C_3  and  O_4
REMARK    5  A    between atoms: O_4  and  C_5
REMARK    6  A    between atoms: C_8  and  C_9
REMARK    7  A    between atoms: C_18  and  O_19
REMARK    8  A    between atoms: O_19  and  C_20
REMARK                            x       y       z     vdW  Elec       q    Type
REMARK                         _______ _______ _______ _____ _____    ______ ____
ROOT
ATOM      1  C   UNL     1      46.919   6.838  11.292  0.00  0.00    +0.000 C 
ATOM      2  C   UNL     1      45.612   6.153  11.709  0.00  0.00    +0.000 C 
ENDROOT
BRANCH   2   3
ATOM      3  C   UNL     1      45.265   5.044  10.727  0.00  0.00    +0.000 A 
ATOM      4  C   UNL     1      44.316   4.073  11.071  0.00  0.00    +0.000 A 
ATOM      5  C   UNL     1      43.953   3.084  10.155  0.00  0.00    +0.000 A 
ATOM      6  C   UNL     1      44.534   3.046   8.885  0.00  0.00    +0.000 A 
ATOM      7  C   UNL     1      45.492   3.992   8.537  0.00  0.00    +0.000 A 
ATOM      8  C   UNL     1      45.853   4.983   9.453  0.00  0.00    +0.000 A 
BRANCH   7   9
ATOM      9  O   UNL     1      46.109   4.078   7.316  0.00  0.00    +0.000 OA
BRANCH   9  10
ATOM     10  C   UNL     1      46.534   2.866   6.656  0.00  0.00    +0.000 C 
ATOM     11  C   UNL     1      47.961   2.357   6.936  0.00  0.00    +0.000 C 
ATOM     12  N   UNL     1      48.240   2.295   5.493  0.00  0.00    +0.000 NA
ATOM     13  C   UNL     1      47.017   3.057   5.204  0.00  0.00    +0.000 C 
ATOM     14  H   UNL     1      48.244   1.352   5.107  0.00  0.00    +0.000 HD
ENDBRANCH   9  10
ENDBRANCH   7   9
ENDBRANCH   2   3
BRANCH   2  15
ATOM     15  C   UNL     1      45.703   5.640  13.158  0.00  0.00    +0.000 C 
BRANCH  15  16
ATOM     16  O   UNL     1      46.884   4.837  13.314  0.00  0.00    +0.000 OA
BRANCH  16  17
ATOM     17  C   UNL     1      47.262   4.702  14.632  0.00  0.00    +0.000 A 
ATOM     18  C   UNL     1      47.997   5.733  15.214  0.00  0.00    +0.000 A 
ATOM     19  N   UNL     1      48.417   5.706  16.509  0.00  0.00    +0.000 NA
ATOM     20  C   UNL     1      48.053   4.583  17.194  0.00  0.00    +0.000 A 
ATOM     21  C   UNL     1      47.326   3.556  16.613  0.00  0.00    +0.000 A 
ATOM     22  N   UNL     1      46.922   3.590  15.318  0.00  0.00    +0.000 NA
BRANCH  20  23
ATOM     23  C   UNL     1      48.453   4.467  18.624  0.00  0.00    +0.000 C 
ATOM     24  N   UNL     1      48.374   3.217  19.175  0.00  0.00    +0.000 N 
ATOM     25  O   UNL     1      48.829   5.434  19.276  0.00  0.00    +0.000 OA
ATOM     26  H   UNL     1      48.060   2.432  18.615  0.00  0.00    +0.000 HD
ATOM     27  H   UNL     1      48.637   3.085  20.141  0.00  0.00    +0.000 HD
ENDBRANCH  20  23
ENDBRANCH  16  17
ENDBRANCH  15  16
ENDBRANCH   2  15
TORSDOF 7
ENDMDL
MODEL 3
REMARK VINA RESULT:    -6.410      2.138      8.252
REMARK INTER + INTRA:          -9.828
REMARK INTER:                  -9.263
REMARK INTRA:                  -0.564
REMARK UNBOUND:                -0.794
REMARK  Name = 
REMARK  8 active torsions:
REMARK  status: ('A' for Active; 'I' for Inactive)
REMARK    1  A    between atoms: C_1  and  C_2
REMARK    2  A    between atoms: C_2  and  C_3
REMARK    3  A    between atoms: C_2  and  C_14
REMARK    4  A    between atoms: C_3  and  O_4
REMARK    5  A    between atoms: O_4  and  C_5
REMARK    6  A    between atoms: C_8  and  C_9
REMARK    7  A    between atoms: C_18  and  O_19
REMARK    8  A    between atoms: O_19  and  C_20
REMARK                            x       y       z     vdW  Elec       q    Type
REMARK                         _______ _______ _______ _____ _____    ______ ____
ROOT
ATOM      1  C   UNL     1      47.548   6.217  12.985  0.00  0.00    +0.000 C 
ATOM      2  C   UNL     1      46.414   5.371  13.578  0.00  0.00    +0.000 C 
ENDROOT
BRANCH   2   3
ATOM      3  C   UNL     1      45.311   5.178  12.548  0.00  0.00    +0.000 A 
ATOM      4  C   UNL     1      43.968   5.280  12.930  0.00  0.00    +0.000 A 
ATOM      5  C   UNL     1      42.951   5.157  11.981  0.00  0.00    +0.000 A 
ATOM      6  C   UNL     1      43.259   4.926  10.638  0.00  0.00    +0.000 A 
ATOM      7  C   UNL     1      44.588   4.802  10.248  0.00  0.00    +0.000 A 
ATOM      8  C   UNL     1      45.604   4.927  11.198  0.00  0.00    +0.000 A 
BRANCH   7   9
ATOM      9  O   UNL     1      45.018   4.606   8.961  0.00  0.00    +0.000 OA
BRANCH   9  10
ATOM     10  C   UNL     1      44.862   3.302   8.359  0.00  0.00    +0.000 C 
ATOM     11  C   UNL     1      44.925   2.071   9.284  0.00  0.00    +0.000 C 
ATOM     12  N   UNL     1      45.957   1.462   8.432  0.00  0.00    +0.000 NA
ATOM     13  C   UNL     1      46.142   2.732   7.714  0.00  0.00    +0.000 C 
ATOM     14  H   UNL     1      45.621   0.699   7.846  0.00  0.00    +0.000 HD
ENDBRANCH   9  10
ENDBRANCH   7   9
ENDBRANCH   2   3
BRANCH   2  15
ATOM     15  C   UNL     1      46.954   4.031  14.111  0.00  0.00    +0.000 C 
BRANCH  15  16
ATOM     16  O   UNL     1      46.637   3.902  15.506  0.00  0.00    +0.000 OA
BRANCH  16  17
ATOM     17  C   UNL     1      47.757   3.919  16.307  0.00  0.00    +0.000 A 
ATOM     18  C   UNL     1      48.140   5.131  16.878  0.00  0.00    +0.000 A 
ATOM     19  N   UNL     1      49.226   5.261  17.689  0.00  0.00    +0.000 NA
ATOM     20  C   UNL     1      49.909   4.099  17.902  0.00  0.00    +0.000 A 
ATOM     21  C   UNL     1      49.531   2.894  17.331  0.00  0.00    +0.000 A 
ATOM     22  N   UNL     1      48.452   2.780  16.515  0.00  0.00    +0.000 NA
BRANCH  20  23
ATOM     23  C   UNL     1      51.105   4.135  18.789  0.00  0.00    +0.000 C 
ATOM     24  N   UNL     1      52.062   3.187  18.553  0.00  0.00    +0.000 N 
ATOM     25  O   UNL     1      51.228   4.963  19.683  0.00  0.00    +0.000 OA
ATOM     26  H   UNL     1      51.938   2.511  17.806  0.00  0.00    +0.000 HD
ATOM     27  H   UNL     1      52.894   3.171  19.126  0.00  0.00    +0.000 HD
ENDBRANCH  20  23
ENDBRANCH  16  17
ENDBRANCH  15  16
ENDBRANCH   2  15
TORSDOF 7
ENDMDL
MODEL 4
REMARK VINA RESULT:    -6.380      2.272      2.643
REMARK INTER + INTRA:          -9.785
REMARK INTER:                  -9.569
REMARK INTRA:                  -0.216
REMARK UNBOUND:                -0.794
REMARK  Name = 
REMARK  8 active torsions:
REMARK  status: ('A' for Active; 'I' for Inactive)
REMARK    1  A    between atoms: C_1  and  C_2
REMARK    2  A    between atoms: C_2  and  C_3
REMARK    3  A    between atoms: C_2  and  C_14
REMARK    4  A    between atoms: C_3  and  O_4
REMARK    5  A    between atoms: O_4  and  C_5
REMARK    6  A    between atoms: C_8  and  C_9
REMARK    7  A    between atoms: C_18  and  O_19
REMARK    8  A    between atoms: O_19  and  C_20
REMARK                            x       y       z     vdW  Elec       q    Type
REMARK                         _______ _______ _______ _____ _____    ______ ____
ROOT
ATOM      1  C   UNL     1      43.238   4.624  13.386  0.00  0.00    +0.000 C 
ATOM      2  C   UNL     1      43.685   4.938  11.952  0.00  0.00    +0.000 C 
ENDROOT
BRANCH   2   3
ATOM      3  C   UNL     1      44.819   5.951  11.968  0.00  0.00    +0.000 A 
ATOM      4  C   UNL     1      44.596   7.262  11.529  0.00  0.00    +0.000 A 
ATOM      5  C   UNL     1      45.618   8.212  11.589  0.00  0.00    +0.000 A 
ATOM      6  C   UNL     1      46.878   7.867  12.085  0.00  0.00    +0.000 A 
ATOM      7  C   UNL     1      47.119   6.563  12.505  0.00  0.00    +0.000 A 
ATOM      8  C   UNL     1      46.096   5.614  12.446  0.00  0.00    +0.000 A 
BRANCH   7   9
ATOM      9  O   UNL     1      48.300   6.111  13.036  0.00  0.00    +0.000 OA
BRANCH   9  10
ATOM     10  C   UNL     1      48.787   6.694  14.265  0.00  0.00    +0.000 C 
ATOM     11  C   UNL     1      48.125   7.997  14.754  0.00  0.00    +0.000 C 
ATOM     12  N   UNL     1      49.441   8.646  14.858  0.00  0.00    +0.000 NA
ATOM     13  C   UNL     1      50.066   7.542  14.115  0.00  0.00    +0.000 C 
ATOM     14  H   UNL     1      49.782   8.750  15.812  0.00  0.00    +0.000 HD
ENDBRANCH   9  10
ENDBRANCH   7   9
ENDBRANCH   2   3
BRANCH   2  15
ATOM     15  C   UNL     1      44.067   3.646  11.205  0.00  0.00    +0.000 C 
BRANCH  15  16
ATOM     16  O   UNL     1      43.730   3.775   9.814  0.00  0.00    +0.000 OA
BRANCH  16  17
ATOM     17  C   UNL     1      44.742   3.345   8.984  0.00  0.00    +0.000 A 
ATOM     18  C   UNL     1      45.098   1.998   9.023  0.00  0.00    +0.000 A 
ATOM     19  N   UNL     1      46.078   1.466   8.242  0.00  0.00    +0.000 NA
ATOM     20  C   UNL     1      46.684   2.363   7.412  0.00  0.00    +0.000 A 
ATOM     21  C   UNL     1      46.333   3.704   7.376  0.00  0.00    +0.000 A 
ATOM     22  N   UNL     1      45.361   4.225   8.167  0.00  0.00    +0.000 NA
BRANCH  20  23
ATOM     23  C   UNL     1      47.760   1.874   6.506  0.00  0.00    +0.000 C 
ATOM     24  N   UNL     1      48.803   2.732   6.286  0.00  0.00    +0.000 N 
ATOM     25  O   UNL     1      47.718   0.767   5.982  0.00  0.00    +0.000 OA
ATOM     26  H   UNL     1      48.816   3.643   6.732  0.00  0.00    +0.000 HD
ATOM     27  H   UNL     1      49.560   2.445   5.682  0.00  0.00    +0.000 HD
ENDBRANCH  20  23
ENDBRANCH  16  17
ENDBRANCH  15  16
ENDBRANCH   2  15
TORSDOF 7
ENDMDL
MODEL 5
REMARK VINA RESULT:    -6.369      2.519      3.678
REMARK INTER + INTRA:          -9.769
REMARK INTER:                  -9.285
REMARK INTRA:                  -0.483
REMARK UNBOUND:                -0.794
REMARK  Name = 
REMARK  8 active torsions:
REMARK  status: ('A' for Active; 'I' for Inactive)
REMARK    1  A    between atoms: C_1  and  C_2
REMARK    2  A    between atoms: C_2  and  C_3
REMARK    3  A    between atoms: C_2  and  C_14
REMARK    4  A    between atoms: C_3  and  O_4
REMARK    5  A    between atoms: O_4  and  C_5
REMARK    6  A    between atoms: C_8  and  C_9
REMARK    7  A    between atoms: C_18  and  O_19
REMARK    8  A    between atoms: O_19  and  C_20
REMARK                            x       y       z     vdW  Elec       q    Type
REMARK                         _______ _______ _______ _____ _____    ______ ____
ROOT
ATOM      1  C   UNL     1      43.440   5.588  12.882  0.00  0.00    +0.000 C 
ATOM      2  C   UNL     1      44.554   5.355  11.854  0.00  0.00    +0.000 C 
ENDROOT
BRANCH   2   3
ATOM      3  C   UNL     1      45.892   5.808  12.418  0.00  0.00    +0.000 A 
ATOM      4  C   UNL     1      46.382   5.243  13.603  0.00  0.00    +0.000 A 
ATOM      5  C   UNL     1      47.632   5.615  14.099  0.00  0.00    +0.000 A 
ATOM      6  C   UNL     1      48.412   6.557  13.424  0.00  0.00    +0.000 A 
ATOM      7  C   UNL     1      47.929   7.141  12.257  0.00  0.00    +0.000 A 
ATOM      8  C   UNL     1      46.679   6.767  11.760  0.00  0.00    +0.000 A 
BRANCH   7   9
ATOM      9  O   UNL     1      48.609   8.052  11.491  0.00  0.00    +0.000 OA
BRANCH   9  10
ATOM     10  C   UNL     1      48.795   9.394  11.992  0.00  0.00    +0.000 C 
ATOM     11  C   UNL     1      48.115   9.763  13.325  0.00  0.00    +0.000 C 
ATOM     12  N   UNL     1      47.488  10.938  12.700  0.00  0.00    +0.000 NA
ATOM     13  C   UNL     1      47.865  10.452  11.364  0.00  0.00    +0.000 C 
ATOM     14  H   UNL     1      47.917  11.826  12.955  0.00  0.00    +0.000 HD
ENDBRANCH   9  10
ENDBRANCH   7   9
ENDBRANCH   2   3
BRANCH   2  15
ATOM     15  C   UNL     1      44.580   3.883  11.402  0.00  0.00    +0.000 C 
BRANCH  15  16
ATOM     16  O   UNL     1      43.971   3.763  10.107  0.00  0.00    +0.000 OA
BRANCH  16  17
ATOM     17  C   UNL     1      44.845   3.290   9.153  0.00  0.00    +0.000 A 
ATOM     18  C   UNL     1      45.278   4.169   8.163  0.00  0.00    +0.000 A 
ATOM     19  N   UNL     1      46.145   3.809   7.176  0.00  0.00    +0.000 NA
ATOM     20  C   UNL     1      46.559   2.511   7.240  0.00  0.00    +0.000 A 
ATOM     21  C   UNL     1      46.125   1.634   8.223  0.00  0.00    +0.000 A 
ATOM     22  N   UNL     1      45.252   2.003   9.195  0.00  0.00    +0.000 NA
BRANCH  20  23
ATOM     23  C   UNL     1      47.522   2.025   6.212  0.00  0.00    +0.000 C 
ATOM     24  N   UNL     1      48.023   2.968   5.358  0.00  0.00    +0.000 N 
ATOM     25  O   UNL     1      47.847   0.846   6.130  0.00  0.00    +0.000 OA
ATOM     26  H   UNL     1      47.739   3.938   5.446  0.00  0.00    +0.000 HD
ATOM     27  H   UNL     1      48.682   2.690   4.645  0.00  0.00    +0.000 HD
ENDBRANCH  20  23
ENDBRANCH  16  17
ENDBRANCH  15  16
ENDBRANCH   2  15
TORSDOF 7
ENDMDL
MODEL 6
REMARK VINA RESULT:    -6.326      3.299      7.731
REMARK INTER + INTRA:          -9.709
REMARK INTER:                  -8.836
REMARK INTRA:                  -0.873
REMARK UNBOUND:                -0.794
REMARK  Name = 
REMARK  8 active torsions:
REMARK  status: ('A' for Active; 'I' for Inactive)
REMARK    1  A    between atoms: C_1  and  C_2
REMARK    2  A    between atoms: C_2  and  C_3
REMARK    3  A    between atoms: C_2  and  C_14
REMARK    4  A    between atoms: C_3  and  O_4
REMARK    5  A    between atoms: O_4  and  C_5
REMARK    6  A    between atoms: C_8  and  C_9
REMARK    7  A    between atoms: C_18  and  O_19
REMARK    8  A    between atoms: O_19  and  C_20
REMARK                            x       y       z     vdW  Elec       q    Type
REMARK                         _______ _______ _______ _____ _____    ______ ____
ROOT
ATOM      1  C   UNL     1      49.669   8.618  11.275  0.00  0.00    +0.000 C 
ATOM      2  C   UNL     1      48.842   8.484  12.560  0.00  0.00    +0.000 C 
ENDROOT
BRANCH   2   3
ATOM      3  C   UNL     1      47.377   8.262  12.219  0.00  0.00    +0.000 A 
ATOM      4  C   UNL     1      46.469   9.325  12.297  0.00  0.00    +0.000 A 
ATOM      5  C   UNL     1      45.133   9.143  11.934  0.00  0.00    +0.000 A 
ATOM      6  C   UNL     1      44.682   7.896  11.493  0.00  0.00    +0.000 A 
ATOM      7  C   UNL     1      45.568   6.827  11.430  0.00  0.00    +0.000 A 
ATOM      8  C   UNL     1      46.905   7.010  11.790  0.00  0.00    +0.000 A 
BRANCH   7   9
ATOM      9  O   UNL     1      45.255   5.567  10.986  0.00  0.00    +0.000 OA
BRANCH   9  10
ATOM     10  C   UNL     1      44.426   4.718  11.809  0.00  0.00    +0.000 C 
ATOM     11  C   UNL     1      44.383   3.214  11.475  0.00  0.00    +0.000 C 
ATOM     12  N   UNL     1      42.913   3.251  11.425  0.00  0.00    +0.000 NA
ATOM     13  C   UNL     1      42.929   4.721  11.437  0.00  0.00    +0.000 C 
ATOM     14  H   UNL     1      42.456   2.833  12.234  0.00  0.00    +0.000 HD
ENDBRANCH   9  10
ENDBRANCH   7   9
ENDBRANCH   2   3
BRANCH   2  15
ATOM     15  C   UNL     1      49.408   7.367  13.457  0.00  0.00    +0.000 C 
BRANCH  15  16
ATOM     16  O   UNL     1      49.149   7.677  14.836  0.00  0.00    +0.000 OA
BRANCH  16  17
ATOM     17  C   UNL     1      48.729   6.580  15.555  0.00  0.00    +0.000 A 
ATOM     18  C   UNL     1      49.033   6.528  16.914  0.00  0.00    +0.000 A 
ATOM     19  N   UNL     1      48.663   5.495  17.720  0.00  0.00    +0.000 NA
ATOM     20  C   UNL     1      47.962   4.511  17.085  0.00  0.00    +0.000 A 
ATOM     21  C   UNL     1      47.664   4.561  15.731  0.00  0.00    +0.000 A 
ATOM     22  N   UNL     1      48.048   5.591  14.937  0.00  0.00    +0.000 NA
BRANCH  20  23
ATOM     23  C   UNL     1      47.499   3.344  17.885  0.00  0.00    +0.000 C 
ATOM     24  N   UNL     1      48.264   3.011  18.969  0.00  0.00    +0.000 N 
ATOM     25  O   UNL     1      46.491   2.712  17.592  0.00  0.00    +0.000 OA
ATOM     26  H   UNL     1      49.094   3.550  19.192  0.00  0.00    +0.000 HD
ATOM     27  H   UNL     1      47.990   2.228  19.546  0.00  0.00    +0.000 HD
ENDBRANCH  20  23
ENDBRANCH  16  17
ENDBRANCH  15  16
ENDBRANCH   2  15
TORSDOF 7
ENDMDL
MODEL 7
REMARK VINA RESULT:    -6.255      2.206      8.093
REMARK INTER + INTRA:          -9.608
REMARK INTER:                  -9.659
REMARK INTRA:                   0.050
REMARK UNBOUND:                -0.794
REMARK  Name = 
REMARK  8 active torsions:
REMARK  status: ('A' for Active; 'I' for Inactive)
REMARK    1  A    between atoms: C_1  and  C_2
REMARK    2  A    between atoms: C_2  and  C_3
REMARK    3  A    between atoms: C_2  and  C_14
REMARK    4  A    between atoms: C_3  and  O_4
REMARK    5  A    between atoms: O_4  and  C_5
REMARK    6  A    between atoms: C_8  and  C_9
REMARK    7  A    between atoms: C_18  and  O_19
REMARK    8  A    between atoms: O_19  and  C_20
REMARK                            x       y       z     vdW  Elec       q    Type
REMARK                         _______ _______ _______ _____ _____    ______ ____
ROOT
ATOM      1  C   UNL     1      43.136   3.340  12.073  0.00  0.00    +0.000 C 
ATOM      2  C   UNL     1      44.653   3.180  11.913  0.00  0.00    +0.000 C 
ENDROOT
BRANCH   2   3
ATOM      3  C   UNL     1      45.052   3.394  10.461  0.00  0.00    +0.000 A 
ATOM      4  C   UNL     1      45.205   4.693   9.958  0.00  0.00    +0.000 A 
ATOM      5  C   UNL     1      45.622   4.898   8.642  0.00  0.00    +0.000 A 
ATOM      6  C   UNL     1      45.888   3.810   7.806  0.00  0.00    +0.000 A 
ATOM      7  C   UNL     1      45.721   2.516   8.285  0.00  0.00    +0.000 A 
ATOM      8  C   UNL     1      45.305   2.312   9.603  0.00  0.00    +0.000 A 
BRANCH   7   9
ATOM      9  O   UNL     1      45.977   1.371   7.574  0.00  0.00    +0.000 OA
BRANCH   9  10
ATOM     10  C   UNL     1      47.309   1.145   7.063  0.00  0.00    +0.000 C 
ATOM     11  C   UNL     1      48.169   2.379   6.728  0.00  0.00    +0.000 C 
ATOM     12  N   UNL     1      48.422   1.857   5.376  0.00  0.00    +0.000 NA
ATOM     13  C   UNL     1      47.377   0.838   5.553  0.00  0.00    +0.000 C 
ATOM     14  H   UNL     1      49.357   1.474   5.243  0.00  0.00    +0.000 HD
ENDBRANCH   9  10
ENDBRANCH   7   9
ENDBRANCH   2   3
BRANCH   2  15
ATOM     15  C   UNL     1      45.405   4.125  12.869  0.00  0.00    +0.000 C 
BRANCH  15  16
ATOM     16  O   UNL     1      46.544   3.447  13.422  0.00  0.00    +0.000 OA
BRANCH  16  17
ATOM     17  C   UNL     1      47.131   4.152  14.451  0.00  0.00    +0.000 A 
ATOM     18  C   UNL     1      47.799   5.335  14.140  0.00  0.00    +0.000 A 
ATOM     19  N   UNL     1      48.409   6.112  15.077  0.00  0.00    +0.000 NA
ATOM     20  C   UNL     1      48.308   5.637  16.352  0.00  0.00    +0.000 A 
ATOM     21  C   UNL     1      47.647   4.457  16.660  0.00  0.00    +0.000 A 
ATOM     22  N   UNL     1      47.052   3.686  15.716  0.00  0.00    +0.000 NA
BRANCH  20  23
ATOM     23  C   UNL     1      48.930   6.425  17.452  0.00  0.00    +0.000 C 
ATOM     24  N   UNL     1      50.289   6.569  17.399  0.00  0.00    +0.000 N 
ATOM     25  O   UNL     1      48.267   6.916  18.357  0.00  0.00    +0.000 OA
ATOM     26  H   UNL     1      50.817   6.154  16.639  0.00  0.00    +0.000 HD
ATOM     27  H   UNL     1      50.759   7.099  18.120  0.00  0.00    +0.000 HD
ENDBRANCH  20  23
ENDBRANCH  16  17
ENDBRANCH  15  16
ENDBRANCH   2  15
TORSDOF 7
ENDMDL
MODEL 8
REMARK VINA RESULT:    -6.248      2.994      4.659
REMARK INTER + INTRA:          -9.599
REMARK INTER:                  -8.589
REMARK INTRA:                  -1.010
REMARK UNBOUND:                -0.794
REMARK  Name = 
REMARK  8 active torsions:
REMARK  status: ('A' for Active; 'I' for Inactive)
REMARK    1  A    between atoms: C_1  and  C_2
REMARK    2  A    between atoms: C_2  and  C_3
REMARK    3  A    between atoms: C_2  and  C_14
REMARK    4  A    between atoms: C_3  and  O_4
REMARK    5  A    between atoms: O_4  and  C_5
REMARK    6  A    between atoms: C_8  and  C_9
REMARK    7  A    between atoms: C_18  and  O_19
REMARK    8  A    between atoms: O_19  and  C_20
REMARK                            x       y       z     vdW  Elec       q    Type
REMARK                         _______ _______ _______ _____ _____    ______ ____
ROOT
ATOM      1  C   UNL     1      49.280   8.610  11.682  0.00  0.00    +0.000 C 
ATOM      2  C   UNL     1      48.187   7.865  12.458  0.00  0.00    +0.000 C 
ENDROOT
BRANCH   2   3
ATOM      3  C   UNL     1      48.555   7.781  13.932  0.00  0.00    +0.000 A 
ATOM      4  C   UNL     1      48.723   8.952  14.682  0.00  0.00    +0.000 A 
ATOM      5  C   UNL     1      49.008   8.883  16.046  0.00  0.00    +0.000 A 
ATOM      6  C   UNL     1      49.136   7.646  16.683  0.00  0.00    +0.000 A 
ATOM      7  C   UNL     1      48.992   6.475  15.946  0.00  0.00    +0.000 A 
ATOM      8  C   UNL     1      48.704   6.545  14.581  0.00  0.00    +0.000 A 
BRANCH   7   9
ATOM      9  O   UNL     1      49.064   5.205  16.459  0.00  0.00    +0.000 OA
BRANCH   9  10
ATOM     10  C   UNL     1      47.908   4.344  16.369  0.00  0.00    +0.000 C 
ATOM     11  C   UNL     1      46.887   4.388  17.522  0.00  0.00    +0.000 C 
ATOM     12  N   UNL     1      46.972   2.927  17.675  0.00  0.00    +0.000 NA
ATOM     13  C   UNL     1      48.155   2.885  16.803  0.00  0.00    +0.000 C 
ATOM     14  H   UNL     1      46.167   2.420  17.309  0.00  0.00    +0.000 HD
ENDBRANCH   9  10
ENDBRANCH   7   9
ENDBRANCH   2   3
BRANCH   2  15
ATOM     15  C   UNL     1      46.814   8.527  12.237  0.00  0.00    +0.000 C 
BRANCH  15  16
ATOM     16  O   UNL     1      45.831   7.891  13.070  0.00  0.00    +0.000 OA
BRANCH  16  17
ATOM     17  C   UNL     1      45.357   6.718  12.525  0.00  0.00    +0.000 A 
ATOM     18  C   UNL     1      45.415   5.562  13.302  0.00  0.00    +0.000 A 
ATOM     19  N   UNL     1      44.970   4.351  12.866  0.00  0.00    +0.000 NA
ATOM     20  C   UNL     1      44.457   4.363  11.602  0.00  0.00    +0.000 A 
ATOM     21  C   UNL     1      44.403   5.513  10.828  0.00  0.00    +0.000 A 
ATOM     22  N   UNL     1      44.860   6.712  11.270  0.00  0.00    +0.000 NA
BRANCH  20  23
ATOM     23  C   UNL     1      43.929   3.088  11.040  0.00  0.00    +0.000 C 
ATOM     24  N   UNL     1      43.398   2.205  11.939  0.00  0.00    +0.000 N 
ATOM     25  O   UNL     1      43.970   2.839   9.842  0.00  0.00    +0.000 OA
ATOM     26  H   UNL     1      43.375   2.434  12.927  0.00  0.00    +0.000 HD
ATOM     27  H   UNL     1      43.024   1.327  11.608  0.00  0.00    +0.000 HD
ENDBRANCH  20  23
ENDBRANCH  16  17
ENDBRANCH  15  16
ENDBRANCH   2  15
TORSDOF 7
ENDMDL
MODEL 9
REMARK VINA RESULT:    -5.954      3.055      7.905
REMARK INTER + INTRA:          -9.185
REMARK INTER:                  -8.536
REMARK INTRA:                  -0.649
REMARK UNBOUND:                -0.794
REMARK  Name = 
REMARK  8 active torsions:
REMARK  status: ('A' for Active; 'I' for Inactive)
REMARK    1  A    between atoms: C_1  and  C_2
REMARK    2  A    between atoms: C_2  and  C_3
REMARK    3  A    between atoms: C_2  and  C_14
REMARK    4  A    between atoms: C_3  and  O_4
REMARK    5  A    between atoms: O_4  and  C_5
REMARK    6  A    between atoms: C_8  and  C_9
REMARK    7  A    between atoms: C_18  and  O_19
REMARK    8  A    between atoms: O_19  and  C_20
REMARK                            x       y       z     vdW  Elec       q    Type
REMARK                         _______ _______ _______ _____ _____    ______ ____
ROOT
ATOM      1  C   UNL     1      49.209   6.914  14.143  0.00  0.00    +0.000 C 
ATOM      2  C   UNL     1      47.781   6.581  14.595  0.00  0.00    +0.000 C 
ENDROOT
BRANCH   2   3
ATOM      3  C   UNL     1      46.811   6.758  13.437  0.00  0.00    +0.000 A 
ATOM      4  C   UNL     1      46.297   8.026  13.138  0.00  0.00    +0.000 A 
ATOM      5  C   UNL     1      45.448   8.206  12.045  0.00  0.00    +0.000 A 
ATOM      6  C   UNL     1      45.095   7.124  11.235  0.00  0.00    +0.000 A 
ATOM      7  C   UNL     1      45.582   5.855  11.532  0.00  0.00    +0.000 A 
ATOM      8  C   UNL     1      46.433   5.676  12.625  0.00  0.00    +0.000 A 
BRANCH   7   9
ATOM      9  O   UNL     1      45.333   4.723  10.799  0.00  0.00    +0.000 OA
BRANCH   9  10
ATOM     10  C   UNL     1      44.004   4.159  10.806  0.00  0.00    +0.000 C 
ATOM     11  C   UNL     1      43.415   3.722  12.161  0.00  0.00    +0.000 C 
ATOM     12  N   UNL     1      43.117   2.387  11.621  0.00  0.00    +0.000 NA
ATOM     13  C   UNL     1      43.935   2.664  10.432  0.00  0.00    +0.000 C 
ATOM     14  H   UNL     1      42.131   2.227  11.420  0.00  0.00    +0.000 HD
ENDBRANCH   9  10
ENDBRANCH   7   9
ENDBRANCH   2   3
BRANCH   2  15
ATOM     15  C   UNL     1      47.716   5.166  15.199  0.00  0.00    +0.000 C 
BRANCH  15  16
ATOM     16  O   UNL     1      48.182   5.198  16.557  0.00  0.00    +0.000 OA
BRANCH  16  17
ATOM     17  C   UNL     1      49.131   4.233  16.814  0.00  0.00    +0.000 A 
ATOM     18  C   UNL     1      50.326   4.627  17.412  0.00  0.00    +0.000 A 
ATOM     19  N   UNL     1      51.328   3.757  17.714  0.00  0.00    +0.000 NA
ATOM     20  C   UNL     1      51.063   2.459  17.387  0.00  0.00    +0.000 A 
ATOM     21  C   UNL     1      49.875   2.067  16.788  0.00  0.00    +0.000 A 
ATOM     22  N   UNL     1      48.888   2.946  16.481  0.00  0.00    +0.000 NA
BRANCH  20  23
ATOM     23  C   UNL     1      52.093   1.428  17.692  0.00  0.00    +0.000 C 
ATOM     24  N   UNL     1      51.630   0.235  18.176  0.00  0.00    +0.000 N 
ATOM     25  O   UNL     1      53.289   1.632  17.525  0.00  0.00    +0.000 OA
ATOM     26  H   UNL     1      50.634   0.089  18.306  0.00  0.00    +0.000 HD
ATOM     27  H   UNL     1      52.289  -0.499  18.396  0.00  0.00    +0.000 HD
ENDBRANCH  20  23
ENDBRANCH  16  17
ENDBRANCH  15  16
ENDBRANCH   2  15
TORSDOF 7
ENDMDL
