MODEL 1
REMARK VINA RESULT:    -6.416      0.000      0.000
REMARK INTER + INTRA:          -8.369
REMARK INTER:                  -7.917
REMARK INTRA:                  -0.452
REMARK UNBOUND:                -0.452
REMARK  Name = 
REMARK  4 active torsions:
REMARK  status: ('A' for Active; 'I' for Inactive)
REMARK    1  A    between atoms: C_2  and  C_4
REMARK    2  A    between atoms: C_8  and  C_9
REMARK    3  A    between atoms: C_10  and  C_11
REMARK    4  A    between atoms: C_15  and  N_16
REMARK                            x       y       z     vdW  Elec       q    Type
REMARK                         _______ _______ _______ _____ _____    ______ ____
ROOT
ATOM      1  C   UNL     1      45.909   4.542  13.924  0.00  0.00    +0.000 C 
ATOM      2  C   UNL     1      46.626   4.329  14.865  0.00  0.00    +0.000 C 
ENDROOT
BRANCH   1   7
ATOM      3  C   UNL     1      44.652   4.640  10.422  0.00  0.00    +0.000 A 
ATOM      4  C   UNL     1      43.374   5.125  10.674  0.00  0.00    +0.000 A 
ATOM      5  N   UNL     1      42.904   5.399  11.916  0.00  0.00    +0.000 NA
ATOM      6  C   UNL     1      43.761   5.193  12.945  0.00  0.00    +0.000 A 
ATOM      7  C   UNL     1      45.065   4.731  12.790  0.00  0.00    +0.000 A 
ATOM      8  C   UNL     1      45.519   4.455  11.501  0.00  0.00    +0.000 A 
BRANCH   3  10
ATOM      9  N   UNL     1      44.376   3.320   8.406  0.00  0.00    +0.000 N 
ATOM     10  C   UNL     1      45.036   4.343   9.028  0.00  0.00    +0.000 C 
ATOM     11  O   UNL     1      45.877   5.009   8.440  0.00  0.00    +0.000 OA
ATOM     12  H   UNL     1      44.563   3.202   7.418  0.00  0.00    +0.000 HD
ATOM     13  H   UNL     1      43.521   2.923   8.768  0.00  0.00    +0.000 HD
ENDBRANCH   3  10
ENDBRANCH   1   7
BRANCH   2  14
ATOM     14  C   UNL     1      47.477   3.993  15.963  0.00  0.00    +0.000 A 
ATOM     15  C   UNL     1      48.196   2.802  15.962  0.00  0.00    +0.000 A 
ATOM     16  C   UNL     1      49.069   2.529  17.010  0.00  0.00    +0.000 A 
ATOM     17  C   UNL     1      49.226   3.451  18.051  0.00  0.00    +0.000 A 
ATOM     18  C   UNL     1      48.506   4.654  18.086  0.00  0.00    +0.000 A 
ATOM     19  C   UNL     1      47.622   4.896  17.023  0.00  0.00    +0.000 A 
BRANCH  18  20
ATOM     20  N   UNL     1      48.665   5.576  19.097  0.00  0.00    +0.000 N 
ATOM     21  C   UNL     1      49.888   5.685  19.904  0.00  0.00    +0.000 C 
ATOM     22  C   UNL     1      49.564   5.470  21.388  0.00  0.00    +0.000 C 
ATOM     23  O   UNL     1      48.523   6.357  21.836  0.00  0.00    +0.000 OA
ATOM     24  C   UNL     1      47.323   6.141  21.075  0.00  0.00    +0.000 C 
ATOM     25  C   UNL     1      47.543   6.399  19.575  0.00  0.00    +0.000 C 
ENDBRANCH  18  20
ENDBRANCH   2  14
TORSDOF 4
ENDMDL
MODEL 2
REMARK VINA RESULT:    -6.297      1.304      1.518
REMARK INTER + INTRA:          -8.222
REMARK INTER:                  -7.753
REMARK INTRA:                  -0.469
REMARK UNBOUND:                -0.452
REMARK  Name = 
REMARK  4 active torsions:
REMARK  status: ('A' for Active; 'I' for Inactive)
REMARK    1  A    between atoms: C_2  and  C_4
REMARK    2  A    between atoms: C_8  and  C_9
REMARK    3  A    between atoms: C_10  and  C_11
REMARK    4  A    between atoms: C_15  and  N_16
REMARK                            x       y       z     vdW  Elec       q    Type
REMARK                         _______ _______ _______ _____ _____    ______ ____
ROOT
ATOM      1  C   UNL     1      46.175   4.515  13.958  0.00  0.00    +0.000 C 
ATOM      2  C   UNL     1      46.893   4.335  14.905  0.00  0.00    +0.000 C 
ENDROOT
BRANCH   1   7
ATOM      3  C   UNL     1      44.427   4.075  10.702  0.00  0.00    +0.000 A 
ATOM      4  C   UNL     1      43.507   5.111  10.819  0.00  0.00    +0.000 A 
ATOM      5  N   UNL     1      43.421   5.922  11.902  0.00  0.00    +0.000 NA
ATOM      6  C   UNL     1      44.306   5.692  12.901  0.00  0.00    +0.000 A 
ATOM      7  C   UNL     1      45.275   4.694  12.866  0.00  0.00    +0.000 A 
ATOM      8  C   UNL     1      45.339   3.873  11.741  0.00  0.00    +0.000 A 
BRANCH   3  10
ATOM      9  N   UNL     1      44.306   3.881   8.287  0.00  0.00    +0.000 N 
ATOM     10  C   UNL     1      44.398   3.235   9.489  0.00  0.00    +0.000 C 
ATOM     11  O   UNL     1      44.496   2.017   9.551  0.00  0.00    +0.000 OA
ATOM     12  H   UNL     1      44.405   3.305   7.461  0.00  0.00    +0.000 HD
ATOM     13  H   UNL     1      44.474   4.872   8.187  0.00  0.00    +0.000 HD
ENDBRANCH   3  10
ENDBRANCH   1   7
BRANCH   2  14
ATOM     14  C   UNL     1      47.681   4.089  16.072  0.00  0.00    +0.000 A 
ATOM     15  C   UNL     1      48.247   2.837  16.292  0.00  0.00    +0.000 A 
ATOM     16  C   UNL     1      49.065   2.640  17.400  0.00  0.00    +0.000 A 
ATOM     17  C   UNL     1      49.321   3.699  18.279  0.00  0.00    +0.000 A 
ATOM     18  C   UNL     1      48.757   4.969  18.090  0.00  0.00    +0.000 A 
ATOM     19  C   UNL     1      47.924   5.133  16.973  0.00  0.00    +0.000 A 
BRANCH  18  20
ATOM     20  N   UNL     1      49.015   6.021  18.941  0.00  0.00    +0.000 N 
ATOM     21  C   UNL     1      48.574   6.053  20.342  0.00  0.00    +0.000 C 
ATOM     22  C   UNL     1      47.670   7.268  20.585  0.00  0.00    +0.000 C 
ATOM     23  O   UNL     1      48.307   8.492  20.176  0.00  0.00    +0.000 OA
ATOM     24  C   UNL     1      48.631   8.441  18.776  0.00  0.00    +0.000 C 
ATOM     25  C   UNL     1      49.591   7.284  18.453  0.00  0.00    +0.000 C 
ENDBRANCH  18  20
ENDBRANCH   2  14
TORSDOF 4
ENDMDL
MODEL 3
REMARK VINA RESULT:    -6.237      2.208      2.662
REMARK INTER + INTRA:          -8.147
REMARK INTER:                  -7.692
REMARK INTRA:                  -0.455
REMARK UNBOUND:                -0.452
REMARK  Name = 
REMARK  4 active torsions:
REMARK  status: ('A' for Active; 'I' for Inactive)
REMARK    1  A    between atoms: C_2  and  C_4
REMARK    2  A    between atoms: C_8  and  C_9
REMARK    3  A    between atoms: C_10  and  C_11
REMARK    4  A    between atoms: C_15  and  N_16
REMARK                            x       y       z     vdW  Elec       q    Type
REMARK                         _______ _______ _______ _____ _____    ______ ____
ROOT
ATOM      1  C   UNL     1      45.964   4.723  13.895  0.00  0.00    +0.000 C 
ATOM      2  C   UNL     1      46.730   4.611  14.814  0.00  0.00    +0.000 C 
ENDROOT
BRANCH   1   7
ATOM      3  C   UNL     1      44.654   4.644  10.412  0.00  0.00    +0.000 A 
ATOM      4  C   UNL     1      43.335   4.995  10.679  0.00  0.00    +0.000 A 
ATOM      5  N   UNL     1      42.857   5.234  11.925  0.00  0.00    +0.000 NA
ATOM      6  C   UNL     1      43.746   5.132  12.942  0.00  0.00    +0.000 A 
ATOM      7  C   UNL     1      45.089   4.808  12.772  0.00  0.00    +0.000 A 
ATOM      8  C   UNL     1      45.551   4.565  11.480  0.00  0.00    +0.000 A 
BRANCH   3  10
ATOM      9  N   UNL     1      44.388   3.360   8.371  0.00  0.00    +0.000 N 
ATOM     10  C   UNL     1      45.046   4.371   9.016  0.00  0.00    +0.000 C 
ATOM     11  O   UNL     1      45.893   5.045   8.446  0.00  0.00    +0.000 OA
ATOM     12  H   UNL     1      44.582   3.260   7.382  0.00  0.00    +0.000 HD
ATOM     13  H   UNL     1      43.530   2.960   8.720  0.00  0.00    +0.000 HD
ENDBRANCH   3  10
ENDBRANCH   1   7
BRANCH   2  14
ATOM     14  C   UNL     1      47.674   4.410  15.869  0.00  0.00    +0.000 A 
ATOM     15  C   UNL     1      47.756   3.183  16.520  0.00  0.00    +0.000 A 
ATOM     16  C   UNL     1      48.728   2.990  17.497  0.00  0.00    +0.000 A 
ATOM     17  C   UNL     1      49.620   4.021  17.812  0.00  0.00    +0.000 A 
ATOM     18  C   UNL     1      49.555   5.272  17.181  0.00  0.00    +0.000 A 
ATOM     19  C   UNL     1      48.555   5.443  16.211  0.00  0.00    +0.000 A 
BRANCH  18  20
ATOM     20  N   UNL     1      50.438   6.288  17.473  0.00  0.00    +0.000 N 
ATOM     21  C   UNL     1      50.039   7.540  18.130  0.00  0.00    +0.000 C 
ATOM     22  C   UNL     1      50.373   8.739  17.233  0.00  0.00    +0.000 C 
ATOM     23  O   UNL     1      51.757   8.736  16.841  0.00  0.00    +0.000 OA
ATOM     24  C   UNL     1      52.068   7.531  16.120  0.00  0.00    +0.000 C 
ATOM     25  C   UNL     1      51.822   6.276  16.974  0.00  0.00    +0.000 C 
ENDBRANCH  18  20
ENDBRANCH   2  14
TORSDOF 4
ENDMDL
MODEL 4
REMARK VINA RESULT:    -6.144      2.080      9.183
REMARK INTER + INTRA:          -8.033
REMARK INTER:                  -7.563
REMARK INTRA:                  -0.470
REMARK UNBOUND:                -0.452
REMARK  Name = 
REMARK  4 active torsions:
REMARK  status: ('A' for Active; 'I' for Inactive)
REMARK    1  A    between atoms: C_2  and  C_4
REMARK    2  A    between atoms: C_8  and  C_9
REMARK    3  A    between atoms: C_10  and  C_11
REMARK    4  A    between atoms: C_15  and  N_16
REMARK                            x       y       z     vdW  Elec       q    Type
REMARK                         _______ _______ _______ _____ _____    ______ ____
ROOT
ATOM      1  C   UNL     1      48.405   5.695  16.254  0.00  0.00    +0.000 C 
ATOM      2  C   UNL     1      48.052   5.882  15.121  0.00  0.00    +0.000 C 
ENDROOT
BRANCH   1   7
ATOM      3  C   UNL     1      48.359   5.763  19.975  0.00  0.00    +0.000 A 
ATOM      4  C   UNL     1      49.569   5.118  20.209  0.00  0.00    +0.000 A 
ATOM      5  N   UNL     1      50.376   4.653  19.225  0.00  0.00    +0.000 NA
ATOM      6  C   UNL     1      49.959   4.860  17.952  0.00  0.00    +0.000 A 
ATOM      7  C   UNL     1      48.776   5.513  17.620  0.00  0.00    +0.000 A 
ATOM      8  C   UNL     1      47.964   5.978  18.653  0.00  0.00    +0.000 A 
BRANCH   3  10
ATOM      9  N   UNL     1      47.088   5.210  21.965  0.00  0.00    +0.000 N 
ATOM     10  C   UNL     1      47.549   6.191  21.132  0.00  0.00    +0.000 C 
ATOM     11  O   UNL     1      47.333   7.373  21.360  0.00  0.00    +0.000 OA
ATOM     12  H   UNL     1      46.635   5.521  22.816  0.00  0.00    +0.000 HD
ATOM     13  H   UNL     1      47.450   4.267  21.950  0.00  0.00    +0.000 HD
ENDBRANCH   3  10
ENDBRANCH   1   7
BRANCH   2  14
ATOM     14  C   UNL     1      47.562   6.143  13.803  0.00  0.00    +0.000 A 
ATOM     15  C   UNL     1      48.283   6.948  12.927  0.00  0.00    +0.000 A 
ATOM     16  C   UNL     1      47.820   7.133  11.629  0.00  0.00    +0.000 A 
ATOM     17  C   UNL     1      46.642   6.504  11.208  0.00  0.00    +0.000 A 
ATOM     18  C   UNL     1      45.888   5.696  12.071  0.00  0.00    +0.000 A 
ATOM     19  C   UNL     1      46.371   5.540  13.379  0.00  0.00    +0.000 A 
BRANCH  18  20
ATOM     20  N   UNL     1      44.736   5.060  11.661  0.00  0.00    +0.000 N 
ATOM     21  C   UNL     1      43.726   4.542  12.594  0.00  0.00    +0.000 C 
ATOM     22  C   UNL     1      43.545   3.032  12.393  0.00  0.00    +0.000 C 
ATOM     23  O   UNL     1      43.248   2.713  11.022  0.00  0.00    +0.000 OA
ATOM     24  C   UNL     1      44.313   3.159  10.165  0.00  0.00    +0.000 C 
ATOM     25  C   UNL     1      44.522   4.680  10.257  0.00  0.00    +0.000 C 
ENDBRANCH  18  20
ENDBRANCH   2  14
TORSDOF 4
ENDMDL
MODEL 5
REMARK VINA RESULT:    -5.913      2.633      9.056
REMARK INTER + INTRA:          -7.748
REMARK INTER:                  -7.279
REMARK INTRA:                  -0.468
REMARK UNBOUND:                -0.452
REMARK  Name = 
REMARK  4 active torsions:
REMARK  status: ('A' for Active; 'I' for Inactive)
REMARK    1  A    between atoms: C_2  and  C_4
REMARK    2  A    between atoms: C_8  and  C_9
REMARK    3  A    between atoms: C_10  and  C_11
REMARK    4  A    between atoms: C_15  and  N_16
REMARK                            x       y       z     vdW  Elec       q    Type
REMARK                         _______ _______ _______ _____ _____    ______ ____
ROOT
ATOM      1  C   UNL     1      48.572   5.703  16.154  0.00  0.00    +0.000 C 
ATOM      2  C   UNL     1      48.066   5.936  15.089  0.00  0.00    +0.000 C 
ENDROOT
BRANCH   1   7
ATOM      3  C   UNL     1      51.059   4.480  18.638  0.00  0.00    +0.000 A 
ATOM      4  C   UNL     1      50.371   4.811  19.800  0.00  0.00    +0.000 A 
ATOM      5  N   UNL     1      49.162   5.422  19.810  0.00  0.00    +0.000 NA
ATOM      6  C   UNL     1      48.613   5.697  18.602  0.00  0.00    +0.000 A 
ATOM      7  C   UNL     1      49.215   5.384  17.387  0.00  0.00    +0.000 A 
ATOM      8  C   UNL     1      50.460   4.758  17.407  0.00  0.00    +0.000 A 
BRANCH   3  10
ATOM      9  N   UNL     1      52.462   2.504  18.523  0.00  0.00    +0.000 N 
ATOM     10  C   UNL     1      52.389   3.849  18.756  0.00  0.00    +0.000 C 
ATOM     11  O   UNL     1      53.388   4.506  19.010  0.00  0.00    +0.000 OA
ATOM     12  H   UNL     1      53.392   2.105  18.491  0.00  0.00    +0.000 HD
ATOM     13  H   UNL     1      51.719   1.988  18.074  0.00  0.00    +0.000 HD
ENDBRANCH   3  10
ENDBRANCH   1   7
BRANCH   2  14
ATOM     14  C   UNL     1      47.526   6.170  13.786  0.00  0.00    +0.000 A 
ATOM     15  C   UNL     1      48.202   6.974  12.874  0.00  0.00    +0.000 A 
ATOM     16  C   UNL     1      47.690   7.131  11.590  0.00  0.00    +0.000 A 
ATOM     17  C   UNL     1      46.510   6.476  11.220  0.00  0.00    +0.000 A 
ATOM     18  C   UNL     1      45.801   5.669  12.120  0.00  0.00    +0.000 A 
ATOM     19  C   UNL     1      46.332   5.540  13.413  0.00  0.00    +0.000 A 
BRANCH  18  20
ATOM     20  N   UNL     1      44.646   5.007  11.761  0.00  0.00    +0.000 N 
ATOM     21  C   UNL     1      43.720   4.416  12.736  0.00  0.00    +0.000 C 
ATOM     22  C   UNL     1      43.577   2.909  12.484  0.00  0.00    +0.000 C 
ATOM     23  O   UNL     1      43.200   2.634  11.122  0.00  0.00    +0.000 OA
ATOM     24  C   UNL     1      44.190   3.153  10.217  0.00  0.00    +0.000 C 
ATOM     25  C   UNL     1      44.351   4.675  10.359  0.00  0.00    +0.000 C 
ENDBRANCH  18  20
ENDBRANCH   2  14
TORSDOF 4
ENDMDL
MODEL 6
REMARK VINA RESULT:    -5.904      5.962      7.875
REMARK INTER + INTRA:          -7.736
REMARK INTER:                  -7.259
REMARK INTRA:                  -0.477
REMARK UNBOUND:                -0.452
REMARK  Name = 
REMARK  4 active torsions:
REMARK  status: ('A' for Active; 'I' for Inactive)
REMARK    1  A    between atoms: C_2  and  C_4
REMARK    2  A    between atoms: C_8  and  C_9
REMARK    3  A    between atoms: C_10  and  C_11
REMARK    4  A    between atoms: C_15  and  N_16
REMARK                            x       y       z     vdW  Elec       q    Type
REMARK                         _______ _______ _______ _____ _____    ______ ____
ROOT
ATOM      1  C   UNL     1      47.371   6.986  11.916  0.00  0.00    +0.000 C 
ATOM      2  C   UNL     1      48.370   7.646  11.822  0.00  0.00    +0.000 C 
ENDROOT
BRANCH   1   7
ATOM      3  C   UNL     1      44.645   4.635  10.970  0.00  0.00    +0.000 A 
ATOM      4  C   UNL     1      43.903   4.694  12.144  0.00  0.00    +0.000 A 
ATOM      5  N   UNL     1      44.256   5.439  13.220  0.00  0.00    +0.000 NA
ATOM      6  C   UNL     1      45.392   6.167  13.104  0.00  0.00    +0.000 A 
ATOM      7  C   UNL     1      46.188   6.189  11.963  0.00  0.00    +0.000 A 
ATOM      8  C   UNL     1      45.802   5.411  10.873  0.00  0.00    +0.000 A 
BRANCH   3  10
ATOM      9  N   UNL     1      44.090   4.308   8.631  0.00  0.00    +0.000 N 
ATOM     10  C   UNL     1      44.178   3.756   9.879  0.00  0.00    +0.000 C 
ATOM     11  O   UNL     1      43.921   2.576  10.073  0.00  0.00    +0.000 OA
ATOM     12  H   UNL     1      43.883   3.669   7.873  0.00  0.00    +0.000 HD
ATOM     13  H   UNL     1      44.525   5.187   8.392  0.00  0.00    +0.000 HD
ENDBRANCH   3  10
ENDBRANCH   1   7
BRANCH   2  14
ATOM     14  C   UNL     1      49.567   8.405  11.630  0.00  0.00    +0.000 A 
ATOM     15  C   UNL     1      49.711   9.659  12.216  0.00  0.00    +0.000 A 
ATOM     16  C   UNL     1      50.911  10.348  12.070  0.00  0.00    +0.000 A 
ATOM     17  C   UNL     1      51.964   9.777  11.347  0.00  0.00    +0.000 A 
ATOM     18  C   UNL     1      51.845   8.521  10.736  0.00  0.00    +0.000 A 
ATOM     19  C   UNL     1      50.619   7.855  10.887  0.00  0.00    +0.000 A 
BRANCH  18  20
ATOM     20  N   UNL     1      52.881   7.944  10.035  0.00  0.00    +0.000 N 
ATOM     21  C   UNL     1      53.042   8.074   8.580  0.00  0.00    +0.000 C 
ATOM     22  C   UNL     1      53.032   6.688   7.921  0.00  0.00    +0.000 C 
ATOM     23  O   UNL     1      54.012   5.816   8.511  0.00  0.00    +0.000 OA
ATOM     24  C   UNL     1      53.750   5.650   9.916  0.00  0.00    +0.000 C 
ATOM     25  C   UNL     1      53.804   6.990  10.668  0.00  0.00    +0.000 C 
ENDBRANCH  18  20
ENDBRANCH   2  14
TORSDOF 4
ENDMDL
MODEL 7
REMARK VINA RESULT:    -5.873      2.209      2.573
REMARK INTER + INTRA:          -7.698
REMARK INTER:                  -7.242
REMARK INTRA:                  -0.456
REMARK UNBOUND:                -0.452
REMARK  Name = 
REMARK  4 active torsions:
REMARK  status: ('A' for Active; 'I' for Inactive)
REMARK    1  A    between atoms: C_2  and  C_4
REMARK    2  A    between atoms: C_8  and  C_9
REMARK    3  A    between atoms: C_10  and  C_11
REMARK    4  A    between atoms: C_15  and  N_16
REMARK                            x       y       z     vdW  Elec       q    Type
REMARK                         _______ _______ _______ _____ _____    ______ ____
ROOT
ATOM      1  C   UNL     1      46.433   5.803  13.152  0.00  0.00    +0.000 C 
ATOM      2  C   UNL     1      47.402   6.172  13.760  0.00  0.00    +0.000 C 
ENDROOT
BRANCH   1   7
ATOM      3  C   UNL     1      44.239   4.143  10.646  0.00  0.00    +0.000 A 
ATOM      4  C   UNL     1      43.010   4.408  11.239  0.00  0.00    +0.000 A 
ATOM      5  N   UNL     1      42.867   5.076  12.410  0.00  0.00    +0.000 NA
ATOM      6  C   UNL     1      44.007   5.510  13.000  0.00  0.00    +0.000 A 
ATOM      7  C   UNL     1      45.279   5.312  12.472  0.00  0.00    +0.000 A 
ATOM      8  C   UNL     1      45.396   4.619  11.268  0.00  0.00    +0.000 A 
BRANCH   3  10
ATOM      9  N   UNL     1      44.206   4.083   8.221  0.00  0.00    +0.000 N 
ATOM     10  C   UNL     1      44.268   3.372   9.387  0.00  0.00    +0.000 C 
ATOM     11  O   UNL     1      44.385   2.154   9.385  0.00  0.00    +0.000 OA
ATOM     12  H   UNL     1      44.345   3.556   7.368  0.00  0.00    +0.000 HD
ATOM     13  H   UNL     1      44.361   5.080   8.182  0.00  0.00    +0.000 HD
ENDBRANCH   3  10
ENDBRANCH   1   7
BRANCH   2  14
ATOM     14  C   UNL     1      48.540   6.550  14.539  0.00  0.00    +0.000 A 
ATOM     15  C   UNL     1      49.478   7.444  14.033  0.00  0.00    +0.000 A 
ATOM     16  C   UNL     1      50.540   7.848  14.836  0.00  0.00    +0.000 A 
ATOM     17  C   UNL     1      50.654   7.365  16.145  0.00  0.00    +0.000 A 
ATOM     18  C   UNL     1      49.730   6.455  16.679  0.00  0.00    +0.000 A 
ATOM     19  C   UNL     1      48.678   6.053  15.841  0.00  0.00    +0.000 A 
BRANCH  18  20
ATOM     20  N   UNL     1      49.824   5.986  17.971  0.00  0.00    +0.000 N 
ATOM     21  C   UNL     1      49.909   4.558  18.306  0.00  0.00    +0.000 C 
ATOM     22  C   UNL     1      48.740   4.156  19.214  0.00  0.00    +0.000 C 
ATOM     23  O   UNL     1      48.664   4.996  20.380  0.00  0.00    +0.000 OA
ATOM     24  C   UNL     1      48.486   6.369  19.994  0.00  0.00    +0.000 C 
ATOM     25  C   UNL     1      49.653   6.875  19.130  0.00  0.00    +0.000 C 
ENDBRANCH  18  20
ENDBRANCH   2  14
TORSDOF 4
ENDMDL
MODEL 8
REMARK VINA RESULT:    -5.826      5.660      8.258
REMARK INTER + INTRA:          -7.641
REMARK INTER:                  -7.152
REMARK INTRA:                  -0.489
REMARK UNBOUND:                -0.452
REMARK  Name = 
REMARK  4 active torsions:
REMARK  status: ('A' for Active; 'I' for Inactive)
REMARK    1  A    between atoms: C_2  and  C_4
REMARK    2  A    between atoms: C_8  and  C_9
REMARK    3  A    between atoms: C_10  and  C_11
REMARK    4  A    between atoms: C_15  and  N_16
REMARK                            x       y       z     vdW  Elec       q    Type
REMARK                         _______ _______ _______ _____ _____    ______ ____
ROOT
ATOM      1  C   UNL     1      42.436  10.204  10.784  0.00  0.00    +0.000 C 
ATOM      2  C   UNL     1      43.540   9.820  11.065  0.00  0.00    +0.000 C 
ENDROOT
BRANCH   1   7
ATOM      3  C   UNL     1      38.721  10.426  10.744  0.00  0.00    +0.000 A 
ATOM      4  C   UNL     1      38.589  11.545   9.930  0.00  0.00    +0.000 A 
ATOM      5  N   UNL     1      39.640  12.232   9.418  0.00  0.00    +0.000 NA
ATOM      6  C   UNL     1      40.874  11.762   9.723  0.00  0.00    +0.000 A 
ATOM      7  C   UNL     1      41.105  10.638  10.510  0.00  0.00    +0.000 A 
ATOM      8  C   UNL     1      40.005   9.954  11.026  0.00  0.00    +0.000 A 
BRANCH   3  10
ATOM      9  N   UNL     1      36.303  10.232  10.786  0.00  0.00    +0.000 N 
ATOM     10  C   UNL     1      37.501   9.786  11.273  0.00  0.00    +0.000 C 
ATOM     11  O   UNL     1      37.557   8.868  12.079  0.00  0.00    +0.000 OA
ATOM     12  H   UNL     1      35.483   9.709  11.066  0.00  0.00    +0.000 HD
ATOM     13  H   UNL     1      36.231  10.800   9.954  0.00  0.00    +0.000 HD
ENDBRANCH   3  10
ENDBRANCH   1   7
BRANCH   2  14
ATOM     14  C   UNL     1      44.824   9.347  11.478  0.00  0.00    +0.000 A 
ATOM     15  C   UNL     1      45.842  10.244  11.787  0.00  0.00    +0.000 A 
ATOM     16  C   UNL     1      47.061   9.762  12.252  0.00  0.00    +0.000 A 
ATOM     17  C   UNL     1      47.255   8.385  12.414  0.00  0.00    +0.000 A 
ATOM     18  C   UNL     1      46.253   7.457  12.100  0.00  0.00    +0.000 A 
ATOM     19  C   UNL     1      45.039   7.971  11.620  0.00  0.00    +0.000 A 
BRANCH  18  20
ATOM     20  N   UNL     1      46.429   6.101  12.271  0.00  0.00    +0.000 N 
ATOM     21  C   UNL     1      45.578   5.090  11.628  0.00  0.00    +0.000 C 
ATOM     22  C   UNL     1      44.902   4.213  12.691  0.00  0.00    +0.000 C 
ATOM     23  O   UNL     1      45.865   3.636  13.590  0.00  0.00    +0.000 OA
ATOM     24  C   UNL     1      46.603   4.672  14.261  0.00  0.00    +0.000 C 
ATOM     25  C   UNL     1      47.367   5.564  13.268  0.00  0.00    +0.000 C 
ENDBRANCH  18  20
ENDBRANCH   2  14
TORSDOF 4
ENDMDL
MODEL 9
REMARK VINA RESULT:    -5.622      4.245      5.024
REMARK INTER + INTRA:          -7.389
REMARK INTER:                  -6.929
REMARK INTRA:                  -0.461
REMARK UNBOUND:                -0.452
REMARK  Name = 
REMARK  4 active torsions:
REMARK  status: ('A' for Active; 'I' for Inactive)
REMARK    1  A    between atoms: C_2  and  C_4
REMARK    2  A    between atoms: C_8  and  C_9
REMARK    3  A    between atoms: C_10  and  C_11
REMARK    4  A    between atoms: C_15  and  N_16
REMARK                            x       y       z     vdW  Elec       q    Type
REMARK                         _______ _______ _______ _____ _____    ______ ____
ROOT
ATOM      1  C   UNL     1      45.813   6.345  12.537  0.00  0.00    +0.000 C 
ATOM      2  C   UNL     1      46.470   7.316  12.800  0.00  0.00    +0.000 C 
ENDROOT
BRANCH   1   7
ATOM      3  C   UNL     1      44.417   3.491  10.598  0.00  0.00    +0.000 A 
ATOM      4  C   UNL     1      43.646   2.916  11.602  0.00  0.00    +0.000 A 
ATOM      5  N   UNL     1      43.577   3.397  12.867  0.00  0.00    +0.000 NA
ATOM      6  C   UNL     1      44.299   4.513  13.129  0.00  0.00    +0.000 A 
ATOM      7  C   UNL     1      45.082   5.171  12.185  0.00  0.00    +0.000 A 
ATOM      8  C   UNL     1      45.136   4.651  10.892  0.00  0.00    +0.000 A 
BRANCH   3  10
ATOM      9  N   UNL     1      44.325   3.673   8.181  0.00  0.00    +0.000 N 
ATOM     10  C   UNL     1      44.440   2.852   9.267  0.00  0.00    +0.000 C 
ATOM     11  O   UNL     1      44.599   1.646   9.140  0.00  0.00    +0.000 OA
ATOM     12  H   UNL     1      44.460   3.240   7.276  0.00  0.00    +0.000 HD
ATOM     13  H   UNL     1      44.444   4.674   8.239  0.00  0.00    +0.000 HD
ENDBRANCH   3  10
ENDBRANCH   1   7
BRANCH   2  14
ATOM     14  C   UNL     1      47.317   8.435  13.072  0.00  0.00    +0.000 A 
ATOM     15  C   UNL     1      47.655   9.328  12.059  0.00  0.00    +0.000 A 
ATOM     16  C   UNL     1      48.424  10.447  12.363  0.00  0.00    +0.000 A 
ATOM     17  C   UNL     1      48.845  10.673  13.678  0.00  0.00    +0.000 A 
ATOM     18  C   UNL     1      48.529   9.786  14.717  0.00  0.00    +0.000 A 
ATOM     19  C   UNL     1      47.765   8.658  14.379  0.00  0.00    +0.000 A 
BRANCH  18  20
ATOM     20  N   UNL     1      48.925  10.008  16.018  0.00  0.00    +0.000 N 
ATOM     21  C   UNL     1      48.108   9.643  17.183  0.00  0.00    +0.000 C 
ATOM     22  C   UNL     1      47.801  10.887  18.026  0.00  0.00    +0.000 C 
ATOM     23  O   UNL     1      49.004  11.588  18.390  0.00  0.00    +0.000 OA
ATOM     24  C   UNL     1      49.715  12.004  17.211  0.00  0.00    +0.000 C 
ATOM     25  C   UNL     1      50.119  10.806  16.336  0.00  0.00    +0.000 C 
ENDBRANCH  18  20
ENDBRANCH   2  14
TORSDOF 4
ENDMDL
