MODEL 1
REMARK VINA RESULT:    -8.126      0.000      0.000
REMARK INTER + INTRA:         -13.608
REMARK INTER:                 -12.402
REMARK INTRA:                  -1.206
REMARK UNBOUND:                -1.206
REMARK  Name = 
REMARK  9 active torsions:
REMARK  status: ('A' for Active; 'I' for Inactive)
REMARK    1  A    between atoms: C_2  and  C_3
REMARK    2  A    between atoms: C_3  and  N_4
REMARK    3  A    between atoms: N_4  and  C_5
REMARK    4  A    between atoms: N_4  and  C_12
REMARK    5  A    between atoms: C_5  and  C_6
REMARK    6  A    between atoms: C_12  and  C_13
REMARK    7  A    between atoms: C_16  and  C_17
REMARK    8  A    between atoms: C_17  and  N_18
REMARK    9  A    between atoms: C_19  and  C_21
REMARK                            x       y       z     vdW  Elec       q    Type
REMARK                         _______ _______ _______ _____ _____    ______ ____
ROOT
ATOM      1  C   UNL     1      44.885   6.100  11.034  0.00  0.00    +0.000 A 
ATOM      2  C   UNL     1      46.242   5.777  11.171  0.00  0.00    +0.000 A 
ATOM      3  C   UNL     1      47.069   6.529  12.010  0.00  0.00    +0.000 A 
ATOM      4  C   UNL     1      46.545   7.616  12.725  0.00  0.00    +0.000 A 
ATOM      5  C   UNL     1      45.203   7.969  12.540  0.00  0.00    +0.000 A 
ATOM      6  C   UNL     1      44.377   7.213  11.706  0.00  0.00    +0.000 A 
ENDROOT
BRANCH   1   7
ATOM      7  C   UNL     1      43.966   5.205  10.226  0.00  0.00    +0.000 C 
BRANCH   7   8
ATOM      8  N   UNL     1      44.613   3.930   9.864  0.00  0.00    +0.000 NA
BRANCH   8   9
ATOM      9  C   UNL     1      43.937   2.793  10.554  0.00  0.00    +0.000 C 
BRANCH   9  11
ATOM     10  N   UNL     1      43.556   3.349  13.252  0.00  0.00    +0.000 NA
ATOM     11  C   UNL     1      43.729   3.097  12.028  0.00  0.00    +0.000 C 
ENDBRANCH   9  11
ENDBRANCH   8   9
BRANCH   8  12
ATOM     12  C   UNL     1      44.645   3.732   8.395  0.00  0.00    +0.000 C 
BRANCH  12  13
ATOM     13  C   UNL     1      45.840   2.938   7.909  0.00  0.00    +0.000 A 
ATOM     14  C   UNL     1      46.834   3.530   7.121  0.00  0.00    +0.000 A 
ATOM     15  C   UNL     1      47.860   2.733   6.634  0.00  0.00    +0.000 A 
ATOM     16  N   UNL     1      47.968   1.410   6.883  0.00  0.00    +0.000 NA
ATOM     17  C   UNL     1      47.018   0.864   7.670  0.00  0.00    +0.000 A 
ATOM     18  C   UNL     1      45.959   1.576   8.210  0.00  0.00    +0.000 A 
ENDBRANCH  12  13
ENDBRANCH   8  12
ENDBRANCH   7   8
ENDBRANCH   1   7
BRANCH   4  19
ATOM     19  C   UNL     1      47.421   8.423  13.645  0.00  0.00    +0.000 C 
BRANCH  19  20
ATOM     20  N   UNL     1      47.763   7.671  14.823  0.00  0.00    +0.000 N 
ATOM     21  C   UNL     1      48.980   7.054  14.942  0.00  0.00    +0.000 C 
ATOM     22  O   UNL     1      49.845   7.145  14.076  0.00  0.00    +0.000 OA
ATOM     23  H   UNL     1      46.999   7.396  15.432  0.00  0.00    +0.000 HD
BRANCH  21  24
ATOM     24  C   UNL     1      49.219   6.324  16.193  0.00  0.00    +0.000 A 
ATOM     25  C   UNL     1      50.206   6.761  17.065  0.00  0.00    +0.000 A 
ATOM     26  S   UNL     1      50.325   5.827  18.486  0.00  0.00    +0.000 S 
ATOM     27  C   UNL     1      49.093   4.777  17.964  0.00  0.00    +0.000 A 
ATOM     28  N   UNL     1      48.713   3.713  18.722  0.00  0.00    +0.000 NA
ATOM     29  C   UNL     1      47.784   2.987  18.196  0.00  0.00    +0.000 A 
ATOM     30  N   UNL     1      47.195   3.233  16.983  0.00  0.00    +0.000 N 
ATOM     31  C   UNL     1      47.530   4.306  16.192  0.00  0.00    +0.000 A 
ATOM     32  O   UNL     1      46.959   4.515  15.127  0.00  0.00    +0.000 OA
ATOM     33  C   UNL     1      48.580   5.148  16.733  0.00  0.00    +0.000 A 
ATOM     34  H   UNL     1      46.465   2.630  16.632  0.00  0.00    +0.000 HD
ENDBRANCH  21  24
ENDBRANCH  19  20
ENDBRANCH   4  19
TORSDOF 9
ENDMDL
MODEL 2
REMARK VINA RESULT:    -7.214      1.861      2.517
REMARK INTER + INTRA:         -12.215
REMARK INTER:                 -10.989
REMARK INTRA:                  -1.226
REMARK UNBOUND:                -1.206
REMARK  Name = 
REMARK  9 active torsions:
REMARK  status: ('A' for Active; 'I' for Inactive)
REMARK    1  A    between atoms: C_2  and  C_3
REMARK    2  A    between atoms: C_3  and  N_4
REMARK    3  A    between atoms: N_4  and  C_5
REMARK    4  A    between atoms: N_4  and  C_12
REMARK    5  A    between atoms: C_5  and  C_6
REMARK    6  A    between atoms: C_12  and  C_13
REMARK    7  A    between atoms: C_16  and  C_17
REMARK    8  A    between atoms: C_17  and  N_18
REMARK    9  A    between atoms: C_19  and  C_21
REMARK                            x       y       z     vdW  Elec       q    Type
REMARK                         _______ _______ _______ _____ _____    ______ ____
ROOT
ATOM      1  C   UNL     1      45.201   6.353  11.159  0.00  0.00    +0.000 A 
ATOM      2  C   UNL     1      46.592   6.204  11.066  0.00  0.00    +0.000 A 
ATOM      3  C   UNL     1      47.442   6.942  11.894  0.00  0.00    +0.000 A 
ATOM      4  C   UNL     1      46.907   7.840  12.829  0.00  0.00    +0.000 A 
ATOM      5  C   UNL     1      45.521   8.027  12.879  0.00  0.00    +0.000 A 
ATOM      6  C   UNL     1      44.672   7.285  12.055  0.00  0.00    +0.000 A 
ENDROOT
BRANCH   1   7
ATOM      7  C   UNL     1      44.282   5.458  10.351  0.00  0.00    +0.000 C 
BRANCH   7   8
ATOM      8  N   UNL     1      44.888   4.141  10.082  0.00  0.00    +0.000 NA
BRANCH   8   9
ATOM      9  C   UNL     1      44.451   3.151  11.109  0.00  0.00    +0.000 C 
BRANCH   9  11
ATOM     10  N   UNL     1      46.173   3.153  13.293  0.00  0.00    +0.000 NA
ATOM     11  C   UNL     1      45.392   3.153  12.303  0.00  0.00    +0.000 C 
ENDBRANCH   9  11
ENDBRANCH   8   9
BRANCH   8  12
ATOM     12  C   UNL     1      44.584   3.670   8.710  0.00  0.00    +0.000 C 
BRANCH  12  13
ATOM     13  C   UNL     1      45.718   2.906   8.058  0.00  0.00    +0.000 A 
ATOM     14  C   UNL     1      45.866   1.526   8.243  0.00  0.00    +0.000 A 
ATOM     15  C   UNL     1      46.972   0.895   7.691  0.00  0.00    +0.000 A 
ATOM     16  N   UNL     1      47.919   1.533   6.969  0.00  0.00    +0.000 NA
ATOM     17  C   UNL     1      47.742   2.856   6.775  0.00  0.00    +0.000 A 
ATOM     18  C   UNL     1      46.669   3.574   7.278  0.00  0.00    +0.000 A 
ENDBRANCH  12  13
ENDBRANCH   8  12
ENDBRANCH   7   8
ENDBRANCH   1   7
BRANCH   4  19
ATOM     19  C   UNL     1      47.811   8.628  13.740  0.00  0.00    +0.000 C 
BRANCH  19  20
ATOM     20  N   UNL     1      47.847   8.051  15.056  0.00  0.00    +0.000 N 
ATOM     21  C   UNL     1      48.833   7.172  15.420  0.00  0.00    +0.000 C 
ATOM     22  O   UNL     1      49.749   6.869  14.659  0.00  0.00    +0.000 OA
ATOM     23  H   UNL     1      46.996   8.104  15.607  0.00  0.00    +0.000 HD
BRANCH  21  24
ATOM     24  C   UNL     1      48.772   6.656  16.792  0.00  0.00    +0.000 A 
ATOM     25  C   UNL     1      48.826   5.287  17.014  0.00  0.00    +0.000 A 
ATOM     26  S   UNL     1      48.784   4.860  18.664  0.00  0.00    +0.000 S 
ATOM     27  C   UNL     1      48.645   6.488  19.137  0.00  0.00    +0.000 A 
ATOM     28  N   UNL     1      48.536   6.827  20.450  0.00  0.00    +0.000 NA
ATOM     29  C   UNL     1      48.413   8.094  20.667  0.00  0.00    +0.000 A 
ATOM     30  N   UNL     1      48.398   9.054  19.688  0.00  0.00    +0.000 N 
ATOM     31  C   UNL     1      48.527   8.762  18.351  0.00  0.00    +0.000 A 
ATOM     32  O   UNL     1      48.543   9.649  17.504  0.00  0.00    +0.000 OA
ATOM     33  C   UNL     1      48.655   7.348  18.053  0.00  0.00    +0.000 A 
ATOM     34  H   UNL     1      48.309  10.031  19.925  0.00  0.00    +0.000 HD
ENDBRANCH  21  24
ENDBRANCH  19  20
ENDBRANCH   4  19
TORSDOF 9
ENDMDL
MODEL 3
REMARK VINA RESULT:    -7.100      1.547      2.113
REMARK INTER + INTRA:         -12.043
REMARK INTER:                 -10.552
REMARK INTRA:                  -1.491
REMARK UNBOUND:                -1.206
REMARK  Name = 
REMARK  9 active torsions:
REMARK  status: ('A' for Active; 'I' for Inactive)
REMARK    1  A    between atoms: C_2  and  C_3
REMARK    2  A    between atoms: C_3  and  N_4
REMARK    3  A    between atoms: N_4  and  C_5
REMARK    4  A    between atoms: N_4  and  C_12
REMARK    5  A    between atoms: C_5  and  C_6
REMARK    6  A    between atoms: C_12  and  C_13
REMARK    7  A    between atoms: C_16  and  C_17
REMARK    8  A    between atoms: C_17  and  N_18
REMARK    9  A    between atoms: C_19  and  C_21
REMARK                            x       y       z     vdW  Elec       q    Type
REMARK                         _______ _______ _______ _____ _____    ______ ____
ROOT
ATOM      1  C   UNL     1      45.753   6.776  11.719  0.00  0.00    +0.000 A 
ATOM      2  C   UNL     1      45.399   7.689  12.723  0.00  0.00    +0.000 A 
ATOM      3  C   UNL     1      46.383   8.409  13.405  0.00  0.00    +0.000 A 
ATOM      4  C   UNL     1      47.737   8.226  13.088  0.00  0.00    +0.000 A 
ATOM      5  C   UNL     1      48.088   7.272  12.124  0.00  0.00    +0.000 A 
ATOM      6  C   UNL     1      47.103   6.557  11.440  0.00  0.00    +0.000 A 
ENDROOT
BRANCH   1   7
ATOM      7  C   UNL     1      44.678   6.095  10.895  0.00  0.00    +0.000 C 
BRANCH   7   8
ATOM      8  N   UNL     1      44.975   4.669  10.668  0.00  0.00    +0.000 NA
BRANCH   8   9
ATOM      9  C   UNL     1      44.489   3.850  11.816  0.00  0.00    +0.000 C 
BRANCH   9  11
ATOM     10  N   UNL     1      46.573   3.223  13.548  0.00  0.00    +0.000 NA
ATOM     11  C   UNL     1      45.628   3.507  12.763  0.00  0.00    +0.000 C 
ENDBRANCH   9  11
ENDBRANCH   8   9
BRANCH   8  12
ATOM     12  C   UNL     1      44.411   4.191   9.383  0.00  0.00    +0.000 C 
BRANCH  12  13
ATOM     13  C   UNL     1      45.361   3.326   8.579  0.00  0.00    +0.000 A 
ATOM     14  C   UNL     1      45.411   1.939   8.761  0.00  0.00    +0.000 A 
ATOM     15  C   UNL     1      46.359   1.209   8.059  0.00  0.00    +0.000 A 
ATOM     16  N   UNL     1      47.240   1.757   7.194  0.00  0.00    +0.000 NA
ATOM     17  C   UNL     1      47.156   3.090   7.009  0.00  0.00    +0.000 A 
ATOM     18  C   UNL     1      46.240   3.904   7.656  0.00  0.00    +0.000 A 
ENDBRANCH  12  13
ENDBRANCH   8  12
ENDBRANCH   7   8
ENDBRANCH   1   7
BRANCH   4  19
ATOM     19  C   UNL     1      48.806   9.008  13.803  0.00  0.00    +0.000 C 
BRANCH  19  20
ATOM     20  N   UNL     1      49.241   8.322  14.989  0.00  0.00    +0.000 N 
ATOM     21  C   UNL     1      48.755   8.660  16.224  0.00  0.00    +0.000 C 
ATOM     22  O   UNL     1      47.901   9.531  16.372  0.00  0.00    +0.000 OA
ATOM     23  H   UNL     1      50.093   7.775  14.919  0.00  0.00    +0.000 HD
BRANCH  21  24
ATOM     24  C   UNL     1      49.264   7.884  17.360  0.00  0.00    +0.000 A 
ATOM     25  C   UNL     1      49.823   8.542  18.447  0.00  0.00    +0.000 A 
ATOM     26  S   UNL     1      50.327   7.495  19.694  0.00  0.00    +0.000 S 
ATOM     27  C   UNL     1      49.860   6.122  18.805  0.00  0.00    +0.000 A 
ATOM     28  N   UNL     1      50.048   4.870  19.302  0.00  0.00    +0.000 NA
ATOM     29  C   UNL     1      49.671   3.920  18.514  0.00  0.00    +0.000 A 
ATOM     30  N   UNL     1      49.114   4.109  17.275  0.00  0.00    +0.000 N 
ATOM     31  C   UNL     1      48.885   5.354  16.740  0.00  0.00    +0.000 A 
ATOM     32  O   UNL     1      48.354   5.488  15.643  0.00  0.00    +0.000 OA
ATOM     33  C   UNL     1      49.304   6.458  17.583  0.00  0.00    +0.000 A 
ATOM     34  H   UNL     1      48.830   3.322  16.711  0.00  0.00    +0.000 HD
ENDBRANCH  21  24
ENDBRANCH  19  20
ENDBRANCH   4  19
TORSDOF 9
ENDMDL
MODEL 4
REMARK VINA RESULT:    -6.861      2.863      8.306
REMARK INTER + INTRA:         -11.677
REMARK INTER:                  -9.693
REMARK INTRA:                  -1.984
REMARK UNBOUND:                -1.206
REMARK  Name = 
REMARK  9 active torsions:
REMARK  status: ('A' for Active; 'I' for Inactive)
REMARK    1  A    between atoms: C_2  and  C_3
REMARK    2  A    between atoms: C_3  and  N_4
REMARK    3  A    between atoms: N_4  and  C_5
REMARK    4  A    between atoms: N_4  and  C_12
REMARK    5  A    between atoms: C_5  and  C_6
REMARK    6  A    between atoms: C_12  and  C_13
REMARK    7  A    between atoms: C_16  and  C_17
REMARK    8  A    between atoms: C_17  and  N_18
REMARK    9  A    between atoms: C_19  and  C_21
REMARK                            x       y       z     vdW  Elec       q    Type
REMARK                         _______ _______ _______ _____ _____    ______ ____
ROOT
ATOM      1  C   UNL     1      49.332   8.117  15.985  0.00  0.00    +0.000 A 
ATOM      2  C   UNL     1      48.199   8.855  15.612  0.00  0.00    +0.000 A 
ATOM      3  C   UNL     1      47.697   8.774  14.310  0.00  0.00    +0.000 A 
ATOM      4  C   UNL     1      48.324   7.950  13.364  0.00  0.00    +0.000 A 
ATOM      5  C   UNL     1      49.487   7.260  13.726  0.00  0.00    +0.000 A 
ATOM      6  C   UNL     1      49.985   7.337  15.028  0.00  0.00    +0.000 A 
ENDROOT
BRANCH   1   7
ATOM      7  C   UNL     1      49.794   8.109  17.429  0.00  0.00    +0.000 C 
BRANCH   7   8
ATOM      8  N   UNL     1      50.209   6.764  17.869  0.00  0.00    +0.000 NA
BRANCH   8   9
ATOM      9  C   UNL     1      51.267   6.866  18.916  0.00  0.00    +0.000 C 
BRANCH   9  11
ATOM     10  N   UNL     1      53.410   5.191  18.337  0.00  0.00    +0.000 NA
ATOM     11  C   UNL     1      52.438   5.950  18.600  0.00  0.00    +0.000 C 
ENDBRANCH   9  11
ENDBRANCH   8   9
BRANCH   8  12
ATOM     12  C   UNL     1      49.054   5.963  18.341  0.00  0.00    +0.000 C 
BRANCH  12  13
ATOM     13  C   UNL     1      48.814   4.700  17.540  0.00  0.00    +0.000 A 
ATOM     14  C   UNL     1      49.606   3.561  17.725  0.00  0.00    +0.000 A 
ATOM     15  C   UNL     1      49.394   2.463  16.903  0.00  0.00    +0.000 A 
ATOM     16  N   UNL     1      48.456   2.420  15.932  0.00  0.00    +0.000 NA
ATOM     17  C   UNL     1      47.683   3.516  15.790  0.00  0.00    +0.000 A 
ATOM     18  C   UNL     1      47.811   4.657  16.565  0.00  0.00    +0.000 A 
ENDBRANCH  12  13
ENDBRANCH   8  12
ENDBRANCH   7   8
ENDBRANCH   1   7
BRANCH   4  19
ATOM     19  C   UNL     1      47.782   7.840  11.964  0.00  0.00    +0.000 C 
BRANCH  19  20
ATOM     20  N   UNL     1      47.044   6.618  11.791  0.00  0.00    +0.000 N 
ATOM     21  C   UNL     1      45.674   6.607  11.817  0.00  0.00    +0.000 C 
ATOM     22  O   UNL     1      45.016   7.636  11.948  0.00  0.00    +0.000 OA
ATOM     23  H   UNL     1      47.554   5.749  11.913  0.00  0.00    +0.000 HD
BRANCH  21  24
ATOM     24  C   UNL     1      45.029   5.304  11.620  0.00  0.00    +0.000 A 
ATOM     25  C   UNL     1      44.331   4.718  12.666  0.00  0.00    +0.000 A 
ATOM     26  S   UNL     1      43.611   3.227  12.258  0.00  0.00    +0.000 S 
ATOM     27  C   UNL     1      44.248   3.291  10.681  0.00  0.00    +0.000 A 
ATOM     28  N   UNL     1      44.024   2.282   9.796  0.00  0.00    +0.000 NA
ATOM     29  C   UNL     1      44.585   2.447   8.645  0.00  0.00    +0.000 A 
ATOM     30  N   UNL     1      45.342   3.534   8.296  0.00  0.00    +0.000 N 
ATOM     31  C   UNL     1      45.577   4.588   9.148  0.00  0.00    +0.000 A 
ATOM     32  O   UNL     1      46.233   5.561   8.791  0.00  0.00    +0.000 OA
ATOM     33  C   UNL     1      44.979   4.444  10.461  0.00  0.00    +0.000 A 
ATOM     34  H   UNL     1      45.745   3.608   7.374  0.00  0.00    +0.000 HD
ENDBRANCH  21  24
ENDBRANCH  19  20
ENDBRANCH   4  19
TORSDOF 9
ENDMDL
MODEL 5
REMARK VINA RESULT:    -6.798      3.399      8.124
REMARK INTER + INTRA:         -11.581
REMARK INTER:                  -9.035
REMARK INTRA:                  -2.546
REMARK UNBOUND:                -1.206
REMARK  Name = 
REMARK  9 active torsions:
REMARK  status: ('A' for Active; 'I' for Inactive)
REMARK    1  A    between atoms: C_2  and  C_3
REMARK    2  A    between atoms: C_3  and  N_4
REMARK    3  A    between atoms: N_4  and  C_5
REMARK    4  A    between atoms: N_4  and  C_12
REMARK    5  A    between atoms: C_5  and  C_6
REMARK    6  A    between atoms: C_12  and  C_13
REMARK    7  A    between atoms: C_16  and  C_17
REMARK    8  A    between atoms: C_17  and  N_18
REMARK    9  A    between atoms: C_19  and  C_21
REMARK                            x       y       z     vdW  Elec       q    Type
REMARK                         _______ _______ _______ _____ _____    ______ ____
ROOT
ATOM      1  C   UNL     1      50.985   7.099  17.297  0.00  0.00    +0.000 A 
ATOM      2  C   UNL     1      50.070   7.997  17.863  0.00  0.00    +0.000 A 
ATOM      3  C   UNL     1      49.128   8.648  17.062  0.00  0.00    +0.000 A 
ATOM      4  C   UNL     1      49.090   8.406  15.681  0.00  0.00    +0.000 A 
ATOM      5  C   UNL     1      50.043   7.552  15.113  0.00  0.00    +0.000 A 
ATOM      6  C   UNL     1      50.980   6.897  15.915  0.00  0.00    +0.000 A 
ENDROOT
BRANCH   1   7
ATOM      7  C   UNL     1      51.918   6.299  18.186  0.00  0.00    +0.000 C 
BRANCH   7   8
ATOM      8  N   UNL     1      51.746   4.846  18.003  0.00  0.00    +0.000 NA
BRANCH   8   9
ATOM      9  C   UNL     1      53.040   4.140  18.236  0.00  0.00    +0.000 C 
BRANCH   9  11
ATOM     10  N   UNL     1      52.690   1.381  18.197  0.00  0.00    +0.000 NA
ATOM     11  C   UNL     1      52.849   2.632  18.215  0.00  0.00    +0.000 C 
ENDBRANCH   9  11
ENDBRANCH   8   9
BRANCH   8  12
ATOM     12  C   UNL     1      50.671   4.310  18.871  0.00  0.00    +0.000 C 
BRANCH  12  13
ATOM     13  C   UNL     1      49.400   3.956  18.126  0.00  0.00    +0.000 A 
ATOM     14  C   UNL     1      49.352   2.865  17.250  0.00  0.00    +0.000 A 
ATOM     15  C   UNL     1      48.186   2.640  16.532  0.00  0.00    +0.000 A 
ATOM     16  N   UNL     1      47.080   3.409  16.633  0.00  0.00    +0.000 NA
ATOM     17  C   UNL     1      47.136   4.436  17.506  0.00  0.00    +0.000 A 
ATOM     18  C   UNL     1      48.249   4.738  18.274  0.00  0.00    +0.000 A 
ENDBRANCH  12  13
ENDBRANCH   8  12
ENDBRANCH   7   8
ENDBRANCH   1   7
BRANCH   4  19
ATOM     19  C   UNL     1      48.069   9.087  14.810  0.00  0.00    +0.000 C 
BRANCH  19  20
ATOM     20  N   UNL     1      47.143   8.135  14.260  0.00  0.00    +0.000 N 
ATOM     21  C   UNL     1      46.801   8.161  12.933  0.00  0.00    +0.000 C 
ATOM     22  O   UNL     1      47.296   8.966  12.149  0.00  0.00    +0.000 OA
ATOM     23  H   UNL     1      46.561   7.624  14.917  0.00  0.00    +0.000 HD
BRANCH  21  24
ATOM     24  C   UNL     1      45.855   7.133  12.484  0.00  0.00    +0.000 A 
ATOM     25  C   UNL     1      44.724   7.505  11.770  0.00  0.00    +0.000 A 
ATOM     26  S   UNL     1      43.754   6.189  11.291  0.00  0.00    +0.000 S 
ATOM     27  C   UNL     1      44.786   5.078  12.062  0.00  0.00    +0.000 A 
ATOM     28  N   UNL     1      44.509   3.746  12.057  0.00  0.00    +0.000 NA
ATOM     29  C   UNL     1      45.362   3.020  12.699  0.00  0.00    +0.000 A 
ATOM     30  N   UNL     1      46.472   3.505  13.339  0.00  0.00    +0.000 N 
ATOM     31  C   UNL     1      46.805   4.839  13.354  0.00  0.00    +0.000 A 
ATOM     32  O   UNL     1      47.825   5.234  13.909  0.00  0.00    +0.000 OA
ATOM     33  C   UNL     1      45.870   5.700  12.656  0.00  0.00    +0.000 A 
ATOM     34  H   UNL     1      47.107   2.882  13.816  0.00  0.00    +0.000 HD
ENDBRANCH  21  24
ENDBRANCH  19  20
ENDBRANCH   4  19
TORSDOF 9
ENDMDL
MODEL 6
REMARK VINA RESULT:    -6.569      2.401      3.287
REMARK INTER + INTRA:         -11.232
REMARK INTER:                  -9.729
REMARK INTRA:                  -1.503
REMARK UNBOUND:                -1.206
REMARK  Name = 
REMARK  9 active torsions:
REMARK  status: ('A' for Active; 'I' for Inactive)
REMARK    1  A    between atoms: C_2  and  C_3
REMARK    2  A    between atoms: C_3  and  N_4
REMARK    3  A    between atoms: N_4  and  C_5
REMARK    4  A    between atoms: N_4  and  C_12
REMARK    5  A    between atoms: C_5  and  C_6
REMARK    6  A    between atoms: C_12  and  C_13
REMARK    7  A    between atoms: C_16  and  C_17
REMARK    8  A    between atoms: C_17  and  N_18
REMARK    9  A    between atoms: C_19  and  C_21
REMARK                            x       y       z     vdW  Elec       q    Type
REMARK                         _______ _______ _______ _____ _____    ______ ____
ROOT
ATOM      1  C   UNL     1      46.608   7.589  12.406  0.00  0.00    +0.000 A 
ATOM      2  C   UNL     1      47.659   6.998  11.690  0.00  0.00    +0.000 A 
ATOM      3  C   UNL     1      48.975   7.431  11.875  0.00  0.00    +0.000 A 
ATOM      4  C   UNL     1      49.255   8.464  12.781  0.00  0.00    +0.000 A 
ATOM      5  C   UNL     1      48.196   9.089  13.451  0.00  0.00    +0.000 A 
ATOM      6  C   UNL     1      46.882   8.651  13.270  0.00  0.00    +0.000 A 
ENDROOT
BRANCH   1   7
ATOM      7  C   UNL     1      45.203   7.029  12.298  0.00  0.00    +0.000 C 
BRANCH   7   8
ATOM      8  N   UNL     1      45.204   5.588  11.985  0.00  0.00    +0.000 NA
BRANCH   8   9
ATOM      9  C   UNL     1      44.984   4.789  13.225  0.00  0.00    +0.000 C 
BRANCH   9  11
ATOM     10  N   UNL     1      47.298   3.433  13.962  0.00  0.00    +0.000 NA
ATOM     11  C   UNL     1      46.248   4.048  13.628  0.00  0.00    +0.000 C 
ENDBRANCH   9  11
ENDBRANCH   8   9
BRANCH   8  12
ATOM     12  C   UNL     1      44.206   5.255  10.941  0.00  0.00    +0.000 C 
BRANCH  12  13
ATOM     13  C   UNL     1      44.708   4.275   9.901  0.00  0.00    +0.000 A 
ATOM     14  C   UNL     1      44.410   2.910   9.986  0.00  0.00    +0.000 A 
ATOM     15  C   UNL     1      44.968   2.048   9.052  0.00  0.00    +0.000 A 
ATOM     16  N   UNL     1      45.781   2.448   8.051  0.00  0.00    +0.000 NA
ATOM     17  C   UNL     1      46.031   3.771   7.967  0.00  0.00    +0.000 A 
ATOM     18  C   UNL     1      45.516   4.711   8.845  0.00  0.00    +0.000 A 
ENDBRANCH  12  13
ENDBRANCH   8  12
ENDBRANCH   7   8
ENDBRANCH   1   7
BRANCH   4  19
ATOM     19  C   UNL     1      50.670   8.929  13.002  0.00  0.00    +0.000 C 
BRANCH  19  20
ATOM     20  N   UNL     1      51.391   8.005  13.836  0.00  0.00    +0.000 N 
ATOM     21  C   UNL     1      51.528   8.223  15.182  0.00  0.00    +0.000 C 
ATOM     22  O   UNL     1      51.013   9.186  15.742  0.00  0.00    +0.000 OA
ATOM     23  H   UNL     1      52.005   7.345  13.370  0.00  0.00    +0.000 HD
BRANCH  21  24
ATOM     24  C   UNL     1      52.276   7.208  15.932  0.00  0.00    +0.000 A 
ATOM     25  C   UNL     1      53.659   7.295  16.016  0.00  0.00    +0.000 A 
ATOM     26  S   UNL     1      54.367   6.062  16.956  0.00  0.00    +0.000 S 
ATOM     27  C   UNL     1      52.853   5.341  17.246  0.00  0.00    +0.000 A 
ATOM     28  N   UNL     1      52.752   4.200  17.981  0.00  0.00    +0.000 NA
ATOM     29  C   UNL     1      51.549   3.748  18.103  0.00  0.00    +0.000 A 
ATOM     30  N   UNL     1      50.436   4.338  17.562  0.00  0.00    +0.000 N 
ATOM     31  C   UNL     1      50.486   5.502  16.831  0.00  0.00    +0.000 A 
ATOM     32  O   UNL     1      49.466   6.020  16.391  0.00  0.00    +0.000 OA
ATOM     33  C   UNL     1      51.819   6.044  16.654  0.00  0.00    +0.000 A 
ATOM     34  H   UNL     1      49.520   3.939  17.703  0.00  0.00    +0.000 HD
ENDBRANCH  21  24
ENDBRANCH  19  20
ENDBRANCH   4  19
TORSDOF 9
ENDMDL
MODEL 7
REMARK VINA RESULT:    -6.550      3.410      8.229
REMARK INTER + INTRA:         -11.202
REMARK INTER:                 -10.127
REMARK INTRA:                  -1.075
REMARK UNBOUND:                -1.206
REMARK  Name = 
REMARK  9 active torsions:
REMARK  status: ('A' for Active; 'I' for Inactive)
REMARK    1  A    between atoms: C_2  and  C_3
REMARK    2  A    between atoms: C_3  and  N_4
REMARK    3  A    between atoms: N_4  and  C_5
REMARK    4  A    between atoms: N_4  and  C_12
REMARK    5  A    between atoms: C_5  and  C_6
REMARK    6  A    between atoms: C_12  and  C_13
REMARK    7  A    between atoms: C_16  and  C_17
REMARK    8  A    between atoms: C_17  and  N_18
REMARK    9  A    between atoms: C_19  and  C_21
REMARK                            x       y       z     vdW  Elec       q    Type
REMARK                         _______ _______ _______ _____ _____    ______ ____
ROOT
ATOM      1  C   UNL     1      49.524   7.379  17.840  0.00  0.00    +0.000 A 
ATOM      2  C   UNL     1      48.497   8.093  17.208  0.00  0.00    +0.000 A 
ATOM      3  C   UNL     1      48.467   8.209  15.815  0.00  0.00    +0.000 A 
ATOM      4  C   UNL     1      49.468   7.610  15.037  0.00  0.00    +0.000 A 
ATOM      5  C   UNL     1      50.522   6.946  15.677  0.00  0.00    +0.000 A 
ATOM      6  C   UNL     1      50.548   6.826  17.068  0.00  0.00    +0.000 A 
ENDROOT
BRANCH   1   7
ATOM      7  C   UNL     1      49.481   7.146  19.338  0.00  0.00    +0.000 C 
BRANCH   7   8
ATOM      8  N   UNL     1      49.554   5.713  19.678  0.00  0.00    +0.000 NA
BRANCH   8   9
ATOM      9  C   UNL     1      49.704   5.539  21.152  0.00  0.00    +0.000 C 
BRANCH   9  11
ATOM     10  N   UNL     1      52.195   4.473  21.781  0.00  0.00    +0.000 NA
ATOM     11  C   UNL     1      51.065   4.956  21.496  0.00  0.00    +0.000 C 
ENDBRANCH   9  11
ENDBRANCH   8   9
BRANCH   8  12
ATOM     12  C   UNL     1      48.381   4.969  19.160  0.00  0.00    +0.000 C 
BRANCH  12  13
ATOM     13  C   UNL     1      48.736   3.872  18.176  0.00  0.00    +0.000 A 
ATOM     14  C   UNL     1      50.029   3.339  18.117  0.00  0.00    +0.000 A 
ATOM     15  C   UNL     1      50.317   2.398  17.140  0.00  0.00    +0.000 A 
ATOM     16  N   UNL     1      49.416   1.951  16.238  0.00  0.00    +0.000 NA
ATOM     17  C   UNL     1      48.168   2.453  16.331  0.00  0.00    +0.000 A 
ATOM     18  C   UNL     1      47.780   3.389  17.275  0.00  0.00    +0.000 A 
ENDBRANCH  12  13
ENDBRANCH   8  12
ENDBRANCH   7   8
ENDBRANCH   1   7
BRANCH   4  19
ATOM     19  C   UNL     1      49.438   7.713  13.536  0.00  0.00    +0.000 C 
BRANCH  19  20
ATOM     20  N   UNL     1      48.112   7.481  13.030  0.00  0.00    +0.000 N 
ATOM     21  C   UNL     1      47.574   6.221  12.998  0.00  0.00    +0.000 C 
ATOM     22  O   UNL     1      48.178   5.244  13.434  0.00  0.00    +0.000 OA
ATOM     23  H   UNL     1      47.698   8.216  12.466  0.00  0.00    +0.000 HD
BRANCH  21  24
ATOM     24  C   UNL     1      46.210   6.109  12.470  0.00  0.00    +0.000 A 
ATOM     25  C   UNL     1      45.565   7.239  11.987  0.00  0.00    +0.000 A 
ATOM     26  S   UNL     1      44.005   6.927  11.374  0.00  0.00    +0.000 S 
ATOM     27  C   UNL     1      44.119   5.277  11.775  0.00  0.00    +0.000 A 
ATOM     28  N   UNL     1      43.085   4.426  11.535  0.00  0.00    +0.000 NA
ATOM     29  C   UNL     1      43.296   3.209  11.910  0.00  0.00    +0.000 A 
ATOM     30  N   UNL     1      44.452   2.764  12.496  0.00  0.00    +0.000 N 
ATOM     31  C   UNL     1      45.532   3.580  12.739  0.00  0.00    +0.000 A 
ATOM     32  O   UNL     1      46.564   3.141  13.234  0.00  0.00    +0.000 OA
ATOM     33  C   UNL     1      45.339   4.963  12.347  0.00  0.00    +0.000 A 
ATOM     34  H   UNL     1      44.559   1.795  12.757  0.00  0.00    +0.000 HD
ENDBRANCH  21  24
ENDBRANCH  19  20
ENDBRANCH   4  19
TORSDOF 9
ENDMDL
MODEL 8
REMARK VINA RESULT:    -6.448      3.737      9.082
REMARK INTER + INTRA:         -11.047
REMARK INTER:                  -9.264
REMARK INTRA:                  -1.783
REMARK UNBOUND:                -1.206
REMARK  Name = 
REMARK  9 active torsions:
REMARK  status: ('A' for Active; 'I' for Inactive)
REMARK    1  A    between atoms: C_2  and  C_3
REMARK    2  A    between atoms: C_3  and  N_4
REMARK    3  A    between atoms: N_4  and  C_5
REMARK    4  A    between atoms: N_4  and  C_12
REMARK    5  A    between atoms: C_5  and  C_6
REMARK    6  A    between atoms: C_12  and  C_13
REMARK    7  A    between atoms: C_16  and  C_17
REMARK    8  A    between atoms: C_17  and  N_18
REMARK    9  A    between atoms: C_19  and  C_21
REMARK                            x       y       z     vdW  Elec       q    Type
REMARK                         _______ _______ _______ _____ _____    ______ ____
ROOT
ATOM      1  C   UNL     1      51.209   3.925  18.499  0.00  0.00    +0.000 A 
ATOM      2  C   UNL     1      50.953   2.912  17.564  0.00  0.00    +0.000 A 
ATOM      3  C   UNL     1      49.659   2.706  17.079  0.00  0.00    +0.000 A 
ATOM      4  C   UNL     1      48.602   3.513  17.525  0.00  0.00    +0.000 A 
ATOM      5  C   UNL     1      48.853   4.484  18.501  0.00  0.00    +0.000 A 
ATOM      6  C   UNL     1      50.147   4.694  18.981  0.00  0.00    +0.000 A 
ENDROOT
BRANCH   1   7
ATOM      7  C   UNL     1      52.632   4.228  18.924  0.00  0.00    +0.000 C 
BRANCH   7   8
ATOM      8  N   UNL     1      53.055   5.580  18.514  0.00  0.00    +0.000 NA
BRANCH   8   9
ATOM      9  C   UNL     1      54.040   6.132  19.489  0.00  0.00    +0.000 C 
BRANCH   9  11
ATOM     10  N   UNL     1      53.183   5.732  22.105  0.00  0.00    +0.000 NA
ATOM     11  C   UNL     1      53.572   5.913  20.919  0.00  0.00    +0.000 C 
ENDBRANCH   9  11
ENDBRANCH   8   9
BRANCH   8  12
ATOM     12  C   UNL     1      53.597   5.588  17.134  0.00  0.00    +0.000 C 
BRANCH  12  13
ATOM     13  C   UNL     1      52.860   6.516  16.190  0.00  0.00    +0.000 A 
ATOM     14  C   UNL     1      53.549   7.316  15.271  0.00  0.00    +0.000 A 
ATOM     15  C   UNL     1      52.828   8.208  14.492  0.00  0.00    +0.000 A 
ATOM     16  N   UNL     1      51.486   8.349  14.557  0.00  0.00    +0.000 NA
ATOM     17  C   UNL     1      50.836   7.548  15.426  0.00  0.00    +0.000 A 
ATOM     18  C   UNL     1      51.465   6.620  16.241  0.00  0.00    +0.000 A 
ENDBRANCH  12  13
ENDBRANCH   8  12
ENDBRANCH   7   8
ENDBRANCH   1   7
BRANCH   4  19
ATOM     19  C   UNL     1      47.207   3.312  16.997  0.00  0.00    +0.000 C 
BRANCH  19  20
ATOM     20  N   UNL     1      46.865   4.332  16.042  0.00  0.00    +0.000 N 
ATOM     21  C   UNL     1      47.001   4.117  14.696  0.00  0.00    +0.000 C 
ATOM     22  O   UNL     1      47.378   3.040  14.242  0.00  0.00    +0.000 OA
ATOM     23  H   UNL     1      46.777   5.280  16.392  0.00  0.00    +0.000 HD
BRANCH  21  24
ATOM     24  C   UNL     1      46.612   5.226  13.818  0.00  0.00    +0.000 A 
ATOM     25  C   UNL     1      47.458   6.316  13.672  0.00  0.00    +0.000 A 
ATOM     26  S   UNL     1      46.876   7.494  12.586  0.00  0.00    +0.000 S 
ATOM     27  C   UNL     1      45.448   6.611  12.309  0.00  0.00    +0.000 A 
ATOM     28  N   UNL     1      44.482   7.086  11.478  0.00  0.00    +0.000 NA
ATOM     29  C   UNL     1      43.442   6.327  11.377  0.00  0.00    +0.000 A 
ATOM     30  N   UNL     1      43.286   5.130  12.027  0.00  0.00    +0.000 N 
ATOM     31  C   UNL     1      44.243   4.599  12.858  0.00  0.00    +0.000 A 
ATOM     32  O   UNL     1      44.084   3.508  13.397  0.00  0.00    +0.000 OA
ATOM     33  C   UNL     1      45.427   5.421  13.016  0.00  0.00    +0.000 A 
ATOM     34  H   UNL     1      42.451   4.578  11.897  0.00  0.00    +0.000 HD
ENDBRANCH  21  24
ENDBRANCH  19  20
ENDBRANCH   4  19
TORSDOF 9
ENDMDL
MODEL 9
REMARK VINA RESULT:    -6.240      4.055      9.251
REMARK INTER + INTRA:         -10.730
REMARK INTER:                  -8.735
REMARK INTRA:                  -1.995
REMARK UNBOUND:                -1.206
REMARK  Name = 
REMARK  9 active torsions:
REMARK  status: ('A' for Active; 'I' for Inactive)
REMARK    1  A    between atoms: C_2  and  C_3
REMARK    2  A    between atoms: C_3  and  N_4
REMARK    3  A    between atoms: N_4  and  C_5
REMARK    4  A    between atoms: N_4  and  C_12
REMARK    5  A    between atoms: C_5  and  C_6
REMARK    6  A    between atoms: C_12  and  C_13
REMARK    7  A    between atoms: C_16  and  C_17
REMARK    8  A    between atoms: C_17  and  N_18
REMARK    9  A    between atoms: C_19  and  C_21
REMARK                            x       y       z     vdW  Elec       q    Type
REMARK                         _______ _______ _______ _____ _____    ______ ____
ROOT
ATOM      1  C   UNL     1      51.436   2.950  17.786  0.00  0.00    +0.000 A 
ATOM      2  C   UNL     1      50.708   1.974  17.090  0.00  0.00    +0.000 A 
ATOM      3  C   UNL     1      49.354   2.168  16.805  0.00  0.00    +0.000 A 
ATOM      4  C   UNL     1      48.710   3.345  17.214  0.00  0.00    +0.000 A 
ATOM      5  C   UNL     1      49.427   4.290  17.958  0.00  0.00    +0.000 A 
ATOM      6  C   UNL     1      50.782   4.098  18.237  0.00  0.00    +0.000 A 
ENDROOT
BRANCH   1   7
ATOM      7  C   UNL     1      52.932   2.792  17.978  0.00  0.00    +0.000 C 
BRANCH   7   8
ATOM      8  N   UNL     1      53.572   4.054  18.391  0.00  0.00    +0.000 NA
BRANCH   8   9
ATOM      9  C   UNL     1      54.042   3.957  19.804  0.00  0.00    +0.000 C 
BRANCH   9  11
ATOM     10  N   UNL     1      53.976   6.443  21.050  0.00  0.00    +0.000 NA
ATOM     11  C   UNL     1      54.006   5.315  20.485  0.00  0.00    +0.000 C 
ENDBRANCH   9  11
ENDBRANCH   8   9
BRANCH   8  12
ATOM     12  C   UNL     1      54.677   4.431  17.477  0.00  0.00    +0.000 C 
BRANCH  12  13
ATOM     13  C   UNL     1      54.305   5.505  16.475  0.00  0.00    +0.000 A 
ATOM     14  C   UNL     1      55.125   5.789  15.377  0.00  0.00    +0.000 A 
ATOM     15  C   UNL     1      54.776   6.840  14.540  0.00  0.00    +0.000 A 
ATOM     16  N   UNL     1      53.679   7.608  14.714  0.00  0.00    +0.000 NA
ATOM     17  C   UNL     1      52.885   7.299  15.760  0.00  0.00    +0.000 A 
ATOM     18  C   UNL     1      53.142   6.265  16.646  0.00  0.00    +0.000 A 
ENDBRANCH  12  13
ENDBRANCH   8  12
ENDBRANCH   7   8
ENDBRANCH   1   7
BRANCH   4  19
ATOM     19  C   UNL     1      47.256   3.574  16.899  0.00  0.00    +0.000 C 
BRANCH  19  20
ATOM     20  N   UNL     1      47.100   4.600  15.903  0.00  0.00    +0.000 N 
ATOM     21  C   UNL     1      47.138   4.302  14.566  0.00  0.00    +0.000 C 
ATOM     22  O   UNL     1      47.266   3.150  14.158  0.00  0.00    +0.000 OA
ATOM     23  H   UNL     1      47.225   5.560  16.206  0.00  0.00    +0.000 HD
BRANCH  21  24
ATOM     24  C   UNL     1      46.957   5.428  13.643  0.00  0.00    +0.000 A 
ATOM     25  C   UNL     1      45.892   5.423  12.754  0.00  0.00    +0.000 A 
ATOM     26  S   UNL     1      45.805   6.822  11.783  0.00  0.00    +0.000 S 
ATOM     27  C   UNL     1      47.216   7.462  12.485  0.00  0.00    +0.000 A 
ATOM     28  N   UNL     1      47.721   8.657  12.075  0.00  0.00    +0.000 NA
ATOM     29  C   UNL     1      48.807   9.013  12.674  0.00  0.00    +0.000 A 
ATOM     30  N   UNL     1      49.431   8.284  13.653  0.00  0.00    +0.000 N 
ATOM     31  C   UNL     1      48.948   7.083  14.116  0.00  0.00    +0.000 A 
ATOM     32  O   UNL     1      49.514   6.473  15.017  0.00  0.00    +0.000 OA
ATOM     33  C   UNL     1      47.734   6.632  13.464  0.00  0.00    +0.000 A 
ATOM     34  H   UNL     1      50.275   8.624  14.091  0.00  0.00    +0.000 HD
ENDBRANCH  21  24
ENDBRANCH  19  20
ENDBRANCH   4  19
TORSDOF 9
ENDMDL
