MODEL 1
REMARK VINA RESULT:    -7.995      0.000      0.000
REMARK INTER + INTRA:         -11.852
REMARK INTER:                 -11.266
REMARK INTRA:                  -0.586
REMARK UNBOUND:                -0.586
REMARK  Name = 
REMARK  8 active torsions:
REMARK  status: ('A' for Active; 'I' for Inactive)
REMARK    1  A    between atoms: C_1  and  O_2
REMARK    2  A    between atoms: O_2  and  C_3
REMARK    3  A    between atoms: C_7  and  C_8
REMARK    4  A    between atoms: N_10  and  C_11
REMARK    5  A    between atoms: C_11  and  C_12
REMARK    6  A    between atoms: C_15  and  C_16
REMARK    7  A    between atoms: C_16  and  N_17
REMARK    8  A    between atoms: C_18  and  C_20
REMARK                            x       y       z     vdW  Elec       q    Type
REMARK                         _______ _______ _______ _____ _____    ______ ____
ROOT
ATOM      1  C   UNL     1      44.705   5.422  11.229  0.00  0.00    +0.000 A 
ATOM      2  C   UNL     1      45.847   4.896  11.849  0.00  0.00    +0.000 A 
ATOM      3  C   UNL     1      46.715   5.719  12.579  0.00  0.00    +0.000 A 
ATOM      4  C   UNL     1      46.450   7.087  12.729  0.00  0.00    +0.000 A 
ATOM      5  C   UNL     1      45.309   7.615  12.109  0.00  0.00    +0.000 A 
ATOM      6  C   UNL     1      44.442   6.791  11.376  0.00  0.00    +0.000 A 
ENDROOT
BRANCH   1   7
ATOM      7  C   UNL     1      43.769   4.530  10.447  0.00  0.00    +0.000 C 
BRANCH   7  10
ATOM      8  C   UNL     1      45.400   4.184   8.624  0.00  0.00    +0.000 C 
ATOM      9  O   UNL     1      45.639   5.381   8.499  0.00  0.00    +0.000 OA
ATOM     10  N   UNL     1      44.495   3.676   9.535  0.00  0.00    +0.000 N 
ATOM     11  H   UNL     1      44.535   2.690   9.757  0.00  0.00    +0.000 HD
BRANCH   8  16
ATOM     12  C   UNL     1      46.837   0.868   7.467  0.00  0.00    +0.000 A 
ATOM     13  C   UNL     1      47.387   1.230   6.235  0.00  0.00    +0.000 A 
ATOM     14  C   UNL     1      47.327   2.555   5.799  0.00  0.00    +0.000 A 
ATOM     15  C   UNL     1      46.699   3.523   6.582  0.00  0.00    +0.000 A 
ATOM     16  C   UNL     1      46.119   3.167   7.805  0.00  0.00    +0.000 A 
ATOM     17  C   UNL     1      46.216   1.843   8.258  0.00  0.00    +0.000 A 
BRANCH  12  19
ATOM     18  C   UNL     1      46.595  -1.469   7.083  0.00  0.00    +0.000 C 
ATOM     19  O   UNL     1      46.841  -0.398   7.991  0.00  0.00    +0.000 OA
ENDBRANCH  12  19
ENDBRANCH   8  16
ENDBRANCH   7  10
ENDBRANCH   1   7
BRANCH   4  20
ATOM     20  C   UNL     1      47.382   7.981  13.513  0.00  0.00    +0.000 C 
BRANCH  20  21
ATOM     21  N   UNL     1      47.734   7.397  14.784  0.00  0.00    +0.000 N 
ATOM     22  C   UNL     1      49.037   7.116  15.113  0.00  0.00    +0.000 C 
ATOM     23  O   UNL     1      49.972   7.382  14.362  0.00  0.00    +0.000 OA
ATOM     24  H   UNL     1      46.986   6.951  15.304  0.00  0.00    +0.000 HD
BRANCH  22  25
ATOM     25  C   UNL     1      49.265   6.536  16.445  0.00  0.00    +0.000 A 
ATOM     26  C   UNL     1      50.050   7.210  17.371  0.00  0.00    +0.000 A 
ATOM     27  S   UNL     1      50.166   6.418  18.879  0.00  0.00    +0.000 S 
ATOM     28  C   UNL     1      49.218   5.117  18.330  0.00  0.00    +0.000 A 
ATOM     29  N   UNL     1      48.951   4.055  19.136  0.00  0.00    +0.000 NA
ATOM     30  C   UNL     1      48.250   3.124  18.579  0.00  0.00    +0.000 A 
ATOM     31  N   UNL     1      47.784   3.164  17.291  0.00  0.00    +0.000 N 
ATOM     32  C   UNL     1      47.994   4.233  16.453  0.00  0.00    +0.000 A 
ATOM     33  O   UNL     1      47.511   4.263  15.326  0.00  0.00    +0.000 OA
ATOM     34  C   UNL     1      48.796   5.297  17.024  0.00  0.00    +0.000 A 
ATOM     35  H   UNL     1      47.228   2.410  16.918  0.00  0.00    +0.000 HD
ENDBRANCH  22  25
ENDBRANCH  20  21
ENDBRANCH   4  20
TORSDOF 7
ENDMDL
MODEL 2
REMARK VINA RESULT:    -7.864      0.963      1.666
REMARK INTER + INTRA:         -11.668
REMARK INTER:                 -10.978
REMARK INTRA:                  -0.690
REMARK UNBOUND:                -0.586
REMARK  Name = 
REMARK  8 active torsions:
REMARK  status: ('A' for Active; 'I' for Inactive)
REMARK    1  A    between atoms: C_1  and  O_2
REMARK    2  A    between atoms: O_2  and  C_3
REMARK    3  A    between atoms: C_7  and  C_8
REMARK    4  A    between atoms: N_10  and  C_11
REMARK    5  A    between atoms: C_11  and  C_12
REMARK    6  A    between atoms: C_15  and  C_16
REMARK    7  A    between atoms: C_16  and  N_17
REMARK    8  A    between atoms: C_18  and  C_20
REMARK                            x       y       z     vdW  Elec       q    Type
REMARK                         _______ _______ _______ _____ _____    ______ ____
ROOT
ATOM      1  C   UNL     1      44.586   5.572  11.400  0.00  0.00    +0.000 A 
ATOM      2  C   UNL     1      44.579   6.971  11.303  0.00  0.00    +0.000 A 
ATOM      3  C   UNL     1      45.525   7.746  11.988  0.00  0.00    +0.000 A 
ATOM      4  C   UNL     1      46.518   7.139  12.770  0.00  0.00    +0.000 A 
ATOM      5  C   UNL     1      46.525   5.741  12.868  0.00  0.00    +0.000 A 
ATOM      6  C   UNL     1      45.576   4.966  12.185  0.00  0.00    +0.000 A 
ENDROOT
BRANCH   1   7
ATOM      7  C   UNL     1      43.568   4.741  10.654  0.00  0.00    +0.000 C 
BRANCH   7  10
ATOM      8  C   UNL     1      45.114   4.102   8.836  0.00  0.00    +0.000 C 
ATOM      9  O   UNL     1      45.427   5.261   8.584  0.00  0.00    +0.000 OA
ATOM     10  N   UNL     1      44.207   3.751   9.817  0.00  0.00    +0.000 N 
ATOM     11  H   UNL     1      44.189   2.792  10.138  0.00  0.00    +0.000 HD
BRANCH   8  16
ATOM     12  C   UNL     1      46.916   2.105   6.159  0.00  0.00    +0.000 A 
ATOM     13  C   UNL     1      46.996   0.851   6.769  0.00  0.00    +0.000 A 
ATOM     14  C   UNL     1      46.430   0.643   8.028  0.00  0.00    +0.000 A 
ATOM     15  C   UNL     1      45.800   1.693   8.695  0.00  0.00    +0.000 A 
ATOM     16  C   UNL     1      45.739   2.961   8.108  0.00  0.00    +0.000 A 
ATOM     17  C   UNL     1      46.274   3.156   6.826  0.00  0.00    +0.000 A 
BRANCH  12  19
ATOM     18  C   UNL     1      47.407   1.393   3.941  0.00  0.00    +0.000 C 
ATOM     19  O   UNL     1      47.434   2.419   4.930  0.00  0.00    +0.000 OA
ENDBRANCH  12  19
ENDBRANCH   8  16
ENDBRANCH   7  10
ENDBRANCH   1   7
BRANCH   4  20
ATOM     20  C   UNL     1      47.540   7.967  13.514  0.00  0.00    +0.000 C 
BRANCH  20  21
ATOM     21  N   UNL     1      47.737   7.485  14.858  0.00  0.00    +0.000 N 
ATOM     22  C   UNL     1      48.944   6.978  15.274  0.00  0.00    +0.000 C 
ATOM     23  O   UNL     1      49.926   6.945  14.538  0.00  0.00    +0.000 OA
ATOM     24  H   UNL     1      46.903   7.275  15.395  0.00  0.00    +0.000 HD
BRANCH  22  25
ATOM     25  C   UNL     1      49.020   6.534  16.674  0.00  0.00    +0.000 A 
ATOM     26  C   UNL     1      49.469   7.406  17.656  0.00  0.00    +0.000 A 
ATOM     27  S   UNL     1      49.444   6.742  19.228  0.00  0.00    +0.000 S 
ATOM     28  C   UNL     1      48.886   5.245  18.646  0.00  0.00    +0.000 A 
ATOM     29  N   UNL     1      48.679   4.197  19.489  0.00  0.00    +0.000 NA
ATOM     30  C   UNL     1      48.290   3.112  18.906  0.00  0.00    +0.000 A 
ATOM     31  N   UNL     1      48.081   2.982  17.558  0.00  0.00    +0.000 N 
ATOM     32  C   UNL     1      48.237   4.022  16.674  0.00  0.00    +0.000 A 
ATOM     33  O   UNL     1      47.982   3.889  15.481  0.00  0.00    +0.000 OA
ATOM     34  C   UNL     1      48.696   5.260  17.275  0.00  0.00    +0.000 A 
ATOM     35  H   UNL     1      47.761   2.110  17.166  0.00  0.00    +0.000 HD
ENDBRANCH  22  25
ENDBRANCH  20  21
ENDBRANCH   4  20
TORSDOF 7
ENDMDL
MODEL 3
REMARK VINA RESULT:    -7.824      2.014      2.776
REMARK INTER + INTRA:         -11.612
REMARK INTER:                 -10.624
REMARK INTRA:                  -0.987
REMARK UNBOUND:                -0.586
REMARK  Name = 
REMARK  8 active torsions:
REMARK  status: ('A' for Active; 'I' for Inactive)
REMARK    1  A    between atoms: C_1  and  O_2
REMARK    2  A    between atoms: O_2  and  C_3
REMARK    3  A    between atoms: C_7  and  C_8
REMARK    4  A    between atoms: N_10  and  C_11
REMARK    5  A    between atoms: C_11  and  C_12
REMARK    6  A    between atoms: C_15  and  C_16
REMARK    7  A    between atoms: C_16  and  N_17
REMARK    8  A    between atoms: C_18  and  C_20
REMARK                            x       y       z     vdW  Elec       q    Type
REMARK                         _______ _______ _______ _____ _____    ______ ____
ROOT
ATOM      1  C   UNL     1      45.212   5.548  11.549  0.00  0.00    +0.000 A 
ATOM      2  C   UNL     1      45.685   6.855  11.370  0.00  0.00    +0.000 A 
ATOM      3  C   UNL     1      46.692   7.376  12.194  0.00  0.00    +0.000 A 
ATOM      4  C   UNL     1      47.268   6.594  13.205  0.00  0.00    +0.000 A 
ATOM      5  C   UNL     1      46.794   5.287  13.385  0.00  0.00    +0.000 A 
ATOM      6  C   UNL     1      45.785   4.767  12.562  0.00  0.00    +0.000 A 
ENDROOT
BRANCH   1   7
ATOM      7  C   UNL     1      44.130   4.988  10.654  0.00  0.00    +0.000 C 
BRANCH   7  10
ATOM      8  C   UNL     1      45.457   4.150   8.746  0.00  0.00    +0.000 C 
ATOM      9  O   UNL     1      45.803   5.271   8.387  0.00  0.00    +0.000 OA
ATOM     10  N   UNL     1      44.633   3.913   9.829  0.00  0.00    +0.000 N 
ATOM     11  H   UNL     1      44.598   2.979  10.214  0.00  0.00    +0.000 HD
BRANCH   8  16
ATOM     12  C   UNL     1      47.003   1.909   6.102  0.00  0.00    +0.000 A 
ATOM     13  C   UNL     1      46.958   0.668   6.743  0.00  0.00    +0.000 A 
ATOM     14  C   UNL     1      46.390   0.552   8.013  0.00  0.00    +0.000 A 
ATOM     15  C   UNL     1      45.883   1.678   8.660  0.00  0.00    +0.000 A 
ATOM     16  C   UNL     1      45.949   2.932   8.041  0.00  0.00    +0.000 A 
ATOM     17  C   UNL     1      46.484   3.038   6.748  0.00  0.00    +0.000 A 
BRANCH  12  19
ATOM     18  C   UNL     1      47.153   1.234   3.823  0.00  0.00    +0.000 C 
ATOM     19  O   UNL     1      47.534   2.135   4.860  0.00  0.00    +0.000 OA
ENDBRANCH  12  19
ENDBRANCH   8  16
ENDBRANCH   7  10
ENDBRANCH   1   7
BRANCH   4  20
ATOM     20  C   UNL     1      48.352   7.149  14.099  0.00  0.00    +0.000 C 
BRANCH  20  21
ATOM     21  N   UNL     1      48.172   6.738  15.469  0.00  0.00    +0.000 N 
ATOM     22  C   UNL     1      49.236   6.388  16.264  0.00  0.00    +0.000 C 
ATOM     23  O   UNL     1      50.395   6.443  15.864  0.00  0.00    +0.000 OA
ATOM     24  H   UNL     1      47.238   6.452  15.741  0.00  0.00    +0.000 HD
BRANCH  22  25
ATOM     25  C   UNL     1      48.920   6.003  17.648  0.00  0.00    +0.000 A 
ATOM     26  C   UNL     1      49.121   4.694  18.067  0.00  0.00    +0.000 A 
ATOM     27  S   UNL     1      48.750   4.436  19.713  0.00  0.00    +0.000 S 
ATOM     28  C   UNL     1      48.253   6.050  19.911  0.00  0.00    +0.000 A 
ATOM     29  N   UNL     1      47.779   6.496  21.105  0.00  0.00    +0.000 NA
ATOM     30  C   UNL     1      47.405   7.732  21.102  0.00  0.00    +0.000 A 
ATOM     31  N   UNL     1      47.470   8.565  20.016  0.00  0.00    +0.000 N 
ATOM     32  C   UNL     1      47.979   8.171  18.802  0.00  0.00    +0.000 A 
ATOM     33  O   UNL     1      48.080   8.959  17.868  0.00  0.00    +0.000 OA
ATOM     34  C   UNL     1      48.393   6.783  18.745  0.00  0.00    +0.000 A 
ATOM     35  H   UNL     1      47.175   9.528  20.083  0.00  0.00    +0.000 HD
ENDBRANCH  22  25
ENDBRANCH  20  21
ENDBRANCH   4  20
TORSDOF 7
ENDMDL
MODEL 4
REMARK VINA RESULT:    -7.476      1.542      1.835
REMARK INTER + INTRA:         -11.121
REMARK INTER:                 -10.031
REMARK INTRA:                  -1.090
REMARK UNBOUND:                -0.586
REMARK  Name = 
REMARK  8 active torsions:
REMARK  status: ('A' for Active; 'I' for Inactive)
REMARK    1  A    between atoms: C_1  and  O_2
REMARK    2  A    between atoms: O_2  and  C_3
REMARK    3  A    between atoms: C_7  and  C_8
REMARK    4  A    between atoms: N_10  and  C_11
REMARK    5  A    between atoms: C_11  and  C_12
REMARK    6  A    between atoms: C_15  and  C_16
REMARK    7  A    between atoms: C_16  and  N_17
REMARK    8  A    between atoms: C_18  and  C_20
REMARK                            x       y       z     vdW  Elec       q    Type
REMARK                         _______ _______ _______ _____ _____    ______ ____
ROOT
ATOM      1  C   UNL     1      44.561   5.115  11.600  0.00  0.00    +0.000 A 
ATOM      2  C   UNL     1      45.729   5.066  12.373  0.00  0.00    +0.000 A 
ATOM      3  C   UNL     1      46.337   6.241  12.836  0.00  0.00    +0.000 A 
ATOM      4  C   UNL     1      45.776   7.496  12.559  0.00  0.00    +0.000 A 
ATOM      5  C   UNL     1      44.608   7.545  11.785  0.00  0.00    +0.000 A 
ATOM      6  C   UNL     1      44.003   6.369  11.319  0.00  0.00    +0.000 A 
ENDROOT
BRANCH   1   7
ATOM      7  C   UNL     1      43.906   3.844  11.107  0.00  0.00    +0.000 C 
BRANCH   7  10
ATOM      8  C   UNL     1      44.791   3.539   8.821  0.00  0.00    +0.000 C 
ATOM      9  O   UNL     1      44.124   4.455   8.351  0.00  0.00    +0.000 OA
ATOM     10  N   UNL     1      44.743   3.159  10.148  0.00  0.00    +0.000 N 
ATOM     11  H   UNL     1      45.488   2.582  10.514  0.00  0.00    +0.000 HD
BRANCH   8  16
ATOM     12  C   UNL     1      46.889   0.695   7.439  0.00  0.00    +0.000 A 
ATOM     13  C   UNL     1      47.494   1.316   6.343  0.00  0.00    +0.000 A 
ATOM     14  C   UNL     1      47.254   2.666   6.078  0.00  0.00    +0.000 A 
ATOM     15  C   UNL     1      46.391   3.397   6.893  0.00  0.00    +0.000 A 
ATOM     16  C   UNL     1      45.756   2.779   7.976  0.00  0.00    +0.000 A 
ATOM     17  C   UNL     1      46.031   1.434   8.263  0.00  0.00    +0.000 A 
BRANCH  12  19
ATOM     18  C   UNL     1      46.692  -1.595   6.818  0.00  0.00    +0.000 C 
ATOM     19  O   UNL     1      47.055  -0.619   7.790  0.00  0.00    +0.000 OA
ENDBRANCH  12  19
ENDBRANCH   8  16
ENDBRANCH   7  10
ENDBRANCH   1   7
BRANCH   4  20
ATOM     20  C   UNL     1      46.426   8.767  13.052  0.00  0.00    +0.000 C 
BRANCH  20  21
ATOM     21  N   UNL     1      46.891   8.632  14.411  0.00  0.00    +0.000 N 
ATOM     22  C   UNL     1      48.097   9.151  14.815  0.00  0.00    +0.000 C 
ATOM     23  O   UNL     1      48.822   9.788  14.056  0.00  0.00    +0.000 OA
ATOM     24  H   UNL     1      46.446   7.919  14.977  0.00  0.00    +0.000 HD
BRANCH  22  25
ATOM     25  C   UNL     1      48.450   8.959  16.230  0.00  0.00    +0.000 A 
ATOM     26  C   UNL     1      48.448  10.042  17.099  0.00  0.00    +0.000 A 
ATOM     27  S   UNL     1      48.831   9.630  18.711  0.00  0.00    +0.000 S 
ATOM     28  C   UNL     1      49.070   7.998  18.294  0.00  0.00    +0.000 A 
ATOM     29  N   UNL     1      49.453   7.085  19.227  0.00  0.00    +0.000 NA
ATOM     30  C   UNL     1      49.631   5.893  18.765  0.00  0.00    +0.000 A 
ATOM     31  N   UNL     1      49.453   5.528  17.456  0.00  0.00    +0.000 N 
ATOM     32  C   UNL     1      49.028   6.406  16.488  0.00  0.00    +0.000 A 
ATOM     33  O   UNL     1      48.818   6.033  15.338  0.00  0.00    +0.000 OA
ATOM     34  C   UNL     1      48.834   7.766  16.950  0.00  0.00    +0.000 A 
ATOM     35  H   UNL     1      49.594   4.574  17.160  0.00  0.00    +0.000 HD
ENDBRANCH  22  25
ENDBRANCH  20  21
ENDBRANCH   4  20
TORSDOF 7
ENDMDL
MODEL 5
REMARK VINA RESULT:    -7.364      1.711      2.558
REMARK INTER + INTRA:         -10.964
REMARK INTER:                  -9.792
REMARK INTRA:                  -1.172
REMARK UNBOUND:                -0.586
REMARK  Name = 
REMARK  8 active torsions:
REMARK  status: ('A' for Active; 'I' for Inactive)
REMARK    1  A    between atoms: C_1  and  O_2
REMARK    2  A    between atoms: O_2  and  C_3
REMARK    3  A    between atoms: C_7  and  C_8
REMARK    4  A    between atoms: N_10  and  C_11
REMARK    5  A    between atoms: C_11  and  C_12
REMARK    6  A    between atoms: C_15  and  C_16
REMARK    7  A    between atoms: C_16  and  N_17
REMARK    8  A    between atoms: C_18  and  C_20
REMARK                            x       y       z     vdW  Elec       q    Type
REMARK                         _______ _______ _______ _____ _____    ______ ____
ROOT
ATOM      1  C   UNL     1      46.003   7.412  11.978  0.00  0.00    +0.000 A 
ATOM      2  C   UNL     1      45.867   8.609  12.696  0.00  0.00    +0.000 A 
ATOM      3  C   UNL     1      46.881   9.052  13.557  0.00  0.00    +0.000 A 
ATOM      4  C   UNL     1      48.068   8.321  13.704  0.00  0.00    +0.000 A 
ATOM      5  C   UNL     1      48.204   7.124  12.987  0.00  0.00    +0.000 A 
ATOM      6  C   UNL     1      47.188   6.679  12.128  0.00  0.00    +0.000 A 
ENDROOT
BRANCH   1   7
ATOM      7  C   UNL     1      44.910   6.941  11.047  0.00  0.00    +0.000 C 
BRANCH   7  10
ATOM      8  C   UNL     1      44.454   4.776   9.948  0.00  0.00    +0.000 C 
ATOM      9  O   UNL     1      43.276   4.757  10.289  0.00  0.00    +0.000 OA
ATOM     10  N   UNL     1      45.331   5.790  10.281  0.00  0.00    +0.000 N 
ATOM     11  H   UNL     1      46.197   5.869   9.765  0.00  0.00    +0.000 HD
BRANCH   8  16
ATOM     12  C   UNL     1      46.287   3.017   7.129  0.00  0.00    +0.000 A 
ATOM     13  C   UNL     1      46.180   1.683   7.531  0.00  0.00    +0.000 A 
ATOM     14  C   UNL     1      45.478   1.352   8.692  0.00  0.00    +0.000 A 
ATOM     15  C   UNL     1      44.899   2.353   9.470  0.00  0.00    +0.000 A 
ATOM     16  C   UNL     1      45.025   3.695   9.095  0.00  0.00    +0.000 A 
ATOM     17  C   UNL     1      45.696   4.020   7.906  0.00  0.00    +0.000 A 
BRANCH  12  19
ATOM     18  C   UNL     1      47.372   2.455   5.085  0.00  0.00    +0.000 C 
ATOM     19  O   UNL     1      46.949   3.452   6.011  0.00  0.00    +0.000 OA
ENDBRANCH  12  19
ENDBRANCH   8  16
ENDBRANCH   7  10
ENDBRANCH   1   7
BRANCH   4  20
ATOM     20  C   UNL     1      49.164   8.791  14.631  0.00  0.00    +0.000 C 
BRANCH  20  21
ATOM     21  N   UNL     1      49.272   7.948  15.796  0.00  0.00    +0.000 N 
ATOM     22  C   UNL     1      48.609   8.240  16.962  0.00  0.00    +0.000 C 
ATOM     23  O   UNL     1      47.862   9.210  17.064  0.00  0.00    +0.000 OA
ATOM     24  H   UNL     1      50.053   7.301  15.821  0.00  0.00    +0.000 HD
BRANCH  22  25
ATOM     25  C   UNL     1      48.790   7.293  18.073  0.00  0.00    +0.000 A 
ATOM     26  C   UNL     1      49.138   7.759  19.333  0.00  0.00    +0.000 A 
ATOM     27  S   UNL     1      49.256   6.530  20.512  0.00  0.00    +0.000 S 
ATOM     28  C   UNL     1      48.903   5.323  19.366  0.00  0.00    +0.000 A 
ATOM     29  N   UNL     1      48.874   4.009  19.718  0.00  0.00    +0.000 NA
ATOM     30  C   UNL     1      48.628   3.200  18.742  0.00  0.00    +0.000 A 
ATOM     31  N   UNL     1      48.399   3.587  17.447  0.00  0.00    +0.000 N 
ATOM     32  C   UNL     1      48.378   4.903  17.054  0.00  0.00    +0.000 A 
ATOM     33  O   UNL     1      48.109   5.218  15.898  0.00  0.00    +0.000 OA
ATOM     34  C   UNL     1      48.671   5.853  18.109  0.00  0.00    +0.000 A 
ATOM     35  H   UNL     1      48.197   2.905  16.732  0.00  0.00    +0.000 HD
ENDBRANCH  22  25
ENDBRANCH  20  21
ENDBRANCH   4  20
TORSDOF 7
ENDMDL
MODEL 6
REMARK VINA RESULT:    -7.259      2.658      4.570
REMARK INTER + INTRA:         -10.815
REMARK INTER:                  -9.808
REMARK INTRA:                  -1.008
REMARK UNBOUND:                -0.586
REMARK  Name = 
REMARK  8 active torsions:
REMARK  status: ('A' for Active; 'I' for Inactive)
REMARK    1  A    between atoms: C_1  and  O_2
REMARK    2  A    between atoms: O_2  and  C_3
REMARK    3  A    between atoms: C_7  and  C_8
REMARK    4  A    between atoms: N_10  and  C_11
REMARK    5  A    between atoms: C_11  and  C_12
REMARK    6  A    between atoms: C_15  and  C_16
REMARK    7  A    between atoms: C_16  and  N_17
REMARK    8  A    between atoms: C_18  and  C_20
REMARK                            x       y       z     vdW  Elec       q    Type
REMARK                         _______ _______ _______ _____ _____    ______ ____
ROOT
ATOM      1  C   UNL     1      45.138   4.992  11.280  0.00  0.00    +0.000 A 
ATOM      2  C   UNL     1      45.079   4.177  12.418  0.00  0.00    +0.000 A 
ATOM      3  C   UNL     1      45.900   4.426  13.527  0.00  0.00    +0.000 A 
ATOM      4  C   UNL     1      46.786   5.513  13.534  0.00  0.00    +0.000 A 
ATOM      5  C   UNL     1      46.846   6.328  12.395  0.00  0.00    +0.000 A 
ATOM      6  C   UNL     1      46.026   6.077  11.285  0.00  0.00    +0.000 A 
ENDROOT
BRANCH   1   7
ATOM      7  C   UNL     1      44.246   4.724  10.089  0.00  0.00    +0.000 C 
BRANCH   7  10
ATOM      8  C   UNL     1      45.700   3.831   8.302  0.00  0.00    +0.000 C 
ATOM      9  O   UNL     1      46.162   4.930   8.015  0.00  0.00    +0.000 OA
ATOM     10  N   UNL     1      44.753   3.633   9.288  0.00  0.00    +0.000 N 
ATOM     11  H   UNL     1      44.609   2.695   9.639  0.00  0.00    +0.000 HD
BRANCH   8  16
ATOM     12  C   UNL     1      47.067   1.507   5.631  0.00  0.00    +0.000 A 
ATOM     13  C   UNL     1      47.147   0.305   6.338  0.00  0.00    +0.000 A 
ATOM     14  C   UNL     1      46.720   0.239   7.666  0.00  0.00    +0.000 A 
ATOM     15  C   UNL     1      46.231   1.378   8.302  0.00  0.00    +0.000 A 
ATOM     16  C   UNL     1      46.173   2.596   7.614  0.00  0.00    +0.000 A 
ATOM     17  C   UNL     1      46.565   2.649   6.269  0.00  0.00    +0.000 A 
BRANCH  12  19
ATOM     18  C   UNL     1      46.856   0.829   3.358  0.00  0.00    +0.000 C 
ATOM     19  O   UNL     1      47.455   1.684   4.329  0.00  0.00    +0.000 OA
ENDBRANCH  12  19
ENDBRANCH   8  16
ENDBRANCH   7  10
ENDBRANCH   1   7
BRANCH   4  20
ATOM     20  C   UNL     1      47.675   5.786  14.723  0.00  0.00    +0.000 C 
BRANCH  20  21
ATOM     21  N   UNL     1      47.906   7.199  14.899  0.00  0.00    +0.000 N 
ATOM     22  C   UNL     1      49.084   7.791  14.514  0.00  0.00    +0.000 C 
ATOM     23  O   UNL     1      49.984   7.160  13.966  0.00  0.00    +0.000 OA
ATOM     24  H   UNL     1      47.303   7.682  15.555  0.00  0.00    +0.000 HD
BRANCH  22  25
ATOM     25  C   UNL     1      49.189   9.242  14.734  0.00  0.00    +0.000 A 
ATOM     26  C   UNL     1      49.334   9.740  16.023  0.00  0.00    +0.000 A 
ATOM     27  S   UNL     1      49.491  11.438  16.088  0.00  0.00    +0.000 S 
ATOM     28  C   UNL     1      49.314  11.575  14.402  0.00  0.00    +0.000 A 
ATOM     29  N   UNL     1      49.323  12.790  13.792  0.00  0.00    +0.000 NA
ATOM     30  C   UNL     1      49.143  12.748  12.514  0.00  0.00    +0.000 A 
ATOM     31  N   UNL     1      48.962  11.599  11.790  0.00  0.00    +0.000 N 
ATOM     32  C   UNL     1      48.986  10.347  12.356  0.00  0.00    +0.000 A 
ATOM     33  O   UNL     1      48.883   9.335  11.670  0.00  0.00    +0.000 OA
ATOM     34  C   UNL     1      49.163  10.340  13.795  0.00  0.00    +0.000 A 
ATOM     35  H   UNL     1      48.841  11.632  10.789  0.00  0.00    +0.000 HD
ENDBRANCH  22  25
ENDBRANCH  20  21
ENDBRANCH   4  20
TORSDOF 7
ENDMDL
MODEL 7
REMARK VINA RESULT:    -7.119      2.731      4.241
REMARK INTER + INTRA:         -10.618
REMARK INTER:                  -9.523
REMARK INTRA:                  -1.095
REMARK UNBOUND:                -0.586
REMARK  Name = 
REMARK  8 active torsions:
REMARK  status: ('A' for Active; 'I' for Inactive)
REMARK    1  A    between atoms: C_1  and  O_2
REMARK    2  A    between atoms: O_2  and  C_3
REMARK    3  A    between atoms: C_7  and  C_8
REMARK    4  A    between atoms: N_10  and  C_11
REMARK    5  A    between atoms: C_11  and  C_12
REMARK    6  A    between atoms: C_15  and  C_16
REMARK    7  A    between atoms: C_16  and  N_17
REMARK    8  A    between atoms: C_18  and  C_20
REMARK                            x       y       z     vdW  Elec       q    Type
REMARK                         _______ _______ _______ _____ _____    ______ ____
ROOT
ATOM      1  C   UNL     1      45.112   5.013  11.615  0.00  0.00    +0.000 A 
ATOM      2  C   UNL     1      45.664   6.297  11.728  0.00  0.00    +0.000 A 
ATOM      3  C   UNL     1      46.552   6.611  12.766  0.00  0.00    +0.000 A 
ATOM      4  C   UNL     1      46.929   5.641  13.706  0.00  0.00    +0.000 A 
ATOM      5  C   UNL     1      46.376   4.358  13.594  0.00  0.00    +0.000 A 
ATOM      6  C   UNL     1      45.485   4.045  12.557  0.00  0.00    +0.000 A 
ENDROOT
BRANCH   1   7
ATOM      7  C   UNL     1      44.159   4.678  10.491  0.00  0.00    +0.000 C 
BRANCH   7  10
ATOM      8  C   UNL     1      45.653   4.221   8.578  0.00  0.00    +0.000 C 
ATOM      9  O   UNL     1      45.975   5.397   8.442  0.00  0.00    +0.000 OA
ATOM     10  N   UNL     1      44.766   3.776   9.538  0.00  0.00    +0.000 N 
ATOM     11  H   UNL     1      44.743   2.789   9.756  0.00  0.00    +0.000 HD
BRANCH   8  16
ATOM     12  C   UNL     1      46.824   0.822   7.363  0.00  0.00    +0.000 A 
ATOM     13  C   UNL     1      47.273   1.137   6.078  0.00  0.00    +0.000 A 
ATOM     14  C   UNL     1      47.235   2.456   5.622  0.00  0.00    +0.000 A 
ATOM     15  C   UNL     1      46.727   3.465   6.439  0.00  0.00    +0.000 A 
ATOM     16  C   UNL     1      46.246   3.158   7.717  0.00  0.00    +0.000 A 
ATOM     17  C   UNL     1      46.324   1.838   8.187  0.00  0.00    +0.000 A 
BRANCH  12  19
ATOM     18  C   UNL     1      46.638  -1.526   7.011  0.00  0.00    +0.000 C 
ATOM     19  O   UNL     1      46.817  -0.434   7.910  0.00  0.00    +0.000 OA
ENDBRANCH  12  19
ENDBRANCH   8  16
ENDBRANCH   7  10
ENDBRANCH   1   7
BRANCH   4  20
ATOM     20  C   UNL     1      47.884   5.972  14.828  0.00  0.00    +0.000 C 
BRANCH  20  21
ATOM     21  N   UNL     1      48.958   6.822  14.378  0.00  0.00    +0.000 N 
ATOM     22  C   UNL     1      48.999   8.160  14.687  0.00  0.00    +0.000 C 
ATOM     23  O   UNL     1      48.147   8.693  15.392  0.00  0.00    +0.000 OA
ATOM     24  H   UNL     1      49.524   6.476  13.611  0.00  0.00    +0.000 HD
BRANCH  22  25
ATOM     25  C   UNL     1      50.156   8.913  14.181  0.00  0.00    +0.000 A 
ATOM     26  C   UNL     1      50.734   9.906  14.961  0.00  0.00    +0.000 A 
ATOM     27  S   UNL     1      52.094  10.642  14.240  0.00  0.00    +0.000 S 
ATOM     28  C   UNL     1      51.926   9.700  12.833  0.00  0.00    +0.000 A 
ATOM     29  N   UNL     1      52.773   9.856  11.780  0.00  0.00    +0.000 NA
ATOM     30  C   UNL     1      52.507   9.101  10.766  0.00  0.00    +0.000 A 
ATOM     31  N   UNL     1      51.476   8.199  10.713  0.00  0.00    +0.000 N 
ATOM     32  C   UNL     1      50.622   7.979  11.766  0.00  0.00    +0.000 A 
ATOM     33  O   UNL     1      49.748   7.120  11.708  0.00  0.00    +0.000 OA
ATOM     34  C   UNL     1      50.863   8.818  12.924  0.00  0.00    +0.000 A 
ATOM     35  H   UNL     1      51.331   7.627   9.895  0.00  0.00    +0.000 HD
ENDBRANCH  22  25
ENDBRANCH  20  21
ENDBRANCH   4  20
TORSDOF 7
ENDMDL
MODEL 8
REMARK VINA RESULT:    -7.114      1.605      2.271
REMARK INTER + INTRA:         -10.611
REMARK INTER:                 -10.080
REMARK INTRA:                  -0.531
REMARK UNBOUND:                -0.586
REMARK  Name = 
REMARK  8 active torsions:
REMARK  status: ('A' for Active; 'I' for Inactive)
REMARK    1  A    between atoms: C_1  and  O_2
REMARK    2  A    between atoms: O_2  and  C_3
REMARK    3  A    between atoms: C_7  and  C_8
REMARK    4  A    between atoms: N_10  and  C_11
REMARK    5  A    between atoms: C_11  and  C_12
REMARK    6  A    between atoms: C_15  and  C_16
REMARK    7  A    between atoms: C_16  and  N_17
REMARK    8  A    between atoms: C_18  and  C_20
REMARK                            x       y       z     vdW  Elec       q    Type
REMARK                         _______ _______ _______ _____ _____    ______ ____
ROOT
ATOM      1  C   UNL     1      44.850   5.093  11.631  0.00  0.00    +0.000 A 
ATOM      2  C   UNL     1      44.919   6.490  11.546  0.00  0.00    +0.000 A 
ATOM      3  C   UNL     1      45.825   7.216  12.331  0.00  0.00    +0.000 A 
ATOM      4  C   UNL     1      46.704   6.560  13.204  0.00  0.00    +0.000 A 
ATOM      5  C   UNL     1      46.635   5.162  13.290  0.00  0.00    +0.000 A 
ATOM      6  C   UNL     1      45.726   4.436  12.507  0.00  0.00    +0.000 A 
ENDROOT
BRANCH   1   7
ATOM      7  C   UNL     1      43.875   4.313  10.779  0.00  0.00    +0.000 C 
BRANCH   7  10
ATOM      8  C   UNL     1      45.288   4.037   8.771  0.00  0.00    +0.000 C 
ATOM      9  O   UNL     1      45.386   5.243   8.573  0.00  0.00    +0.000 OA
ATOM     10  N   UNL     1      44.563   3.489   9.811  0.00  0.00    +0.000 N 
ATOM     11  H   UNL     1      44.731   2.524  10.062  0.00  0.00    +0.000 HD
BRANCH   8  16
ATOM     12  C   UNL     1      46.740   0.778   7.479  0.00  0.00    +0.000 A 
ATOM     13  C   UNL     1      47.247   1.183   6.241  0.00  0.00    +0.000 A 
ATOM     14  C   UNL     1      47.154   2.518   5.845  0.00  0.00    +0.000 A 
ATOM     15  C   UNL     1      46.535   3.453   6.673  0.00  0.00    +0.000 A 
ATOM     16  C   UNL     1      45.998   3.055   7.902  0.00  0.00    +0.000 A 
ATOM     17  C   UNL     1      46.128   1.721   8.315  0.00  0.00    +0.000 A 
BRANCH  12  19
ATOM     18  C   UNL     1      46.768  -1.556   7.006  0.00  0.00    +0.000 C 
ATOM     19  O   UNL     1      46.779  -0.502   7.966  0.00  0.00    +0.000 OA
ENDBRANCH  12  19
ENDBRANCH   8  16
ENDBRANCH   7  10
ENDBRANCH   1   7
BRANCH   4  20
ATOM     20  C   UNL     1      47.682   7.335  14.055  0.00  0.00    +0.000 C 
BRANCH  20  21
ATOM     21  N   UNL     1      48.158   6.550  15.166  0.00  0.00    +0.000 N 
ATOM     22  C   UNL     1      49.226   6.953  15.931  0.00  0.00    +0.000 C 
ATOM     23  O   UNL     1      49.806   8.017  15.733  0.00  0.00    +0.000 OA
ATOM     24  H   UNL     1      47.869   5.578  15.196  0.00  0.00    +0.000 HD
BRANCH  22  25
ATOM     25  C   UNL     1      49.603   6.070  17.045  0.00  0.00    +0.000 A 
ATOM     26  C   UNL     1      48.630   5.593  17.913  0.00  0.00    +0.000 A 
ATOM     27  S   UNL     1      49.236   4.543  19.114  0.00  0.00    +0.000 S 
ATOM     28  C   UNL     1      50.831   4.734  18.553  0.00  0.00    +0.000 A 
ATOM     29  N   UNL     1      51.871   4.114  19.173  0.00  0.00    +0.000 NA
ATOM     30  C   UNL     1      53.028   4.376  18.664  0.00  0.00    +0.000 A 
ATOM     31  N   UNL     1      53.239   5.194  17.585  0.00  0.00    +0.000 N 
ATOM     32  C   UNL     1      52.217   5.808  16.903  0.00  0.00    +0.000 A 
ATOM     33  O   UNL     1      52.435   6.485  15.903  0.00  0.00    +0.000 OA
ATOM     34  C   UNL     1      50.896   5.565  17.449  0.00  0.00    +0.000 A 
ATOM     35  H   UNL     1      54.169   5.346  17.224  0.00  0.00    +0.000 HD
ENDBRANCH  22  25
ENDBRANCH  20  21
ENDBRANCH   4  20
TORSDOF 7
ENDMDL
MODEL 9
REMARK VINA RESULT:    -6.927      2.548      3.850
REMARK INTER + INTRA:         -10.347
REMARK INTER:                  -9.758
REMARK INTRA:                  -0.589
REMARK UNBOUND:                -0.586
REMARK  Name = 
REMARK  8 active torsions:
REMARK  status: ('A' for Active; 'I' for Inactive)
REMARK    1  A    between atoms: C_1  and  O_2
REMARK    2  A    between atoms: O_2  and  C_3
REMARK    3  A    between atoms: C_7  and  C_8
REMARK    4  A    between atoms: N_10  and  C_11
REMARK    5  A    between atoms: C_11  and  C_12
REMARK    6  A    between atoms: C_15  and  C_16
REMARK    7  A    between atoms: C_16  and  N_17
REMARK    8  A    between atoms: C_18  and  C_20
REMARK                            x       y       z     vdW  Elec       q    Type
REMARK                         _______ _______ _______ _____ _____    ______ ____
ROOT
ATOM      1  C   UNL     1      46.405   7.585  12.687  0.00  0.00    +0.000 A 
ATOM      2  C   UNL     1      46.699   8.764  13.385  0.00  0.00    +0.000 A 
ATOM      3  C   UNL     1      47.795   8.832  14.256  0.00  0.00    +0.000 A 
ATOM      4  C   UNL     1      48.640   7.727  14.433  0.00  0.00    +0.000 A 
ATOM      5  C   UNL     1      48.345   6.547  13.736  0.00  0.00    +0.000 A 
ATOM      6  C   UNL     1      47.247   6.479  12.867  0.00  0.00    +0.000 A 
ENDROOT
BRANCH   1   7
ATOM      7  C   UNL     1      45.225   7.518  11.744  0.00  0.00    +0.000 C 
BRANCH   7  10
ATOM      8  C   UNL     1      44.642   5.229  11.019  0.00  0.00    +0.000 C 
ATOM      9  O   UNL     1      43.894   5.029  11.971  0.00  0.00    +0.000 OA
ATOM     10  N   UNL     1      45.343   6.404  10.830  0.00  0.00    +0.000 N 
ATOM     11  H   UNL     1      45.730   6.595   9.916  0.00  0.00    +0.000 HD
BRANCH   8  16
ATOM     12  C   UNL     1      45.706   3.565   7.779  0.00  0.00    +0.000 A 
ATOM     13  C   UNL     1      45.233   2.265   7.978  0.00  0.00    +0.000 A 
ATOM     14  C   UNL     1      44.534   1.940   9.142  0.00  0.00    +0.000 A 
ATOM     15  C   UNL     1      44.323   2.906  10.125  0.00  0.00    +0.000 A 
ATOM     16  C   UNL     1      44.817   4.204   9.951  0.00  0.00    +0.000 A 
ATOM     17  C   UNL     1      45.484   4.537   8.762  0.00  0.00    +0.000 A 
BRANCH  12  19
ATOM     18  C   UNL     1      46.944   2.982   5.831  0.00  0.00    +0.000 C 
ATOM     19  O   UNL     1      46.400   3.991   6.677  0.00  0.00    +0.000 OA
ENDBRANCH  12  19
ENDBRANCH   8  16
ENDBRANCH   7  10
ENDBRANCH   1   7
BRANCH   4  20
ATOM     20  C   UNL     1      49.822   7.791  15.371  0.00  0.00    +0.000 C 
BRANCH  20  21
ATOM     21  N   UNL     1      49.420   7.605  16.744  0.00  0.00    +0.000 N 
ATOM     22  C   UNL     1      49.209   6.354  17.271  0.00  0.00    +0.000 C 
ATOM     23  O   UNL     1      49.386   5.331  16.615  0.00  0.00    +0.000 OA
ATOM     24  H   UNL     1      49.036   8.412  17.221  0.00  0.00    +0.000 HD
BRANCH  22  25
ATOM     25  C   UNL     1      48.818   6.299  18.687  0.00  0.00    +0.000 A 
ATOM     26  C   UNL     1      49.082   5.159  19.437  0.00  0.00    +0.000 A 
ATOM     27  S   UNL     1      48.607   5.287  21.071  0.00  0.00    +0.000 S 
ATOM     28  C   UNL     1      47.978   6.849  20.823  0.00  0.00    +0.000 A 
ATOM     29  N   UNL     1      47.382   7.533  21.836  0.00  0.00    +0.000 NA
ATOM     30  C   UNL     1      46.919   8.690  21.498  0.00  0.00    +0.000 A 
ATOM     31  N   UNL     1      47.006   9.229  20.240  0.00  0.00    +0.000 N 
ATOM     32  C   UNL     1      47.634   8.592  19.197  0.00  0.00    +0.000 A 
ATOM     33  O   UNL     1      47.748   9.128  18.099  0.00  0.00    +0.000 OA
ATOM     34  C   UNL     1      48.152   7.277  19.518  0.00  0.00    +0.000 A 
ATOM     35  H   UNL     1      46.637  10.146  20.043  0.00  0.00    +0.000 HD
ENDBRANCH  22  25
ENDBRANCH  20  21
ENDBRANCH   4  20
TORSDOF 7
ENDMDL
