MODEL 1
REMARK VINA RESULT:    -7.999      0.000      0.000
REMARK INTER + INTRA:         -12.169
REMARK INTER:                 -11.273
REMARK INTRA:                  -0.896
REMARK UNBOUND:                -0.896
REMARK  Name = 
REMARK  8 active torsions:
REMARK  status: ('A' for Active; 'I' for Inactive)
REMARK    1  A    between atoms: C_1  and  C_2
REMARK    2  A    between atoms: C_2  and  N_3
REMARK    3  A    between atoms: C_2  and  C_25
REMARK    4  A    between atoms: N_3  and  C_4
REMARK    5  A    between atoms: C_4  and  C_5
REMARK    6  A    between atoms: C_8  and  C_9
REMARK    7  A    between atoms: C_9  and  N_10
REMARK    8  A    between atoms: C_11  and  C_13
REMARK                            x       y       z     vdW  Elec       q    Type
REMARK                         _______ _______ _______ _____ _____    ______ ____
ROOT
ATOM      1  C   UNL     1      45.415   4.159  12.208  0.00  0.00    +0.000 A 
ATOM      2  C   UNL     1      45.561   5.488  11.777  0.00  0.00    +0.000 A 
ATOM      3  C   UNL     1      46.510   6.332  12.361  0.00  0.00    +0.000 A 
ATOM      4  C   UNL     1      47.342   5.862  13.384  0.00  0.00    +0.000 A 
ATOM      5  C   UNL     1      47.164   4.550  13.847  0.00  0.00    +0.000 A 
ATOM      6  C   UNL     1      46.216   3.705  13.261  0.00  0.00    +0.000 A 
ENDROOT
BRANCH   1   7
ATOM      7  C   UNL     1      44.422   3.239  11.527  0.00  0.00    +0.000 C 
BRANCH   7   8
ATOM      8  N   UNL     1      45.084   2.512  10.451  0.00  0.00    +0.000 NA
ATOM      9  H   UNL     1      44.976   1.512  10.626  0.00  0.00    +0.000 HD
BRANCH   8  11
ATOM     10  C   UNL     1      44.233   4.276   8.884  0.00  0.00    +0.000 C 
ATOM     11  C   UNL     1      44.606   2.802   9.096  0.00  0.00    +0.000 C 
BRANCH  11  12
ATOM     12  C   UNL     1      45.698   2.396   8.123  0.00  0.00    +0.000 A 
ATOM     13  C   UNL     1      46.255   3.312   7.220  0.00  0.00    +0.000 A 
ATOM     14  C   UNL     1      47.299   2.925   6.388  0.00  0.00    +0.000 A 
ATOM     15  C   UNL     1      47.756   1.622   6.480  0.00  0.00    +0.000 A 
ATOM     16  N   UNL     1      47.242   0.704   7.325  0.00  0.00    +0.000 NA
ATOM     17  C   UNL     1      46.230   1.111   8.127  0.00  0.00    +0.000 A 
ENDBRANCH  11  12
ENDBRANCH   8  11
ENDBRANCH   7   8
ENDBRANCH   1   7
BRANCH   4  18
ATOM     18  C   UNL     1      48.393   6.749  14.002  0.00  0.00    +0.000 C 
BRANCH  18  19
ATOM     19  N   UNL     1      48.165   6.916  15.412  0.00  0.00    +0.000 N 
ATOM     20  C   UNL     1      49.117   6.569  16.340  0.00  0.00    +0.000 C 
ATOM     21  O   UNL     1      50.215   6.127  16.018  0.00  0.00    +0.000 OA
ATOM     22  H   UNL     1      47.204   7.036  15.709  0.00  0.00    +0.000 HD
BRANCH  20  23
ATOM     23  C   UNL     1      48.769   6.822  17.745  0.00  0.00    +0.000 A 
ATOM     24  C   UNL     1      48.513   8.119  18.169  0.00  0.00    +0.000 A 
ATOM     25  S   UNL     1      48.076   8.226  19.815  0.00  0.00    +0.000 S 
ATOM     26  C   UNL     1      48.267   6.548  20.032  0.00  0.00    +0.000 A 
ATOM     27  N   UNL     1      48.071   5.972  21.248  0.00  0.00    +0.000 NA
ATOM     28  C   UNL     1      48.278   4.698  21.274  0.00  0.00    +0.000 A 
ATOM     29  N   UNL     1      48.653   3.944  20.192  0.00  0.00    +0.000 N 
ATOM     30  C   UNL     1      48.828   4.477  18.940  0.00  0.00    +0.000 A 
ATOM     31  O   UNL     1      49.112   3.766  17.982  0.00  0.00    +0.000 OA
ATOM     32  C   UNL     1      48.632   5.913  18.858  0.00  0.00    +0.000 A 
ATOM     33  H   UNL     1      48.785   2.947  20.275  0.00  0.00    +0.000 HD
ENDBRANCH  20  23
ENDBRANCH  18  19
ENDBRANCH   4  18
TORSDOF 7
ENDMDL
MODEL 2
REMARK VINA RESULT:    -7.787      1.824      2.456
REMARK INTER + INTRA:         -11.870
REMARK INTER:                 -11.057
REMARK INTRA:                  -0.812
REMARK UNBOUND:                -0.896
REMARK  Name = 
REMARK  8 active torsions:
REMARK  status: ('A' for Active; 'I' for Inactive)
REMARK    1  A    between atoms: C_1  and  C_2
REMARK    2  A    between atoms: C_2  and  N_3
REMARK    3  A    between atoms: C_2  and  C_25
REMARK    4  A    between atoms: N_3  and  C_4
REMARK    5  A    between atoms: C_4  and  C_5
REMARK    6  A    between atoms: C_8  and  C_9
REMARK    7  A    between atoms: C_9  and  N_10
REMARK    8  A    between atoms: C_11  and  C_13
REMARK                            x       y       z     vdW  Elec       q    Type
REMARK                         _______ _______ _______ _____ _____    ______ ____
ROOT
ATOM      1  C   UNL     1      44.257   6.603  11.696  0.00  0.00    +0.000 A 
ATOM      2  C   UNL     1      45.061   5.936  12.635  0.00  0.00    +0.000 A 
ATOM      3  C   UNL     1      46.122   6.592  13.266  0.00  0.00    +0.000 A 
ATOM      4  C   UNL     1      46.398   7.935  12.979  0.00  0.00    +0.000 A 
ATOM      5  C   UNL     1      45.625   8.587  12.007  0.00  0.00    +0.000 A 
ATOM      6  C   UNL     1      44.562   7.932  11.378  0.00  0.00    +0.000 A 
ENDROOT
BRANCH   1   7
ATOM      7  C   UNL     1      43.076   5.898  11.062  0.00  0.00    +0.000 C 
BRANCH   7   8
ATOM      8  N   UNL     1      43.545   5.000  10.014  0.00  0.00    +0.000 NA
ATOM      9  H   UNL     1      44.068   5.550   9.331  0.00  0.00    +0.000 HD
BRANCH   8  11
ATOM     10  C   UNL     1      43.592   2.732  11.085  0.00  0.00    +0.000 C 
ATOM     11  C   UNL     1      44.387   3.885  10.458  0.00  0.00    +0.000 C 
BRANCH  11  12
ATOM     12  C   UNL     1      45.168   3.386   9.256  0.00  0.00    +0.000 A 
ATOM     13  C   UNL     1      45.700   4.271   8.308  0.00  0.00    +0.000 A 
ATOM     14  C   UNL     1      46.467   3.786   7.255  0.00  0.00    +0.000 A 
ATOM     15  C   UNL     1      46.677   2.421   7.177  0.00  0.00    +0.000 A 
ATOM     16  N   UNL     1      46.174   1.531   8.060  0.00  0.00    +0.000 NA
ATOM     17  C   UNL     1      45.436   2.033   9.078  0.00  0.00    +0.000 A 
ENDBRANCH  11  12
ENDBRANCH   8  11
ENDBRANCH   7   8
ENDBRANCH   1   7
BRANCH   4  18
ATOM     18  C   UNL     1      47.516   8.665  13.676  0.00  0.00    +0.000 C 
BRANCH  18  19
ATOM     19  N   UNL     1      47.827   8.052  14.939  0.00  0.00    +0.000 N 
ATOM     20  C   UNL     1      48.857   7.151  15.067  0.00  0.00    +0.000 C 
ATOM     21  O   UNL     1      49.579   6.844  14.125  0.00  0.00    +0.000 OA
ATOM     22  H   UNL     1      47.112   8.092  15.656  0.00  0.00    +0.000 HD
BRANCH  20  23
ATOM     23  C   UNL     1      49.087   6.626  16.420  0.00  0.00    +0.000 A 
ATOM     24  C   UNL     1      49.748   7.406  17.360  0.00  0.00    +0.000 A 
ATOM     25  S   UNL     1      49.886   6.662  18.889  0.00  0.00    +0.000 S 
ATOM     26  C   UNL     1      49.116   5.249  18.333  0.00  0.00    +0.000 A 
ATOM     27  N   UNL     1      48.937   4.179  19.153  0.00  0.00    +0.000 NA
ATOM     28  C   UNL     1      48.365   3.166  18.593  0.00  0.00    +0.000 A 
ATOM     29  N   UNL     1      47.947   3.129  17.288  0.00  0.00    +0.000 N 
ATOM     30  C   UNL     1      48.075   4.195  16.435  0.00  0.00    +0.000 A 
ATOM     31  O   UNL     1      47.643   4.147  15.288  0.00  0.00    +0.000 OA
ATOM     32  C   UNL     1      48.735   5.355  17.008  0.00  0.00    +0.000 A 
ATOM     33  H   UNL     1      47.492   2.310  16.912  0.00  0.00    +0.000 HD
ENDBRANCH  20  23
ENDBRANCH  18  19
ENDBRANCH   4  18
TORSDOF 7
ENDMDL
MODEL 3
REMARK VINA RESULT:    -7.649      3.315      9.168
REMARK INTER + INTRA:         -11.675
REMARK INTER:                 -10.045
REMARK INTRA:                  -1.630
REMARK UNBOUND:                -0.896
REMARK  Name = 
REMARK  8 active torsions:
REMARK  status: ('A' for Active; 'I' for Inactive)
REMARK    1  A    between atoms: C_1  and  C_2
REMARK    2  A    between atoms: C_2  and  N_3
REMARK    3  A    between atoms: C_2  and  C_25
REMARK    4  A    between atoms: N_3  and  C_4
REMARK    5  A    between atoms: C_4  and  C_5
REMARK    6  A    between atoms: C_8  and  C_9
REMARK    7  A    between atoms: C_9  and  N_10
REMARK    8  A    between atoms: C_11  and  C_13
REMARK                            x       y       z     vdW  Elec       q    Type
REMARK                         _______ _______ _______ _____ _____    ______ ____
ROOT
ATOM      1  C   UNL     1      48.750   7.988  16.124  0.00  0.00    +0.000 A 
ATOM      2  C   UNL     1      48.246   9.112  15.449  0.00  0.00    +0.000 A 
ATOM      3  C   UNL     1      47.886   9.038  14.101  0.00  0.00    +0.000 A 
ATOM      4  C   UNL     1      48.011   7.834  13.398  0.00  0.00    +0.000 A 
ATOM      5  C   UNL     1      48.558   6.724  14.058  0.00  0.00    +0.000 A 
ATOM      6  C   UNL     1      48.916   6.797  15.408  0.00  0.00    +0.000 A 
ENDROOT
BRANCH   1   7
ATOM      7  C   UNL     1      49.083   8.066  17.600  0.00  0.00    +0.000 C 
BRANCH   7   8
ATOM      8  N   UNL     1      47.989   7.502  18.381  0.00  0.00    +0.000 NA
ATOM      9  H   UNL     1      47.252   7.212  17.737  0.00  0.00    +0.000 HD
BRANCH   8  11
ATOM     10  C   UNL     1      47.435   6.225  20.468  0.00  0.00    +0.000 C 
ATOM     11  C   UNL     1      48.337   6.362  19.234  0.00  0.00    +0.000 C 
BRANCH  11  12
ATOM     12  C   UNL     1      48.252   5.106  18.386  0.00  0.00    +0.000 A 
ATOM     13  C   UNL     1      49.377   4.303  18.147  0.00  0.00    +0.000 A 
ATOM     14  C   UNL     1      49.252   3.124  17.422  0.00  0.00    +0.000 A 
ATOM     15  C   UNL     1      47.998   2.781  16.949  0.00  0.00    +0.000 A 
ATOM     16  N   UNL     1      46.891   3.528  17.144  0.00  0.00    +0.000 NA
ATOM     17  C   UNL     1      47.042   4.668  17.858  0.00  0.00    +0.000 A 
ENDBRANCH  11  12
ENDBRANCH   8  11
ENDBRANCH   7   8
ENDBRANCH   1   7
BRANCH   4  18
ATOM     18  C   UNL     1      47.595   7.729  11.954  0.00  0.00    +0.000 C 
BRANCH  18  19
ATOM     19  N   UNL     1      46.890   6.501  11.706  0.00  0.00    +0.000 N 
ATOM     20  C   UNL     1      45.533   6.399  11.895  0.00  0.00    +0.000 C 
ATOM     21  O   UNL     1      44.849   7.351  12.256  0.00  0.00    +0.000 OA
ATOM     22  H   UNL     1      47.448   5.656  11.654  0.00  0.00    +0.000 HD
BRANCH  20  23
ATOM     23  C   UNL     1      44.934   5.097  11.574  0.00  0.00    +0.000 A 
ATOM     24  C   UNL     1      44.210   4.413  12.542  0.00  0.00    +0.000 A 
ATOM     25  S   UNL     1      43.545   2.943  11.986  0.00  0.00    +0.000 S 
ATOM     26  C   UNL     1      44.246   3.143  10.447  0.00  0.00    +0.000 A 
ATOM     27  N   UNL     1      44.089   2.203   9.478  0.00  0.00    +0.000 NA
ATOM     28  C   UNL     1      44.698   2.470   8.371  0.00  0.00    +0.000 A 
ATOM     29  N   UNL     1      45.443   3.598   8.142  0.00  0.00    +0.000 N 
ATOM     30  C   UNL     1      45.600   4.588   9.078  0.00  0.00    +0.000 A 
ATOM     31  O   UNL     1      46.229   5.610   8.822  0.00  0.00    +0.000 OA
ATOM     32  C   UNL     1      44.955   4.327  10.352  0.00  0.00    +0.000 A 
ATOM     33  H   UNL     1      45.883   3.756   7.248  0.00  0.00    +0.000 HD
ENDBRANCH  20  23
ENDBRANCH  18  19
ENDBRANCH   4  18
TORSDOF 7
ENDMDL
MODEL 4
REMARK VINA RESULT:    -7.225      3.898      8.616
REMARK INTER + INTRA:         -11.077
REMARK INTER:                  -9.532
REMARK INTRA:                  -1.545
REMARK UNBOUND:                -0.896
REMARK  Name = 
REMARK  8 active torsions:
REMARK  status: ('A' for Active; 'I' for Inactive)
REMARK    1  A    between atoms: C_1  and  C_2
REMARK    2  A    between atoms: C_2  and  N_3
REMARK    3  A    between atoms: C_2  and  C_25
REMARK    4  A    between atoms: N_3  and  C_4
REMARK    5  A    between atoms: C_4  and  C_5
REMARK    6  A    between atoms: C_8  and  C_9
REMARK    7  A    between atoms: C_9  and  N_10
REMARK    8  A    between atoms: C_11  and  C_13
REMARK                            x       y       z     vdW  Elec       q    Type
REMARK                         _______ _______ _______ _____ _____    ______ ____
ROOT
ATOM      1  C   UNL     1      50.334   7.014  15.986  0.00  0.00    +0.000 A 
ATOM      2  C   UNL     1      51.018   7.682  14.957  0.00  0.00    +0.000 A 
ATOM      3  C   UNL     1      50.370   8.017  13.765  0.00  0.00    +0.000 A 
ATOM      4  C   UNL     1      49.019   7.701  13.578  0.00  0.00    +0.000 A 
ATOM      5  C   UNL     1      48.349   6.992  14.585  0.00  0.00    +0.000 A 
ATOM      6  C   UNL     1      48.995   6.659  15.780  0.00  0.00    +0.000 A 
ENDROOT
BRANCH   1   7
ATOM      7  C   UNL     1      51.031   6.706  17.295  0.00  0.00    +0.000 C 
BRANCH   7   8
ATOM      8  N   UNL     1      51.590   5.360  17.250  0.00  0.00    +0.000 NA
ATOM      9  H   UNL     1      52.604   5.431  17.341  0.00  0.00    +0.000 HD
BRANCH   8  11
ATOM     10  C   UNL     1      50.510   5.128  19.502  0.00  0.00    +0.000 C 
ATOM     11  C   UNL     1      51.093   4.429  18.267  0.00  0.00    +0.000 C 
BRANCH  11  12
ATOM     12  C   UNL     1      50.037   3.553  17.618  0.00  0.00    +0.000 A 
ATOM     13  C   UNL     1      48.673   3.867  17.696  0.00  0.00    +0.000 A 
ATOM     14  C   UNL     1      47.738   3.081  17.034  0.00  0.00    +0.000 A 
ATOM     15  C   UNL     1      48.195   1.993  16.311  0.00  0.00    +0.000 A 
ATOM     16  N   UNL     1      49.497   1.647  16.218  0.00  0.00    +0.000 NA
ATOM     17  C   UNL     1      50.386   2.434  16.869  0.00  0.00    +0.000 A 
ENDBRANCH  11  12
ENDBRANCH   8  11
ENDBRANCH   7   8
ENDBRANCH   1   7
BRANCH   4  18
ATOM     18  C   UNL     1      48.298   8.086  12.312  0.00  0.00    +0.000 C 
BRANCH  18  19
ATOM     19  N   UNL     1      47.594   6.962  11.756  0.00  0.00    +0.000 N 
ATOM     20  C   UNL     1      46.257   7.033  11.444  0.00  0.00    +0.000 C 
ATOM     21  O   UNL     1      45.603   8.059  11.597  0.00  0.00    +0.000 OA
ATOM     22  H   UNL     1      48.032   6.054  11.852  0.00  0.00    +0.000 HD
BRANCH  20  23
ATOM     23  C   UNL     1      45.669   5.824  10.852  0.00  0.00    +0.000 A 
ATOM     24  C   UNL     1      45.844   5.563   9.500  0.00  0.00    +0.000 A 
ATOM     25  S   UNL     1      45.139   4.095   8.990  0.00  0.00    +0.000 S 
ATOM     26  C   UNL     1      44.529   3.783  10.548  0.00  0.00    +0.000 A 
ATOM     27  N   UNL     1      43.784   2.674  10.800  0.00  0.00    +0.000 NA
ATOM     28  C   UNL     1      43.362   2.578  12.017  0.00  0.00    +0.000 A 
ATOM     29  N   UNL     1      43.626   3.487  13.008  0.00  0.00    +0.000 N 
ATOM     30  C   UNL     1      44.400   4.602  12.808  0.00  0.00    +0.000 A 
ATOM     31  O   UNL     1      44.660   5.367  13.731  0.00  0.00    +0.000 OA
ATOM     32  C   UNL     1      44.881   4.771  11.449  0.00  0.00    +0.000 A 
ATOM     33  H   UNL     1      43.279   3.348  13.945  0.00  0.00    +0.000 HD
ENDBRANCH  20  23
ENDBRANCH  18  19
ENDBRANCH   4  18
TORSDOF 7
ENDMDL
MODEL 5
REMARK VINA RESULT:    -7.151      3.888      8.265
REMARK INTER + INTRA:         -10.973
REMARK INTER:                  -8.758
REMARK INTRA:                  -2.215
REMARK UNBOUND:                -0.896
REMARK  Name = 
REMARK  8 active torsions:
REMARK  status: ('A' for Active; 'I' for Inactive)
REMARK    1  A    between atoms: C_1  and  C_2
REMARK    2  A    between atoms: C_2  and  N_3
REMARK    3  A    between atoms: C_2  and  C_25
REMARK    4  A    between atoms: N_3  and  C_4
REMARK    5  A    between atoms: C_4  and  C_5
REMARK    6  A    between atoms: C_8  and  C_9
REMARK    7  A    between atoms: C_9  and  N_10
REMARK    8  A    between atoms: C_11  and  C_13
REMARK                            x       y       z     vdW  Elec       q    Type
REMARK                         _______ _______ _______ _____ _____    ______ ____
ROOT
ATOM      1  C   UNL     1      50.756   7.156  17.273  0.00  0.00    +0.000 A 
ATOM      2  C   UNL     1      50.817   6.941  15.887  0.00  0.00    +0.000 A 
ATOM      3  C   UNL     1      49.921   7.574  15.021  0.00  0.00    +0.000 A 
ATOM      4  C   UNL     1      48.947   8.447  15.522  0.00  0.00    +0.000 A 
ATOM      5  C   UNL     1      48.855   8.625  16.910  0.00  0.00    +0.000 A 
ATOM      6  C   UNL     1      49.753   7.994  17.776  0.00  0.00    +0.000 A 
ENDROOT
BRANCH   1   7
ATOM      7  C   UNL     1      51.769   6.509  18.194  0.00  0.00    +0.000 C 
BRANCH   7   8
ATOM      8  N   UNL     1      51.882   5.089  17.880  0.00  0.00    +0.000 NA
ATOM      9  H   UNL     1      52.865   4.823  17.950  0.00  0.00    +0.000 HD
BRANCH   8  11
ATOM     10  C   UNL     1      50.436   4.883  19.920  0.00  0.00    +0.000 C 
ATOM     11  C   UNL     1      51.092   4.185  18.721  0.00  0.00    +0.000 C 
BRANCH  11  12
ATOM     12  C   UNL     1      50.029   3.547  17.844  0.00  0.00    +0.000 A 
ATOM     13  C   UNL     1      48.749   4.105  17.718  0.00  0.00    +0.000 A 
ATOM     14  C   UNL     1      47.821   3.534  16.855  0.00  0.00    +0.000 A 
ATOM     15  C   UNL     1      48.200   2.411  16.142  0.00  0.00    +0.000 A 
ATOM     16  N   UNL     1      49.417   1.833  16.240  0.00  0.00    +0.000 NA
ATOM     17  C   UNL     1      50.302   2.415  17.084  0.00  0.00    +0.000 A 
ENDBRANCH  11  12
ENDBRANCH   8  11
ENDBRANCH   7   8
ENDBRANCH   1   7
BRANCH   4  18
ATOM     18  C   UNL     1      47.995   9.163  14.600  0.00  0.00    +0.000 C 
BRANCH  18  19
ATOM     19  N   UNL     1      47.007   8.261  14.074  0.00  0.00    +0.000 N 
ATOM     20  C   UNL     1      46.852   8.071  12.722  0.00  0.00    +0.000 C 
ATOM     21  O   UNL     1      47.561   8.636  11.896  0.00  0.00    +0.000 OA
ATOM     22  H   UNL     1      46.262   7.982  14.702  0.00  0.00    +0.000 HD
BRANCH  20  23
ATOM     23  C   UNL     1      45.828   7.097  12.322  0.00  0.00    +0.000 A 
ATOM     24  C   UNL     1      44.697   7.526  11.640  0.00  0.00    +0.000 A 
ATOM     25  S   UNL     1      43.637   6.259  11.210  0.00  0.00    +0.000 S 
ATOM     26  C   UNL     1      44.626   5.099  11.968  0.00  0.00    +0.000 A 
ATOM     27  N   UNL     1      44.273   3.787  11.995  0.00  0.00    +0.000 NA
ATOM     28  C   UNL     1      45.101   3.024  12.627  0.00  0.00    +0.000 A 
ATOM     29  N   UNL     1      46.256   3.452  13.227  0.00  0.00    +0.000 N 
ATOM     30  C   UNL     1      46.670   4.760  13.195  0.00  0.00    +0.000 A 
ATOM     31  O   UNL     1      47.736   5.101  13.697  0.00  0.00    +0.000 OA
ATOM     32  C   UNL     1      45.762   5.667  12.517  0.00  0.00    +0.000 A 
ATOM     33  H   UNL     1      46.870   2.802  13.694  0.00  0.00    +0.000 HD
ENDBRANCH  20  23
ENDBRANCH  18  19
ENDBRANCH   4  18
TORSDOF 7
ENDMDL
MODEL 6
REMARK VINA RESULT:    -6.883      3.753      5.553
REMARK INTER + INTRA:         -10.595
REMARK INTER:                  -9.256
REMARK INTRA:                  -1.339
REMARK UNBOUND:                -0.896
REMARK  Name = 
REMARK  8 active torsions:
REMARK  status: ('A' for Active; 'I' for Inactive)
REMARK    1  A    between atoms: C_1  and  C_2
REMARK    2  A    between atoms: C_2  and  N_3
REMARK    3  A    between atoms: C_2  and  C_25
REMARK    4  A    between atoms: N_3  and  C_4
REMARK    5  A    between atoms: C_4  and  C_5
REMARK    6  A    between atoms: C_8  and  C_9
REMARK    7  A    between atoms: C_9  and  N_10
REMARK    8  A    between atoms: C_11  and  C_13
REMARK                            x       y       z     vdW  Elec       q    Type
REMARK                         _______ _______ _______ _____ _____    ______ ____
ROOT
ATOM      1  C   UNL     1      44.733   5.139  11.023  0.00  0.00    +0.000 A 
ATOM      2  C   UNL     1      45.767   6.039  10.715  0.00  0.00    +0.000 A 
ATOM      3  C   UNL     1      46.729   6.381  11.669  0.00  0.00    +0.000 A 
ATOM      4  C   UNL     1      46.684   5.824  12.953  0.00  0.00    +0.000 A 
ATOM      5  C   UNL     1      45.625   4.963  13.276  0.00  0.00    +0.000 A 
ATOM      6  C   UNL     1      44.664   4.618  12.320  0.00  0.00    +0.000 A 
ENDROOT
BRANCH   1   7
ATOM      7  C   UNL     1      43.731   4.732   9.962  0.00  0.00    +0.000 C 
BRANCH   7   8
ATOM      8  N   UNL     1      44.429   4.132   8.832  0.00  0.00    +0.000 NA
ATOM      9  H   UNL     1      45.085   4.820   8.458  0.00  0.00    +0.000 HD
BRANCH   8  11
ATOM     10  C   UNL     1      44.251   1.714   9.478  0.00  0.00    +0.000 C 
ATOM     11  C   UNL     1      45.162   2.896   9.119  0.00  0.00    +0.000 C 
BRANCH  11  12
ATOM     12  C   UNL     1      45.996   2.557   7.896  0.00  0.00    +0.000 A 
ATOM     13  C   UNL     1      46.233   3.499   6.885  0.00  0.00    +0.000 A 
ATOM     14  C   UNL     1      47.056   3.178   5.812  0.00  0.00    +0.000 A 
ATOM     15  C   UNL     1      47.618   1.915   5.777  0.00  0.00    +0.000 A 
ATOM     16  N   UNL     1      47.408   0.973   6.721  0.00  0.00    +0.000 NA
ATOM     17  C   UNL     1      46.606   1.315   7.757  0.00  0.00    +0.000 A 
ENDBRANCH  11  12
ENDBRANCH   8  11
ENDBRANCH   7   8
ENDBRANCH   1   7
BRANCH   4  18
ATOM     18  C   UNL     1      47.732   6.158  13.983  0.00  0.00    +0.000 C 
BRANCH  18  19
ATOM     19  N   UNL     1      48.577   7.230  13.532  0.00  0.00    +0.000 N 
ATOM     20  C   UNL     1      48.795   8.347  14.303  0.00  0.00    +0.000 C 
ATOM     21  O   UNL     1      48.307   8.476  15.421  0.00  0.00    +0.000 OA
ATOM     22  H   UNL     1      48.783   7.265  12.541  0.00  0.00    +0.000 HD
BRANCH  20  23
ATOM     23  C   UNL     1      49.705   9.352  13.738  0.00  0.00    +0.000 A 
ATOM     24  C   UNL     1      50.939   9.577  14.333  0.00  0.00    +0.000 A 
ATOM     25  S   UNL     1      51.888  10.740  13.520  0.00  0.00    +0.000 S 
ATOM     26  C   UNL     1      50.660  11.021  12.374  0.00  0.00    +0.000 A 
ATOM     27  N   UNL     1      50.819  11.946  11.391  0.00  0.00    +0.000 NA
ATOM     28  C   UNL     1      49.798  12.076  10.610  0.00  0.00    +0.000 A 
ATOM     29  N   UNL     1      48.636  11.358  10.718  0.00  0.00    +0.000 N 
ATOM     30  C   UNL     1      48.445  10.391  11.673  0.00  0.00    +0.000 A 
ATOM     31  O   UNL     1      47.413   9.729  11.709  0.00  0.00    +0.000 OA
ATOM     32  C   UNL     1      49.554  10.221  12.594  0.00  0.00    +0.000 A 
ATOM     33  H   UNL     1      47.878  11.496  10.067  0.00  0.00    +0.000 HD
ENDBRANCH  20  23
ENDBRANCH  18  19
ENDBRANCH   4  18
TORSDOF 7
ENDMDL
MODEL 7
REMARK VINA RESULT:    -6.635      1.982      2.853
REMARK INTER + INTRA:         -10.246
REMARK INTER:                  -9.624
REMARK INTRA:                  -0.622
REMARK UNBOUND:                -0.896
REMARK  Name = 
REMARK  8 active torsions:
REMARK  status: ('A' for Active; 'I' for Inactive)
REMARK    1  A    between atoms: C_1  and  C_2
REMARK    2  A    between atoms: C_2  and  N_3
REMARK    3  A    between atoms: C_2  and  C_25
REMARK    4  A    between atoms: N_3  and  C_4
REMARK    5  A    between atoms: C_4  and  C_5
REMARK    6  A    between atoms: C_8  and  C_9
REMARK    7  A    between atoms: C_9  and  N_10
REMARK    8  A    between atoms: C_11  and  C_13
REMARK                            x       y       z     vdW  Elec       q    Type
REMARK                         _______ _______ _______ _____ _____    ______ ____
ROOT
ATOM      1  C   UNL     1      46.252   5.093  12.835  0.00  0.00    +0.000 A 
ATOM      2  C   UNL     1      47.203   5.153  13.867  0.00  0.00    +0.000 A 
ATOM      3  C   UNL     1      47.759   6.373  14.261  0.00  0.00    +0.000 A 
ATOM      4  C   UNL     1      47.370   7.564  13.636  0.00  0.00    +0.000 A 
ATOM      5  C   UNL     1      46.456   7.499  12.574  0.00  0.00    +0.000 A 
ATOM      6  C   UNL     1      45.897   6.279  12.182  0.00  0.00    +0.000 A 
ENDROOT
BRANCH   1   7
ATOM      7  C   UNL     1      45.615   3.771  12.457  0.00  0.00    +0.000 C 
BRANCH   7   8
ATOM      8  N   UNL     1      44.211   3.772  12.852  0.00  0.00    +0.000 NA
ATOM      9  H   UNL     1      44.053   4.571  13.469  0.00  0.00    +0.000 HD
BRANCH   8  11
ATOM     10  C   UNL     1      42.527   5.184  11.642  0.00  0.00    +0.000 C 
ATOM     11  C   UNL     1      43.240   3.829  11.756  0.00  0.00    +0.000 C 
BRANCH  11  12
ATOM     12  C   UNL     1      43.978   3.519  10.467  0.00  0.00    +0.000 A 
ATOM     13  C   UNL     1      44.385   4.535   9.591  0.00  0.00    +0.000 A 
ATOM     14  C   UNL     1      45.118   4.221   8.451  0.00  0.00    +0.000 A 
ATOM     15  C   UNL     1      45.420   2.891   8.217  0.00  0.00    +0.000 A 
ATOM     16  N   UNL     1      45.039   1.880   9.026  0.00  0.00    +0.000 NA
ATOM     17  C   UNL     1      44.331   2.216  10.130  0.00  0.00    +0.000 A 
ENDBRANCH  11  12
ENDBRANCH   8  11
ENDBRANCH   7   8
ENDBRANCH   1   7
BRANCH   4  18
ATOM     18  C   UNL     1      47.935   8.892  14.071  0.00  0.00    +0.000 C 
BRANCH  18  19
ATOM     19  N   UNL     1      47.580   9.183  15.434  0.00  0.00    +0.000 N 
ATOM     20  C   UNL     1      48.528   9.239  16.428  0.00  0.00    +0.000 C 
ATOM     21  O   UNL     1      49.722   9.071  16.204  0.00  0.00    +0.000 OA
ATOM     22  H   UNL     1      46.604   9.078  15.686  0.00  0.00    +0.000 HD
BRANCH  20  23
ATOM     23  C   UNL     1      48.034   9.579  17.769  0.00  0.00    +0.000 A 
ATOM     24  C   UNL     1      47.688  10.890  18.065  0.00  0.00    +0.000 A 
ATOM     25  S   UNL     1      47.089  11.098  19.649  0.00  0.00    +0.000 S 
ATOM     26  C   UNL     1      47.322   9.452  20.013  0.00  0.00    +0.000 A 
ATOM     27  N   UNL     1      47.032   8.959  21.247  0.00  0.00    +0.000 NA
ATOM     28  C   UNL     1      47.285   7.701  21.392  0.00  0.00    +0.000 A 
ATOM     29  N   UNL     1      47.793   6.888  20.413  0.00  0.00    +0.000 N 
ATOM     30  C   UNL     1      48.068   7.334  19.145  0.00  0.00    +0.000 A 
ATOM     31  O   UNL     1      48.472   6.568  18.276  0.00  0.00    +0.000 OA
ATOM     32  C   UNL     1      47.825   8.750  18.933  0.00  0.00    +0.000 A 
ATOM     33  H   UNL     1      47.955   5.907  20.585  0.00  0.00    +0.000 HD
ENDBRANCH  20  23
ENDBRANCH  18  19
ENDBRANCH   4  18
TORSDOF 7
ENDMDL
MODEL 8
REMARK VINA RESULT:    -6.582      3.603      8.909
REMARK INTER + INTRA:         -10.171
REMARK INTER:                  -9.178
REMARK INTRA:                  -0.993
REMARK UNBOUND:                -0.896
REMARK  Name = 
REMARK  8 active torsions:
REMARK  status: ('A' for Active; 'I' for Inactive)
REMARK    1  A    between atoms: C_1  and  C_2
REMARK    2  A    between atoms: C_2  and  N_3
REMARK    3  A    between atoms: C_2  and  C_25
REMARK    4  A    between atoms: N_3  and  C_4
REMARK    5  A    between atoms: C_4  and  C_5
REMARK    6  A    between atoms: C_8  and  C_9
REMARK    7  A    between atoms: C_9  and  N_10
REMARK    8  A    between atoms: C_11  and  C_13
REMARK                            x       y       z     vdW  Elec       q    Type
REMARK                         _______ _______ _______ _____ _____    ______ ____
ROOT
ATOM      1  C   UNL     1      49.255   8.768  17.384  0.00  0.00    +0.000 A 
ATOM      2  C   UNL     1      48.381   9.269  16.405  0.00  0.00    +0.000 A 
ATOM      3  C   UNL     1      48.468   8.843  15.077  0.00  0.00    +0.000 A 
ATOM      4  C   UNL     1      49.428   7.896  14.698  0.00  0.00    +0.000 A 
ATOM      5  C   UNL     1      50.331   7.430  15.665  0.00  0.00    +0.000 A 
ATOM      6  C   UNL     1      50.242   7.855  16.994  0.00  0.00    +0.000 A 
ENDROOT
BRANCH   1   7
ATOM      7  C   UNL     1      49.112   9.195  18.830  0.00  0.00    +0.000 C 
BRANCH   7   8
ATOM      8  N   UNL     1      47.991   8.491  19.442  0.00  0.00    +0.000 NA
ATOM      9  H   UNL     1      47.365   8.179  18.698  0.00  0.00    +0.000 HD
BRANCH   8  11
ATOM     10  C   UNL     1      47.449   7.183  21.512  0.00  0.00    +0.000 C 
ATOM     11  C   UNL     1      48.341   7.336  20.273  0.00  0.00    +0.000 C 
BRANCH  11  12
ATOM     12  C   UNL     1      48.244   6.094  19.405  0.00  0.00    +0.000 A 
ATOM     13  C   UNL     1      49.298   5.174  19.319  0.00  0.00    +0.000 A 
ATOM     14  C   UNL     1      49.152   4.014  18.567  0.00  0.00    +0.000 A 
ATOM     15  C   UNL     1      47.949   3.808  17.915  0.00  0.00    +0.000 A 
ATOM     16  N   UNL     1      46.912   4.671  17.960  0.00  0.00    +0.000 NA
ATOM     17  C   UNL     1      47.082   5.790  18.704  0.00  0.00    +0.000 A 
ENDBRANCH  11  12
ENDBRANCH   8  11
ENDBRANCH   7   8
ENDBRANCH   1   7
BRANCH   4  18
ATOM     18  C   UNL     1      49.513   7.401  13.278  0.00  0.00    +0.000 C 
BRANCH  18  19
ATOM     19  N   UNL     1      48.206   7.126  12.746  0.00  0.00    +0.000 N 
ATOM     20  C   UNL     1      47.442   6.084  13.216  0.00  0.00    +0.000 C 
ATOM     21  O   UNL     1      47.821   5.355  14.127  0.00  0.00    +0.000 OA
ATOM     22  H   UNL     1      47.980   7.540  11.850  0.00  0.00    +0.000 HD
BRANCH  20  23
ATOM     23  C   UNL     1      46.113   5.935  12.609  0.00  0.00    +0.000 A 
ATOM     24  C   UNL     1      45.444   7.054  12.132  0.00  0.00    +0.000 A 
ATOM     25  S   UNL     1      43.937   6.695  11.416  0.00  0.00    +0.000 S 
ATOM     26  C   UNL     1      44.102   5.038  11.767  0.00  0.00    +0.000 A 
ATOM     27  N   UNL     1      43.124   4.152  11.440  0.00  0.00    +0.000 NA
ATOM     28  C   UNL     1      43.369   2.933  11.791  0.00  0.00    +0.000 A 
ATOM     29  N   UNL     1      44.508   2.518  12.430  0.00  0.00    +0.000 N 
ATOM     30  C   UNL     1      45.536   3.371  12.747  0.00  0.00    +0.000 A 
ATOM     31  O   UNL     1      46.565   2.957  13.272  0.00  0.00    +0.000 OA
ATOM     32  C   UNL     1      45.302   4.760  12.397  0.00  0.00    +0.000 A 
ATOM     33  H   UNL     1      44.647   1.547  12.664  0.00  0.00    +0.000 HD
ENDBRANCH  20  23
ENDBRANCH  18  19
ENDBRANCH   4  18
TORSDOF 7
ENDMDL
MODEL 9
REMARK VINA RESULT:    -6.398      4.022      6.036
REMARK INTER + INTRA:          -9.912
REMARK INTER:                  -8.730
REMARK INTRA:                  -1.182
REMARK UNBOUND:                -0.896
REMARK  Name = 
REMARK  8 active torsions:
REMARK  status: ('A' for Active; 'I' for Inactive)
REMARK    1  A    between atoms: C_1  and  C_2
REMARK    2  A    between atoms: C_2  and  N_3
REMARK    3  A    between atoms: C_2  and  C_25
REMARK    4  A    between atoms: N_3  and  C_4
REMARK    5  A    between atoms: C_4  and  C_5
REMARK    6  A    between atoms: C_8  and  C_9
REMARK    7  A    between atoms: C_9  and  N_10
REMARK    8  A    between atoms: C_11  and  C_13
REMARK                            x       y       z     vdW  Elec       q    Type
REMARK                         _______ _______ _______ _____ _____    ______ ____
ROOT
ATOM      1  C   UNL     1      45.548   6.822  12.185  0.00  0.00    +0.000 A 
ATOM      2  C   UNL     1      44.727   5.698  12.374  0.00  0.00    +0.000 A 
ATOM      3  C   UNL     1      45.167   4.606  13.127  0.00  0.00    +0.000 A 
ATOM      4  C   UNL     1      46.436   4.617  13.718  0.00  0.00    +0.000 A 
ATOM      5  C   UNL     1      47.274   5.718  13.491  0.00  0.00    +0.000 A 
ATOM      6  C   UNL     1      46.833   6.812  12.739  0.00  0.00    +0.000 A 
ENDROOT
BRANCH   1   7
ATOM      7  C   UNL     1      45.038   8.022  11.414  0.00  0.00    +0.000 C 
BRANCH   7   8
ATOM      8  N   UNL     1      44.553   9.033  12.346  0.00  0.00    +0.000 NA
ATOM      9  H   UNL     1      44.863   8.779  13.285  0.00  0.00    +0.000 HD
BRANCH   8  11
ATOM     10  C   UNL     1      46.436  10.518  11.611  0.00  0.00    +0.000 C 
ATOM     11  C   UNL     1      44.976  10.409  12.071  0.00  0.00    +0.000 C 
BRANCH  11  12
ATOM     12  C   UNL     1      44.052  10.975  11.009  0.00  0.00    +0.000 A 
ATOM     13  C   UNL     1      42.662  11.014  11.190  0.00  0.00    +0.000 A 
ATOM     14  C   UNL     1      41.850  11.600  10.226  0.00  0.00    +0.000 A 
ATOM     15  C   UNL     1      42.453  12.130   9.099  0.00  0.00    +0.000 A 
ATOM     16  N   UNL     1      43.785  12.104   8.878  0.00  0.00    +0.000 NA
ATOM     17  C   UNL     1      44.551  11.532   9.836  0.00  0.00    +0.000 A 
ENDBRANCH  11  12
ENDBRANCH   8  11
ENDBRANCH   7   8
ENDBRANCH   1   7
BRANCH   4  18
ATOM     18  C   UNL     1      46.912   3.462  14.561  0.00  0.00    +0.000 C 
BRANCH  18  19
ATOM     19  N   UNL     1      47.845   3.903  15.563  0.00  0.00    +0.000 N 
ATOM     20  C   UNL     1      47.576   3.772  16.904  0.00  0.00    +0.000 C 
ATOM     21  O   UNL     1      46.545   3.251  17.317  0.00  0.00    +0.000 OA
ATOM     22  H   UNL     1      48.568   4.546  15.263  0.00  0.00    +0.000 HD
BRANCH  20  23
ATOM     23  C   UNL     1      48.628   4.233  17.819  0.00  0.00    +0.000 A 
ATOM     24  C   UNL     1      48.387   5.310  18.661  0.00  0.00    +0.000 A 
ATOM     25  S   UNL     1      49.697   5.680  19.690  0.00  0.00    +0.000 S 
ATOM     26  C   UNL     1      50.652   4.447  19.009  0.00  0.00    +0.000 A 
ATOM     27  N   UNL     1      51.930   4.239  19.426  0.00  0.00    +0.000 NA
ATOM     28  C   UNL     1      52.547   3.291  18.803  0.00  0.00    +0.000 A 
ATOM     29  N   UNL     1      52.000   2.525  17.807  0.00  0.00    +0.000 N 
ATOM     30  C   UNL     1      50.705   2.676  17.379  0.00  0.00    +0.000 A 
ATOM     31  O   UNL     1      50.230   1.938  16.522  0.00  0.00    +0.000 OA
ATOM     32  C   UNL     1      49.972   3.747  18.029  0.00  0.00    +0.000 A 
ATOM     33  H   UNL     1      52.531   1.787  17.369  0.00  0.00    +0.000 HD
ENDBRANCH  20  23
ENDBRANCH  18  19
ENDBRANCH   4  18
TORSDOF 7
ENDMDL
