MODEL 1
REMARK VINA RESULT:    -7.998      0.000      0.000
REMARK INTER + INTRA:         -12.848
REMARK INTER:                 -11.738
REMARK INTRA:                  -1.110
REMARK UNBOUND:                -1.110
REMARK  Name = 
REMARK  9 active torsions:
REMARK  status: ('A' for Active; 'I' for Inactive)
REMARK    1  A    between atoms: C_1  and  O_2
REMARK    2  A    between atoms: O_2  and  C_3
REMARK    3  A    between atoms: C_7  and  C_8
REMARK    4  A    between atoms: C_8  and  N_9
REMARK    5  A    between atoms: N_9  and  C_10
REMARK    6  A    between atoms: C_10  and  C_11
REMARK    7  A    between atoms: C_14  and  C_15
REMARK    8  A    between atoms: C_15  and  N_16
REMARK    9  A    between atoms: C_17  and  C_19
REMARK                            x       y       z     vdW  Elec       q    Type
REMARK                         _______ _______ _______ _____ _____    ______ ____
ROOT
ATOM      1  C   UNL     1      44.482   4.832  12.387  0.00  0.00    +0.000 A 
ATOM      2  C   UNL     1      44.994   5.982  11.786  0.00  0.00    +0.000 A 
ATOM      3  C   UNL     1      46.187   6.517  12.263  0.00  0.00    +0.000 A 
ATOM      4  C   UNL     1      46.845   5.897  13.325  0.00  0.00    +0.000 A 
ATOM      5  C   UNL     1      46.245   4.773  13.881  0.00  0.00    +0.000 A 
ATOM      6  N   UNL     1      45.093   4.225  13.433  0.00  0.00    +0.000 NA
ENDROOT
BRANCH   1   7
ATOM      7  C   UNL     1      43.230   4.174  11.836  0.00  0.00    +0.000 C 
BRANCH   7   8
ATOM      8  N   UNL     1      43.339   3.779  10.425  0.00  0.00    +0.000 NA
ATOM      9  H   UNL     1      42.412   3.517  10.088  0.00  0.00    +0.000 HD
BRANCH   8  10
ATOM     10  C   UNL     1      44.196   2.592  10.265  0.00  0.00    +0.000 C 
BRANCH  10  15
ATOM     11  C   UNL     1      46.631   1.874   7.601  0.00  0.00    +0.000 A 
ATOM     12  C   UNL     1      46.922   3.107   7.041  0.00  0.00    +0.000 A 
ATOM     13  C   UNL     1      46.311   4.235   7.576  0.00  0.00    +0.000 A 
ATOM     14  C   UNL     1      45.433   4.088   8.646  0.00  0.00    +0.000 A 
ATOM     15  C   UNL     1      45.200   2.812   9.155  0.00  0.00    +0.000 A 
ATOM     16  N   UNL     1      45.784   1.703   8.638  0.00  0.00    +0.000 NA
BRANCH  11  18
ATOM     17  C   UNL     1      47.395   0.899   5.628  0.00  0.00    +0.000 C 
ATOM     18  O   UNL     1      47.242   0.773   7.039  0.00  0.00    +0.000 OA
ENDBRANCH  11  18
ENDBRANCH  10  15
ENDBRANCH   8  10
ENDBRANCH   7   8
ENDBRANCH   1   7
BRANCH   4  19
ATOM     19  C   UNL     1      48.133   6.430  13.874  0.00  0.00    +0.000 C 
BRANCH  19  20
ATOM     20  N   UNL     1      48.070   6.601  15.303  0.00  0.00    +0.000 N 
ATOM     21  C   UNL     1      49.214   6.628  16.058  0.00  0.00    +0.000 C 
ATOM     22  O   UNL     1      50.328   6.556  15.544  0.00  0.00    +0.000 OA
ATOM     23  H   UNL     1      47.173   6.450  15.758  0.00  0.00    +0.000 HD
BRANCH  21  24
ATOM     24  C   UNL     1      49.050   6.803  17.505  0.00  0.00    +0.000 A 
ATOM     25  C   UNL     1      49.061   8.082  18.044  0.00  0.00    +0.000 A 
ATOM     26  S   UNL     1      48.827   8.117  19.732  0.00  0.00    +0.000 S 
ATOM     27  C   UNL     1      48.751   6.418  19.810  0.00  0.00    +0.000 A 
ATOM     28  N   UNL     1      48.590   5.782  21.000  0.00  0.00    +0.000 NA
ATOM     29  C   UNL     1      48.577   4.492  20.919  0.00  0.00    +0.000 A 
ATOM     30  N   UNL     1      48.703   3.784  19.752  0.00  0.00    +0.000 N 
ATOM     31  C   UNL     1      48.832   4.386  18.521  0.00  0.00    +0.000 A 
ATOM     32  O   UNL     1      48.886   3.725  17.490  0.00  0.00    +0.000 OA
ATOM     33  C   UNL     1      48.874   5.834  18.562  0.00  0.00    +0.000 A 
ATOM     34  H   UNL     1      48.672   2.774  19.756  0.00  0.00    +0.000 HD
ENDBRANCH  21  24
ENDBRANCH  19  20
ENDBRANCH   4  19
TORSDOF 8
ENDMDL
MODEL 2
REMARK VINA RESULT:    -7.683      2.648      3.173
REMARK INTER + INTRA:         -12.386
REMARK INTER:                 -11.337
REMARK INTRA:                  -1.049
REMARK UNBOUND:                -1.110
REMARK  Name = 
REMARK  9 active torsions:
REMARK  status: ('A' for Active; 'I' for Inactive)
REMARK    1  A    between atoms: C_1  and  O_2
REMARK    2  A    between atoms: O_2  and  C_3
REMARK    3  A    between atoms: C_7  and  C_8
REMARK    4  A    between atoms: C_8  and  N_9
REMARK    5  A    between atoms: N_9  and  C_10
REMARK    6  A    between atoms: C_10  and  C_11
REMARK    7  A    between atoms: C_14  and  C_15
REMARK    8  A    between atoms: C_15  and  N_16
REMARK    9  A    between atoms: C_17  and  C_19
REMARK                            x       y       z     vdW  Elec       q    Type
REMARK                         _______ _______ _______ _____ _____    ______ ____
ROOT
ATOM      1  C   UNL     1      46.256   4.599  13.654  0.00  0.00    +0.000 A 
ATOM      2  C   UNL     1      46.798   5.770  13.127  0.00  0.00    +0.000 A 
ATOM      3  C   UNL     1      47.722   6.485  13.883  0.00  0.00    +0.000 A 
ATOM      4  C   UNL     1      48.088   6.019  15.146  0.00  0.00    +0.000 A 
ATOM      5  C   UNL     1      47.473   4.858  15.602  0.00  0.00    +0.000 A 
ATOM      6  N   UNL     1      46.581   4.138  14.887  0.00  0.00    +0.000 NA
ENDROOT
BRANCH   1   7
ATOM      7  C   UNL     1      45.313   3.750  12.821  0.00  0.00    +0.000 C 
BRANCH   7   8
ATOM      8  N   UNL     1      44.410   4.532  11.965  0.00  0.00    +0.000 NA
ATOM      9  H   UNL     1      43.673   4.930  12.548  0.00  0.00    +0.000 HD
BRANCH   8  10
ATOM     10  C   UNL     1      43.743   3.677  10.969  0.00  0.00    +0.000 C 
BRANCH  10  15
ATOM     11  C   UNL     1      45.762   1.879   8.472  0.00  0.00    +0.000 A 
ATOM     12  C   UNL     1      46.200   2.857   7.595  0.00  0.00    +0.000 A 
ATOM     13  C   UNL     1      45.839   4.176   7.845  0.00  0.00    +0.000 A 
ATOM     14  C   UNL     1      45.053   4.466   8.956  0.00  0.00    +0.000 A 
ATOM     15  C   UNL     1      44.660   3.423   9.793  0.00  0.00    +0.000 A 
ATOM     16  N   UNL     1      45.000   2.132   9.557  0.00  0.00    +0.000 NA
BRANCH  11  18
ATOM     17  C   UNL     1      47.177   0.506   7.231  0.00  0.00    +0.000 C 
ATOM     18  O   UNL     1      46.125   0.579   8.190  0.00  0.00    +0.000 OA
ENDBRANCH  11  18
ENDBRANCH  10  15
ENDBRANCH   8  10
ENDBRANCH   7   8
ENDBRANCH   1   7
BRANCH   4  19
ATOM     19  C   UNL     1      49.080   6.748  16.000  0.00  0.00    +0.000 C 
BRANCH  19  20
ATOM     20  N   UNL     1      50.128   5.873  16.458  0.00  0.00    +0.000 N 
ATOM     21  C   UNL     1      50.281   5.601  17.793  0.00  0.00    +0.000 C 
ATOM     22  O   UNL     1      49.508   6.051  18.636  0.00  0.00    +0.000 OA
ATOM     23  H   UNL     1      50.889   5.669  15.815  0.00  0.00    +0.000 HD
BRANCH  21  24
ATOM     24  C   UNL     1      51.379   4.702  18.166  0.00  0.00    +0.000 A 
ATOM     25  C   UNL     1      52.479   5.210  18.843  0.00  0.00    +0.000 A 
ATOM     26  S   UNL     1      53.649   4.034  19.231  0.00  0.00    +0.000 S 
ATOM     27  C   UNL     1      52.750   2.809  18.463  0.00  0.00    +0.000 A 
ATOM     28  N   UNL     1      53.216   1.534  18.406  0.00  0.00    +0.000 NA
ATOM     29  C   UNL     1      52.448   0.712  17.770  0.00  0.00    +0.000 A 
ATOM     30  N   UNL     1      51.251   1.052  17.194  0.00  0.00    +0.000 N 
ATOM     31  C   UNL     1      50.723   2.321  17.259  0.00  0.00    +0.000 A 
ATOM     32  O   UNL     1      49.623   2.580  16.781  0.00  0.00    +0.000 OA
ATOM     33  C   UNL     1      51.560   3.286  17.944  0.00  0.00    +0.000 A 
ATOM     34  H   UNL     1      50.690   0.357  16.722  0.00  0.00    +0.000 HD
ENDBRANCH  21  24
ENDBRANCH  19  20
ENDBRANCH   4  19
TORSDOF 8
ENDMDL
MODEL 3
REMARK VINA RESULT:    -7.315      3.062      8.858
REMARK INTER + INTRA:         -11.847
REMARK INTER:                 -10.311
REMARK INTRA:                  -1.535
REMARK UNBOUND:                -1.110
REMARK  Name = 
REMARK  9 active torsions:
REMARK  status: ('A' for Active; 'I' for Inactive)
REMARK    1  A    between atoms: C_1  and  O_2
REMARK    2  A    between atoms: O_2  and  C_3
REMARK    3  A    between atoms: C_7  and  C_8
REMARK    4  A    between atoms: C_8  and  N_9
REMARK    5  A    between atoms: N_9  and  C_10
REMARK    6  A    between atoms: C_10  and  C_11
REMARK    7  A    between atoms: C_14  and  C_15
REMARK    8  A    between atoms: C_15  and  N_16
REMARK    9  A    between atoms: C_17  and  C_19
REMARK                            x       y       z     vdW  Elec       q    Type
REMARK                         _______ _______ _______ _____ _____    ______ ____
ROOT
ATOM      1  C   UNL     1      49.517   7.985  15.595  0.00  0.00    +0.000 A 
ATOM      2  C   UNL     1      48.768   9.098  15.216  0.00  0.00    +0.000 A 
ATOM      3  C   UNL     1      48.143   9.098  13.972  0.00  0.00    +0.000 A 
ATOM      4  C   UNL     1      48.276   7.991  13.133  0.00  0.00    +0.000 A 
ATOM      5  C   UNL     1      49.067   6.940  13.583  0.00  0.00    +0.000 A 
ATOM      6  N   UNL     1      49.677   6.907  14.788  0.00  0.00    +0.000 NA
ENDROOT
BRANCH   1   7
ATOM      7  C   UNL     1      50.139   7.916  16.978  0.00  0.00    +0.000 C 
BRANCH   7   8
ATOM      8  N   UNL     1      51.015   6.754  17.178  0.00  0.00    +0.000 NA
ATOM      9  H   UNL     1      50.975   6.169  16.342  0.00  0.00    +0.000 HD
BRANCH   8  10
ATOM     10  C   UNL     1      50.549   5.918  18.298  0.00  0.00    +0.000 C 
BRANCH  10  15
ATOM     11  C   UNL     1      48.217   3.544  16.728  0.00  0.00    +0.000 A 
ATOM     12  C   UNL     1      48.903   2.341  16.690  0.00  0.00    +0.000 A 
ATOM     13  C   UNL     1      50.184   2.296  17.228  0.00  0.00    +0.000 A 
ATOM     14  C   UNL     1      50.731   3.451  17.779  0.00  0.00    +0.000 A 
ATOM     15  C   UNL     1      49.971   4.620  17.782  0.00  0.00    +0.000 A 
ATOM     16  N   UNL     1      48.723   4.679  17.255  0.00  0.00    +0.000 NA
BRANCH  11  18
ATOM     17  C   UNL     1      46.909   4.293  14.952  0.00  0.00    +0.000 C 
ATOM     18  O   UNL     1      46.955   3.561  16.174  0.00  0.00    +0.000 OA
ENDBRANCH  11  18
ENDBRANCH  10  15
ENDBRANCH   8  10
ENDBRANCH   7   8
ENDBRANCH   1   7
BRANCH   4  19
ATOM     19  C   UNL     1      47.622   7.938  11.786  0.00  0.00    +0.000 C 
BRANCH  19  20
ATOM     20  N   UNL     1      46.925   6.694  11.585  0.00  0.00    +0.000 N 
ATOM     21  C   UNL     1      45.580   6.596  11.833  0.00  0.00    +0.000 C 
ATOM     22  O   UNL     1      44.916   7.568  12.185  0.00  0.00    +0.000 OA
ATOM     23  H   UNL     1      47.482   5.847  11.504  0.00  0.00    +0.000 HD
BRANCH  21  24
ATOM     24  C   UNL     1      44.957   5.288  11.603  0.00  0.00    +0.000 A 
ATOM     25  C   UNL     1      44.242   4.682  12.627  0.00  0.00    +0.000 A 
ATOM     26  S   UNL     1      43.555   3.184  12.192  0.00  0.00    +0.000 S 
ATOM     27  C   UNL     1      44.231   3.268  10.631  0.00  0.00    +0.000 A 
ATOM     28  N   UNL     1      44.046   2.261   9.737  0.00  0.00    +0.000 NA
ATOM     29  C   UNL     1      44.636   2.440   8.602  0.00  0.00    +0.000 A 
ATOM     30  N   UNL     1      45.388   3.540   8.279  0.00  0.00    +0.000 N 
ATOM     31  C   UNL     1      45.572   4.599   9.139  0.00  0.00    +0.000 A 
ATOM     32  O   UNL     1      46.203   5.594   8.801  0.00  0.00    +0.000 OA
ATOM     33  C   UNL     1      44.946   4.435  10.436  0.00  0.00    +0.000 A 
ATOM     34  H   UNL     1      45.813   3.625   7.367  0.00  0.00    +0.000 HD
ENDBRANCH  21  24
ENDBRANCH  19  20
ENDBRANCH   4  19
TORSDOF 8
ENDMDL
MODEL 4
REMARK VINA RESULT:    -7.209      1.907      2.208
REMARK INTER + INTRA:         -11.690
REMARK INTER:                 -10.467
REMARK INTRA:                  -1.223
REMARK UNBOUND:                -1.110
REMARK  Name = 
REMARK  9 active torsions:
REMARK  status: ('A' for Active; 'I' for Inactive)
REMARK    1  A    between atoms: C_1  and  O_2
REMARK    2  A    between atoms: O_2  and  C_3
REMARK    3  A    between atoms: C_7  and  C_8
REMARK    4  A    between atoms: C_8  and  N_9
REMARK    5  A    between atoms: N_9  and  C_10
REMARK    6  A    between atoms: C_10  and  C_11
REMARK    7  A    between atoms: C_14  and  C_15
REMARK    8  A    between atoms: C_15  and  N_16
REMARK    9  A    between atoms: C_17  and  C_19
REMARK                            x       y       z     vdW  Elec       q    Type
REMARK                         _______ _______ _______ _____ _____    ______ ____
ROOT
ATOM      1  C   UNL     1      44.598   4.777  12.187  0.00  0.00    +0.000 A 
ATOM      2  C   UNL     1      45.555   4.419  13.136  0.00  0.00    +0.000 A 
ATOM      3  C   UNL     1      46.520   5.352  13.505  0.00  0.00    +0.000 A 
ATOM      4  C   UNL     1      46.510   6.620  12.924  0.00  0.00    +0.000 A 
ATOM      5  C   UNL     1      45.537   6.877  11.965  0.00  0.00    +0.000 A 
ATOM      6  N   UNL     1      44.582   5.995  11.593  0.00  0.00    +0.000 NA
ENDROOT
BRANCH   1   7
ATOM      7  C   UNL     1      43.481   3.814  11.826  0.00  0.00    +0.000 C 
BRANCH   7   8
ATOM      8  N   UNL     1      43.445   3.455  10.402  0.00  0.00    +0.000 NA
ATOM      9  H   UNL     1      42.490   3.186  10.159  0.00  0.00    +0.000 HD
BRANCH   8  10
ATOM     10  C   UNL     1      44.295   2.285  10.122  0.00  0.00    +0.000 C 
BRANCH  10  15
ATOM     11  C   UNL     1      46.818   1.828   7.482  0.00  0.00    +0.000 A 
ATOM     12  C   UNL     1      47.037   3.097   6.973  0.00  0.00    +0.000 A 
ATOM     13  C   UNL     1      46.344   4.162   7.538  0.00  0.00    +0.000 A 
ATOM     14  C   UNL     1      45.459   3.919   8.584  0.00  0.00    +0.000 A 
ATOM     15  C   UNL     1      45.301   2.612   9.041  0.00  0.00    +0.000 A 
ATOM     16  N   UNL     1      45.966   1.563   8.495  0.00  0.00    +0.000 NA
BRANCH  11  18
ATOM     17  C   UNL     1      47.364   0.780   5.475  0.00  0.00    +0.000 C 
ATOM     18  O   UNL     1      47.509   0.790   6.892  0.00  0.00    +0.000 OA
ENDBRANCH  11  18
ENDBRANCH  10  15
ENDBRANCH   8  10
ENDBRANCH   7   8
ENDBRANCH   1   7
BRANCH   4  19
ATOM     19  C   UNL     1      47.523   7.663  13.289  0.00  0.00    +0.000 C 
BRANCH  19  20
ATOM     20  N   UNL     1      48.621   7.098  14.030  0.00  0.00    +0.000 N 
ATOM     21  C   UNL     1      49.165   7.767  15.097  0.00  0.00    +0.000 C 
ATOM     22  O   UNL     1      48.708   8.840  15.486  0.00  0.00    +0.000 OA
ATOM     23  H   UNL     1      49.138   6.334  13.602  0.00  0.00    +0.000 HD
BRANCH  21  24
ATOM     24  C   UNL     1      50.282   7.115  15.788  0.00  0.00    +0.000 A 
ATOM     25  C   UNL     1      51.565   7.626  15.646  0.00  0.00    +0.000 A 
ATOM     26  S   UNL     1      52.744   6.777  16.537  0.00  0.00    +0.000 S 
ATOM     27  C   UNL     1      51.589   5.664  17.107  0.00  0.00    +0.000 A 
ATOM     28  N   UNL     1      51.953   4.634  17.915  0.00  0.00    +0.000 NA
ATOM     29  C   UNL     1      50.983   3.850  18.251  0.00  0.00    +0.000 A 
ATOM     30  N   UNL     1      49.680   4.009  17.856  0.00  0.00    +0.000 N 
ATOM     31  C   UNL     1      49.259   5.057  17.068  0.00  0.00    +0.000 A 
ATOM     32  O   UNL     1      48.077   5.203  16.778  0.00  0.00    +0.000 OA
ATOM     33  C   UNL     1      50.317   5.954  16.647  0.00  0.00    +0.000 A 
ATOM     34  H   UNL     1      48.965   3.366  18.165  0.00  0.00    +0.000 HD
ENDBRANCH  21  24
ENDBRANCH  19  20
ENDBRANCH   4  19
TORSDOF 8
ENDMDL
MODEL 5
REMARK VINA RESULT:    -6.666      3.732      8.270
REMARK INTER + INTRA:         -10.894
REMARK INTER:                  -9.284
REMARK INTRA:                  -1.611
REMARK UNBOUND:                -1.110
REMARK  Name = 
REMARK  9 active torsions:
REMARK  status: ('A' for Active; 'I' for Inactive)
REMARK    1  A    between atoms: C_1  and  O_2
REMARK    2  A    between atoms: O_2  and  C_3
REMARK    3  A    between atoms: C_7  and  C_8
REMARK    4  A    between atoms: C_8  and  N_9
REMARK    5  A    between atoms: N_9  and  C_10
REMARK    6  A    between atoms: C_10  and  C_11
REMARK    7  A    between atoms: C_14  and  C_15
REMARK    8  A    between atoms: C_15  and  N_16
REMARK    9  A    between atoms: C_17  and  C_19
REMARK                            x       y       z     vdW  Elec       q    Type
REMARK                         _______ _______ _______ _____ _____    ______ ____
ROOT
ATOM      1  C   UNL     1      49.624   7.889  17.825  0.00  0.00    +0.000 A 
ATOM      2  C   UNL     1      48.568   8.795  17.734  0.00  0.00    +0.000 A 
ATOM      3  C   UNL     1      48.096   9.156  16.475  0.00  0.00    +0.000 A 
ATOM      4  C   UNL     1      48.683   8.607  15.335  0.00  0.00    +0.000 A 
ATOM      5  C   UNL     1      49.750   7.735  15.522  0.00  0.00    +0.000 A 
ATOM      6  N   UNL     1      50.224   7.359  16.730  0.00  0.00    +0.000 NA
ENDROOT
BRANCH   1   7
ATOM      7  C   UNL     1      50.105   7.408  19.182  0.00  0.00    +0.000 C 
BRANCH   7   8
ATOM      8  N   UNL     1      50.373   5.965  19.239  0.00  0.00    +0.000 NA
ATOM      9  H   UNL     1      50.679   5.654  18.316  0.00  0.00    +0.000 HD
BRANCH   8  10
ATOM     10  C   UNL     1      49.152   5.205  19.555  0.00  0.00    +0.000 C 
BRANCH  10  15
ATOM     11  C   UNL     1      49.321   2.649  16.913  0.00  0.00    +0.000 A 
ATOM     12  C   UNL     1      48.057   2.637  16.345  0.00  0.00    +0.000 A 
ATOM     13  C   UNL     1      47.107   3.528  16.833  0.00  0.00    +0.000 A 
ATOM     14  C   UNL     1      47.454   4.391  17.868  0.00  0.00    +0.000 A 
ATOM     15  C   UNL     1      48.750   4.342  18.379  0.00  0.00    +0.000 A 
ATOM     16  N   UNL     1      49.683   3.475  17.917  0.00  0.00    +0.000 NA
BRANCH  11  18
ATOM     17  C   UNL     1      51.294   1.486  17.337  0.00  0.00    +0.000 C 
ATOM     18  O   UNL     1      50.236   1.744  16.418  0.00  0.00    +0.000 OA
ENDBRANCH  11  18
ENDBRANCH  10  15
ENDBRANCH   8  10
ENDBRANCH   7   8
ENDBRANCH   1   7
BRANCH   4  19
ATOM     19  C   UNL     1      48.211   8.958  13.957  0.00  0.00    +0.000 C 
BRANCH  19  20
ATOM     20  N   UNL     1      47.025   8.224  13.600  0.00  0.00    +0.000 N 
ATOM     21  C   UNL     1      46.997   7.440  12.476  0.00  0.00    +0.000 C 
ATOM     22  O   UNL     1      47.988   7.297  11.764  0.00  0.00    +0.000 OA
ATOM     23  H   UNL     1      46.151   8.492  14.046  0.00  0.00    +0.000 HD
BRANCH  21  24
ATOM     24  C   UNL     1      45.743   6.733  12.192  0.00  0.00    +0.000 A 
ATOM     25  C   UNL     1      44.668   7.434  11.664  0.00  0.00    +0.000 A 
ATOM     26  S   UNL     1      43.299   6.465  11.361  0.00  0.00    +0.000 S 
ATOM     27  C   UNL     1      44.079   5.080  11.971  0.00  0.00    +0.000 A 
ATOM     28  N   UNL     1      43.434   3.885  12.027  0.00  0.00    +0.000 NA
ATOM     29  C   UNL     1      44.132   2.925  12.537  0.00  0.00    +0.000 A 
ATOM     30  N   UNL     1      45.420   3.053  12.989  0.00  0.00    +0.000 N 
ATOM     31  C   UNL     1      46.124   4.234  12.919  0.00  0.00    +0.000 A 
ATOM     32  O   UNL     1      47.294   4.302  13.281  0.00  0.00    +0.000 OA
ATOM     33  C   UNL     1      45.375   5.348  12.373  0.00  0.00    +0.000 A 
ATOM     34  H   UNL     1      45.916   2.258  13.366  0.00  0.00    +0.000 HD
ENDBRANCH  21  24
ENDBRANCH  19  20
ENDBRANCH   4  19
TORSDOF 8
ENDMDL
MODEL 6
REMARK VINA RESULT:    -6.517      3.863     10.135
REMARK INTER + INTRA:         -10.676
REMARK INTER:                  -9.541
REMARK INTRA:                  -1.135
REMARK UNBOUND:                -1.110
REMARK  Name = 
REMARK  9 active torsions:
REMARK  status: ('A' for Active; 'I' for Inactive)
REMARK    1  A    between atoms: C_1  and  O_2
REMARK    2  A    between atoms: O_2  and  C_3
REMARK    3  A    between atoms: C_7  and  C_8
REMARK    4  A    between atoms: C_8  and  N_9
REMARK    5  A    between atoms: N_9  and  C_10
REMARK    6  A    between atoms: C_10  and  C_11
REMARK    7  A    between atoms: C_14  and  C_15
REMARK    8  A    between atoms: C_15  and  N_16
REMARK    9  A    between atoms: C_17  and  C_19
REMARK                            x       y       z     vdW  Elec       q    Type
REMARK                         _______ _______ _______ _____ _____    ______ ____
ROOT
ATOM      1  C   UNL     1      50.114   5.480  19.306  0.00  0.00    +0.000 A 
ATOM      2  C   UNL     1      50.178   5.866  17.968  0.00  0.00    +0.000 A 
ATOM      3  C   UNL     1      49.336   5.248  17.047  0.00  0.00    +0.000 A 
ATOM      4  C   UNL     1      48.450   4.261  17.478  0.00  0.00    +0.000 A 
ATOM      5  C   UNL     1      48.478   3.920  18.826  0.00  0.00    +0.000 A 
ATOM      6  N   UNL     1      49.276   4.508  19.744  0.00  0.00    +0.000 NA
ENDROOT
BRANCH   1   7
ATOM      7  C   UNL     1      50.955   6.193  20.350  0.00  0.00    +0.000 C 
BRANCH   7   8
ATOM      8  N   UNL     1      50.574   7.596  20.561  0.00  0.00    +0.000 NA
ATOM      9  H   UNL     1      51.381   8.101  20.929  0.00  0.00    +0.000 HD
BRANCH   8  10
ATOM     10  C   UNL     1      49.508   7.715  21.570  0.00  0.00    +0.000 C 
BRANCH  10  15
ATOM     11  C   UNL     1      47.567   9.934  19.368  0.00  0.00    +0.000 A 
ATOM     12  C   UNL     1      46.483  10.337  20.132  0.00  0.00    +0.000 A 
ATOM     13  C   UNL     1      46.395   9.881  21.442  0.00  0.00    +0.000 A 
ATOM     14  C   UNL     1      47.387   9.040  21.937  0.00  0.00    +0.000 A 
ATOM     15  C   UNL     1      48.447   8.687  21.104  0.00  0.00    +0.000 A 
ATOM     16  N   UNL     1      48.542   9.120  19.823  0.00  0.00    +0.000 NA
BRANCH  11  18
ATOM     17  C   UNL     1      48.054   9.386  17.157  0.00  0.00    +0.000 C 
ATOM     18  O   UNL     1      47.619  10.391  18.069  0.00  0.00    +0.000 OA
ENDBRANCH  11  18
ENDBRANCH  10  15
ENDBRANCH   8  10
ENDBRANCH   7   8
ENDBRANCH   1   7
BRANCH   4  19
ATOM     19  C   UNL     1      47.520   3.567  16.530  0.00  0.00    +0.000 C 
BRANCH  19  20
ATOM     20  N   UNL     1      46.871   4.501  15.646  0.00  0.00    +0.000 N 
ATOM     21  C   UNL     1      46.801   4.259  14.298  0.00  0.00    +0.000 C 
ATOM     22  O   UNL     1      47.242   3.223  13.805  0.00  0.00    +0.000 OA
ATOM     23  H   UNL     1      46.696   5.440  15.996  0.00  0.00    +0.000 HD
BRANCH  21  24
ATOM     24  C   UNL     1      46.125   5.269  13.477  0.00  0.00    +0.000 A 
ATOM     25  C   UNL     1      46.736   6.497  13.263  0.00  0.00    +0.000 A 
ATOM     26  S   UNL     1      45.838   7.545  12.263  0.00  0.00    +0.000 S 
ATOM     27  C   UNL     1      44.575   6.413  12.121  0.00  0.00    +0.000 A 
ATOM     28  N   UNL     1      43.456   6.702  11.405  0.00  0.00    +0.000 NA
ATOM     29  C   UNL     1      42.566   5.766  11.402  0.00  0.00    +0.000 A 
ATOM     30  N   UNL     1      42.699   4.563  12.046  0.00  0.00    +0.000 N 
ATOM     31  C   UNL     1      43.827   4.213  12.752  0.00  0.00    +0.000 A 
ATOM     32  O   UNL     1      43.938   3.107  13.270  0.00  0.00    +0.000 OA
ATOM     33  C   UNL     1      44.848   5.241  12.803  0.00  0.00    +0.000 A 
ATOM     34  H   UNL     1      41.969   3.867  11.994  0.00  0.00    +0.000 HD
ENDBRANCH  21  24
ENDBRANCH  19  20
ENDBRANCH   4  19
TORSDOF 8
ENDMDL
MODEL 7
REMARK VINA RESULT:    -6.418      3.894      9.072
REMARK INTER + INTRA:         -10.529
REMARK INTER:                  -9.086
REMARK INTRA:                  -1.443
REMARK UNBOUND:                -1.110
REMARK  Name = 
REMARK  9 active torsions:
REMARK  status: ('A' for Active; 'I' for Inactive)
REMARK    1  A    between atoms: C_1  and  O_2
REMARK    2  A    between atoms: O_2  and  C_3
REMARK    3  A    between atoms: C_7  and  C_8
REMARK    4  A    between atoms: C_8  and  N_9
REMARK    5  A    between atoms: N_9  and  C_10
REMARK    6  A    between atoms: C_10  and  C_11
REMARK    7  A    between atoms: C_14  and  C_15
REMARK    8  A    between atoms: C_15  and  N_16
REMARK    9  A    between atoms: C_17  and  C_19
REMARK                            x       y       z     vdW  Elec       q    Type
REMARK                         _______ _______ _______ _____ _____    ______ ____
ROOT
ATOM      1  C   UNL     1      51.354   3.862  17.953  0.00  0.00    +0.000 A 
ATOM      2  C   UNL     1      50.963   2.628  17.433  0.00  0.00    +0.000 A 
ATOM      3  C   UNL     1      49.630   2.436  17.082  0.00  0.00    +0.000 A 
ATOM      4  C   UNL     1      48.716   3.475  17.253  0.00  0.00    +0.000 A 
ATOM      5  C   UNL     1      49.190   4.660  17.806  0.00  0.00    +0.000 A 
ATOM      6  N   UNL     1      50.479   4.879  18.147  0.00  0.00    +0.000 NA
ENDROOT
BRANCH   1   7
ATOM      7  C   UNL     1      52.815   4.133  18.264  0.00  0.00    +0.000 C 
BRANCH   7   8
ATOM      8  N   UNL     1      53.482   4.995  17.280  0.00  0.00    +0.000 NA
ATOM      9  H   UNL     1      54.378   4.574  17.033  0.00  0.00    +0.000 HD
BRANCH   8  10
ATOM     10  C   UNL     1      53.782   6.321  17.846  0.00  0.00    +0.000 C 
BRANCH  10  15
ATOM     11  C   UNL     1      51.433   7.915  15.505  0.00  0.00    +0.000 A 
ATOM     12  C   UNL     1      51.289   9.212  15.969  0.00  0.00    +0.000 A 
ATOM     13  C   UNL     1      52.017   9.595  17.091  0.00  0.00    +0.000 A 
ATOM     14  C   UNL     1      52.855   8.669  17.705  0.00  0.00    +0.000 A 
ATOM     15  C   UNL     1      52.946   7.385  17.170  0.00  0.00    +0.000 A 
ATOM     16  N   UNL     1      52.237   6.997  16.081  0.00  0.00    +0.000 NA
BRANCH  11  18
ATOM     17  C   UNL     1      50.192   8.697  13.694  0.00  0.00    +0.000 C 
ATOM     18  O   UNL     1      50.687   7.562  14.400  0.00  0.00    +0.000 OA
ENDBRANCH  11  18
ENDBRANCH  10  15
ENDBRANCH   8  10
ENDBRANCH   7   8
ENDBRANCH   1   7
BRANCH   4  19
ATOM     19  C   UNL     1      47.271   3.323  16.888  0.00  0.00    +0.000 C 
BRANCH  19  20
ATOM     20  N   UNL     1      46.853   4.332  15.949  0.00  0.00    +0.000 N 
ATOM     21  C   UNL     1      46.936   4.112  14.599  0.00  0.00    +0.000 C 
ATOM     22  O   UNL     1      47.320   3.036  14.143  0.00  0.00    +0.000 OA
ATOM     23  H   UNL     1      46.739   5.282  16.295  0.00  0.00    +0.000 HD
BRANCH  21  24
ATOM     24  C   UNL     1      46.491   5.199  13.720  0.00  0.00    +0.000 A 
ATOM     25  C   UNL     1      47.293   6.321  13.562  0.00  0.00    +0.000 A 
ATOM     26  S   UNL     1      46.651   7.476  12.486  0.00  0.00    +0.000 S 
ATOM     27  C   UNL     1      45.253   6.539  12.230  0.00  0.00    +0.000 A 
ATOM     28  N   UNL     1      44.258   6.980  11.416  0.00  0.00    +0.000 NA
ATOM     29  C   UNL     1      43.243   6.184  11.333  0.00  0.00    +0.000 A 
ATOM     30  N   UNL     1      43.140   4.983  11.986  0.00  0.00    +0.000 N 
ATOM     31  C   UNL     1      44.137   4.481  12.791  0.00  0.00    +0.000 A 
ATOM     32  O   UNL     1      44.038   3.377  13.316  0.00  0.00    +0.000 OA
ATOM     33  C   UNL     1      45.289   5.349  12.933  0.00  0.00    +0.000 A 
ATOM     34  H   UNL     1      42.323   4.400  11.867  0.00  0.00    +0.000 HD
ENDBRANCH  21  24
ENDBRANCH  19  20
ENDBRANCH   4  19
TORSDOF 8
ENDMDL
MODEL 8
REMARK VINA RESULT:    -6.383      2.065      2.572
REMARK INTER + INTRA:         -10.478
REMARK INTER:                  -9.725
REMARK INTRA:                  -0.753
REMARK UNBOUND:                -1.110
REMARK  Name = 
REMARK  9 active torsions:
REMARK  status: ('A' for Active; 'I' for Inactive)
REMARK    1  A    between atoms: C_1  and  O_2
REMARK    2  A    between atoms: O_2  and  C_3
REMARK    3  A    between atoms: C_7  and  C_8
REMARK    4  A    between atoms: C_8  and  N_9
REMARK    5  A    between atoms: N_9  and  C_10
REMARK    6  A    between atoms: C_10  and  C_11
REMARK    7  A    between atoms: C_14  and  C_15
REMARK    8  A    between atoms: C_15  and  N_16
REMARK    9  A    between atoms: C_17  and  C_19
REMARK                            x       y       z     vdW  Elec       q    Type
REMARK                         _______ _______ _______ _____ _____    ______ ____
ROOT
ATOM      1  C   UNL     1      45.751   5.599  12.164  0.00  0.00    +0.000 A 
ATOM      2  C   UNL     1      46.585   6.289  13.044  0.00  0.00    +0.000 A 
ATOM      3  C   UNL     1      47.170   5.597  14.101  0.00  0.00    +0.000 A 
ATOM      4  C   UNL     1      46.914   4.235  14.259  0.00  0.00    +0.000 A 
ATOM      5  C   UNL     1      46.046   3.637  13.352  0.00  0.00    +0.000 A 
ATOM      6  N   UNL     1      45.471   4.280  12.311  0.00  0.00    +0.000 NA
ENDROOT
BRANCH   1   7
ATOM      7  C   UNL     1      45.167   6.302  10.952  0.00  0.00    +0.000 C 
BRANCH   7   8
ATOM      8  N   UNL     1      45.517   5.670   9.674  0.00  0.00    +0.000 NA
ATOM      9  H   UNL     1      45.472   6.376   8.938  0.00  0.00    +0.000 HD
BRANCH   8  10
ATOM     10  C   UNL     1      44.546   4.623   9.310  0.00  0.00    +0.000 C 
BRANCH  10  15
ATOM     11  C   UNL     1      46.537   2.871   6.759  0.00  0.00    +0.000 A 
ATOM     12  C   UNL     1      46.628   1.566   7.211  0.00  0.00    +0.000 A 
ATOM     13  C   UNL     1      45.986   1.233   8.398  0.00  0.00    +0.000 A 
ATOM     14  C   UNL     1      45.281   2.215   9.088  0.00  0.00    +0.000 A 
ATOM     15  C   UNL     1      45.233   3.504   8.560  0.00  0.00    +0.000 A 
ATOM     16  N   UNL     1      45.861   3.843   7.407  0.00  0.00    +0.000 NA
BRANCH  11  18
ATOM     17  C   UNL     1      47.462   2.016   4.800  0.00  0.00    +0.000 C 
ATOM     18  O   UNL     1      47.197   3.174   5.587  0.00  0.00    +0.000 OA
ENDBRANCH  11  18
ENDBRANCH  10  15
ENDBRANCH   8  10
ENDBRANCH   7   8
ENDBRANCH   1   7
BRANCH   4  19
ATOM     19  C   UNL     1      47.521   3.443  15.377  0.00  0.00    +0.000 C 
BRANCH  19  20
ATOM     20  N   UNL     1      48.216   4.291  16.310  0.00  0.00    +0.000 N 
ATOM     21  C   UNL     1      48.814   3.764  17.425  0.00  0.00    +0.000 C 
ATOM     22  O   UNL     1      48.821   2.554  17.643  0.00  0.00    +0.000 OA
ATOM     23  H   UNL     1      48.041   5.291  16.261  0.00  0.00    +0.000 HD
BRANCH  21  24
ATOM     24  C   UNL     1      49.496   4.705  18.320  0.00  0.00    +0.000 A 
ATOM     25  C   UNL     1      50.881   4.683  18.408  0.00  0.00    +0.000 A 
ATOM     26  S   UNL     1      51.520   5.858  19.465  0.00  0.00    +0.000 S 
ATOM     27  C   UNL     1      49.964   6.407  19.881  0.00  0.00    +0.000 A 
ATOM     28  N   UNL     1      49.796   7.406  20.788  0.00  0.00    +0.000 NA
ATOM     29  C   UNL     1      48.563   7.705  21.032  0.00  0.00    +0.000 A 
ATOM     30  N   UNL     1      47.483   7.099  20.443  0.00  0.00    +0.000 N 
ATOM     31  C   UNL     1      47.606   6.110  19.494  0.00  0.00    +0.000 A 
ATOM     32  O   UNL     1      46.622   5.626  18.945  0.00  0.00    +0.000 OA
ATOM     33  C   UNL     1      48.972   5.723  19.202  0.00  0.00    +0.000 A 
ATOM     34  H   UNL     1      46.542   7.390  20.668  0.00  0.00    +0.000 HD
ENDBRANCH  21  24
ENDBRANCH  19  20
ENDBRANCH   4  19
TORSDOF 8
ENDMDL
MODEL 9
REMARK VINA RESULT:    -6.175      1.991      2.483
REMARK INTER + INTRA:         -10.173
REMARK INTER:                  -9.342
REMARK INTRA:                  -0.831
REMARK UNBOUND:                -1.110
REMARK  Name = 
REMARK  9 active torsions:
REMARK  status: ('A' for Active; 'I' for Inactive)
REMARK    1  A    between atoms: C_1  and  O_2
REMARK    2  A    between atoms: O_2  and  C_3
REMARK    3  A    between atoms: C_7  and  C_8
REMARK    4  A    between atoms: C_8  and  N_9
REMARK    5  A    between atoms: N_9  and  C_10
REMARK    6  A    between atoms: C_10  and  C_11
REMARK    7  A    between atoms: C_14  and  C_15
REMARK    8  A    between atoms: C_15  and  N_16
REMARK    9  A    between atoms: C_17  and  C_19
REMARK                            x       y       z     vdW  Elec       q    Type
REMARK                         _______ _______ _______ _____ _____    ______ ____
ROOT
ATOM      1  C   UNL     1      45.634   6.828  12.545  0.00  0.00    +0.000 A 
ATOM      2  C   UNL     1      45.895   8.140  12.937  0.00  0.00    +0.000 A 
ATOM      3  C   UNL     1      47.102   8.428  13.569  0.00  0.00    +0.000 A 
ATOM      4  C   UNL     1      48.022   7.404  13.796  0.00  0.00    +0.000 A 
ATOM      5  C   UNL     1      47.663   6.121  13.398  0.00  0.00    +0.000 A 
ATOM      6  N   UNL     1      46.504   5.813  12.774  0.00  0.00    +0.000 NA
ENDROOT
BRANCH   1   7
ATOM      7  C   UNL     1      44.368   6.496  11.776  0.00  0.00    +0.000 C 
BRANCH   7   8
ATOM      8  N   UNL     1      44.613   5.965  10.429  0.00  0.00    +0.000 NA
ATOM      9  H   UNL     1      43.973   6.421   9.778  0.00  0.00    +0.000 HD
BRANCH   8  10
ATOM     10  C   UNL     1      44.324   4.522  10.361  0.00  0.00    +0.000 C 
BRANCH  10  15
ATOM     11  C   UNL     1      45.930   1.895   8.346  0.00  0.00    +0.000 A 
ATOM     12  C   UNL     1      46.614   2.574   7.352  0.00  0.00    +0.000 A 
ATOM     13  C   UNL     1      46.571   3.964   7.354  0.00  0.00    +0.000 A 
ATOM     14  C   UNL     1      45.844   4.620   8.344  0.00  0.00    +0.000 A 
ATOM     15  C   UNL     1      45.188   3.860   9.311  0.00  0.00    +0.000 A 
ATOM     16  N   UNL     1      45.218   2.505   9.317  0.00  0.00    +0.000 NA
BRANCH  11  18
ATOM     17  C   UNL     1      46.992   0.036   7.428  0.00  0.00    +0.000 C 
ATOM     18  O   UNL     1      45.980   0.517   8.309  0.00  0.00    +0.000 OA
ENDBRANCH  11  18
ENDBRANCH  10  15
ENDBRANCH   8  10
ENDBRANCH   7   8
ENDBRANCH   1   7
BRANCH   4  19
ATOM     19  C   UNL     1      49.336   7.660  14.469  0.00  0.00    +0.000 C 
BRANCH  19  20
ATOM     20  N   UNL     1      49.486   6.862  15.659  0.00  0.00    +0.000 N 
ATOM     21  C   UNL     1      49.056   7.328  16.874  0.00  0.00    +0.000 C 
ATOM     22  O   UNL     1      48.488   8.413  16.986  0.00  0.00    +0.000 OA
ATOM     23  H   UNL     1      50.130   6.076  15.623  0.00  0.00    +0.000 HD
BRANCH  21  24
ATOM     24  C   UNL     1      49.254   6.448  18.030  0.00  0.00    +0.000 A 
ATOM     25  C   UNL     1      48.465   5.314  18.169  0.00  0.00    +0.000 A 
ATOM     26  S   UNL     1      48.840   4.381  19.545  0.00  0.00    +0.000 S 
ATOM     27  C   UNL     1      50.039   5.486  20.033  0.00  0.00    +0.000 A 
ATOM     28  N   UNL     1      50.742   5.291  21.180  0.00  0.00    +0.000 NA
ATOM     29  C   UNL     1      51.600   6.219  21.445  0.00  0.00    +0.000 A 
ATOM     30  N   UNL     1      51.824   7.321  20.660  0.00  0.00    +0.000 N 
ATOM     31  C   UNL     1      51.162   7.541  19.474  0.00  0.00    +0.000 A 
ATOM     32  O   UNL     1      51.425   8.508  18.767  0.00  0.00    +0.000 OA
ATOM     33  C   UNL     1      50.171   6.536  19.143  0.00  0.00    +0.000 A 
ATOM     34  H   UNL     1      52.521   8.005  20.918  0.00  0.00    +0.000 HD
ENDBRANCH  21  24
ENDBRANCH  19  20
ENDBRANCH   4  19
TORSDOF 8
ENDMDL
