MODEL 1
REMARK VINA RESULT:    -7.672      0.000      0.000
REMARK INTER + INTRA:          -8.898
REMARK INTER:                  -9.017
REMARK INTRA:                   0.119
REMARK UNBOUND:                 0.119
REMARK  Name = 
REMARK  3 active torsions:
REMARK  status: ('A' for Active; 'I' for Inactive)
REMARK    1  A    between atoms: N_5  and  C_6
REMARK    2  A    between atoms: C_6  and  C_7
REMARK    3  A    between atoms: C_11  and  C_12
REMARK                            x       y       z     vdW  Elec       q    Type
REMARK                         _______ _______ _______ _____ _____    ______ ____
ROOT
ATOM      1  C   UNL     1      45.440   5.272  12.109  0.00  0.00    +0.000 A 
ATOM      2  C   UNL     1      46.113   6.218  11.336  0.00  0.00    +0.000 A 
ATOM      3  C   UNL     1      47.261   6.818  11.836  0.00  0.00    +0.000 A 
ATOM      4  C   UNL     1      47.737   6.438  13.086  0.00  0.00    +0.000 A 
ATOM      5  C   UNL     1      47.074   5.437  13.791  0.00  0.00    +0.000 A 
ATOM      6  N   UNL     1      45.937   4.875  13.311  0.00  0.00    +0.000 NA
ENDROOT
BRANCH   5   7
ATOM      7  C   UNL     1      47.524   4.916  15.094  0.00  0.00    +0.000 A 
ATOM      8  C   UNL     1      47.242   3.619  15.546  0.00  0.00    +0.000 A 
ATOM      9  C   UNL     1      47.685   3.193  16.799  0.00  0.00    +0.000 A 
ATOM     10  C   UNL     1      48.405   4.075  17.584  0.00  0.00    +0.000 A 
ATOM     11  N   UNL     1      48.704   5.331  17.204  0.00  0.00    +0.000 NA
ATOM     12  C   UNL     1      48.254   5.717  15.980  0.00  0.00    +0.000 A 
ENDBRANCH   5   7
BRANCH   1  13
ATOM     13  C   UNL     1      44.065   4.751  11.672  0.00  0.00    +0.000 C 
ATOM     14  C   UNL     1      42.839   5.058  12.515  0.00  0.00    +0.000 C 
ATOM     15  C   UNL     1      43.106   5.888  11.304  0.00  0.00    +0.000 C 
BRANCH  13  20
ATOM     16  C   UNL     1      46.314   2.725   7.436  0.00  0.00    +0.000 A 
ATOM     17  C   UNL     1      45.978   4.046   7.692  0.00  0.00    +0.000 A 
ATOM     18  C   UNL     1      45.251   4.358   8.845  0.00  0.00    +0.000 A 
ATOM     19  C   UNL     1      44.870   3.341   9.713  0.00  0.00    +0.000 A 
ATOM     20  N   UNL     1      44.051   3.532  10.835  0.00  0.00    +0.000 N 
ATOM     21  N   UNL     1      45.203   2.052   9.473  0.00  0.00    +0.000 NA
ATOM     22  C   UNL     1      45.914   1.775   8.355  0.00  0.00    +0.000 A 
ATOM     23  H   UNL     1      44.056   2.636  11.316  0.00  0.00    +0.000 HD
ENDBRANCH  13  20
ENDBRANCH   1  13
TORSDOF 3
ENDMDL
MODEL 2
REMARK VINA RESULT:    -7.651      2.011      3.705
REMARK INTER + INTRA:          -8.874
REMARK INTER:                  -8.773
REMARK INTRA:                  -0.101
REMARK UNBOUND:                 0.119
REMARK  Name = 
REMARK  3 active torsions:
REMARK  status: ('A' for Active; 'I' for Inactive)
REMARK    1  A    between atoms: N_5  and  C_6
REMARK    2  A    between atoms: C_6  and  C_7
REMARK    3  A    between atoms: C_11  and  C_12
REMARK                            x       y       z     vdW  Elec       q    Type
REMARK                         _______ _______ _______ _____ _____    ______ ____
ROOT
ATOM      1  C   UNL     1      45.105   5.096  12.298  0.00  0.00    +0.000 A 
ATOM      2  C   UNL     1      45.683   4.157  13.153  0.00  0.00    +0.000 A 
ATOM      3  C   UNL     1      46.954   4.385  13.661  0.00  0.00    +0.000 A 
ATOM      4  C   UNL     1      47.614   5.566  13.335  0.00  0.00    +0.000 A 
ATOM      5  C   UNL     1      46.970   6.507  12.538  0.00  0.00    +0.000 A 
ATOM      6  N   UNL     1      45.740   6.265  12.020  0.00  0.00    +0.000 NA
ENDROOT
BRANCH   5   7
ATOM      7  C   UNL     1      47.550   7.814  12.180  0.00  0.00    +0.000 A 
ATOM      8  C   UNL     1      48.885   7.985  11.786  0.00  0.00    +0.000 A 
ATOM      9  C   UNL     1      49.376   9.254  11.476  0.00  0.00    +0.000 A 
ATOM     10  C   UNL     1      48.520  10.337  11.567  0.00  0.00    +0.000 A 
ATOM     11  N   UNL     1      47.231  10.234  11.941  0.00  0.00    +0.000 NA
ATOM     12  C   UNL     1      46.785   8.985  12.241  0.00  0.00    +0.000 A 
ENDBRANCH   5   7
BRANCH   1  13
ATOM     13  C   UNL     1      43.798   4.772  11.562  0.00  0.00    +0.000 C 
ATOM     14  C   UNL     1      42.472   5.226  12.145  0.00  0.00    +0.000 C 
ATOM     15  C   UNL     1      43.093   6.034  11.055  0.00  0.00    +0.000 C 
BRANCH  13  20
ATOM     16  C   UNL     1      46.390   2.725   7.537  0.00  0.00    +0.000 A 
ATOM     17  C   UNL     1      46.108   4.057   7.800  0.00  0.00    +0.000 A 
ATOM     18  C   UNL     1      45.273   4.383   8.874  0.00  0.00    +0.000 A 
ATOM     19  C   UNL     1      44.734   3.369   9.658  0.00  0.00    +0.000 A 
ATOM     20  N   UNL     1      43.806   3.580  10.687  0.00  0.00    +0.000 N 
ATOM     21  N   UNL     1      45.014   2.068   9.412  0.00  0.00    +0.000 NA
ATOM     22  C   UNL     1      45.829   1.777   8.372  0.00  0.00    +0.000 A 
ATOM     23  H   UNL     1      43.701   2.673  11.134  0.00  0.00    +0.000 HD
ENDBRANCH  13  20
ENDBRANCH   1  13
TORSDOF 3
ENDMDL
MODEL 3
REMARK VINA RESULT:    -7.276      2.644      7.643
REMARK INTER + INTRA:          -8.433
REMARK INTER:                  -7.904
REMARK INTRA:                  -0.529
REMARK UNBOUND:                 0.119
REMARK  Name = 
REMARK  3 active torsions:
REMARK  status: ('A' for Active; 'I' for Inactive)
REMARK    1  A    between atoms: N_5  and  C_6
REMARK    2  A    between atoms: C_6  and  C_7
REMARK    3  A    between atoms: C_11  and  C_12
REMARK                            x       y       z     vdW  Elec       q    Type
REMARK                         _______ _______ _______ _____ _____    ______ ____
ROOT
ATOM      1  C   UNL     1      48.214   4.565  16.253  0.00  0.00    +0.000 A 
ATOM      2  C   UNL     1      48.871   5.770  16.501  0.00  0.00    +0.000 A 
ATOM      3  C   UNL     1      48.822   6.783  15.553  0.00  0.00    +0.000 A 
ATOM      4  C   UNL     1      48.087   6.589  14.388  0.00  0.00    +0.000 A 
ATOM      5  C   UNL     1      47.388   5.398  14.216  0.00  0.00    +0.000 A 
ATOM      6  N   UNL     1      47.463   4.400  15.132  0.00  0.00    +0.000 NA
ENDROOT
BRANCH   5   7
ATOM      7  C   UNL     1      46.532   5.110  13.051  0.00  0.00    +0.000 A 
ATOM      8  C   UNL     1      46.301   6.028  12.016  0.00  0.00    +0.000 A 
ATOM      9  C   UNL     1      45.466   5.698  10.948  0.00  0.00    +0.000 A 
ATOM     10  C   UNL     1      44.871   4.449  10.933  0.00  0.00    +0.000 A 
ATOM     11  N   UNL     1      45.054   3.529  11.898  0.00  0.00    +0.000 NA
ATOM     12  C   UNL     1      45.870   3.883  12.926  0.00  0.00    +0.000 A 
ENDBRANCH   5   7
BRANCH   1  13
ATOM     13  C   UNL     1      48.425   3.363  17.183  0.00  0.00    +0.000 C 
ATOM     14  C   UNL     1      48.123   3.494  18.666  0.00  0.00    +0.000 C 
ATOM     15  C   UNL     1      47.108   2.855  17.779  0.00  0.00    +0.000 C 
BRANCH  13  20
ATOM     16  C   UNL     1      53.351   1.940  18.080  0.00  0.00    +0.000 A 
ATOM     17  C   UNL     1      52.805   3.214  18.073  0.00  0.00    +0.000 A 
ATOM     18  C   UNL     1      51.477   3.388  17.670  0.00  0.00    +0.000 A 
ATOM     19  C   UNL     1      50.727   2.285  17.278  0.00  0.00    +0.000 A 
ATOM     20  N   UNL     1      49.428   2.363  16.759  0.00  0.00    +0.000 N 
ATOM     21  N   UNL     1      51.252   1.039  17.293  0.00  0.00    +0.000 NA
ATOM     22  C   UNL     1      52.537   0.893  17.693  0.00  0.00    +0.000 A 
ATOM     23  H   UNL     1      49.119   1.396  16.682  0.00  0.00    +0.000 HD
ENDBRANCH  13  20
ENDBRANCH   1  13
TORSDOF 3
ENDMDL
MODEL 4
REMARK VINA RESULT:    -6.926      1.501      6.802
REMARK INTER + INTRA:          -8.021
REMARK INTER:                  -7.540
REMARK INTRA:                  -0.481
REMARK UNBOUND:                 0.119
REMARK  Name = 
REMARK  3 active torsions:
REMARK  status: ('A' for Active; 'I' for Inactive)
REMARK    1  A    between atoms: N_5  and  C_6
REMARK    2  A    between atoms: C_6  and  C_7
REMARK    3  A    between atoms: C_11  and  C_12
REMARK                            x       y       z     vdW  Elec       q    Type
REMARK                         _______ _______ _______ _____ _____    ______ ____
ROOT
ATOM      1  C   UNL     1      46.754   7.307  12.791  0.00  0.00    +0.000 A 
ATOM      2  C   UNL     1      45.900   8.404  12.892  0.00  0.00    +0.000 A 
ATOM      3  C   UNL     1      44.748   8.447  12.117  0.00  0.00    +0.000 A 
ATOM      4  C   UNL     1      44.452   7.376  11.280  0.00  0.00    +0.000 A 
ATOM      5  C   UNL     1      45.296   6.270  11.266  0.00  0.00    +0.000 A 
ATOM      6  N   UNL     1      46.435   6.246  12.003  0.00  0.00    +0.000 NA
ENDROOT
BRANCH   5   7
ATOM      7  C   UNL     1      45.048   5.058  10.464  0.00  0.00    +0.000 A 
ATOM      8  C   UNL     1      45.552   4.872   9.169  0.00  0.00    +0.000 A 
ATOM      9  C   UNL     1      45.265   3.706   8.457  0.00  0.00    +0.000 A 
ATOM     10  C   UNL     1      44.475   2.742   9.055  0.00  0.00    +0.000 A 
ATOM     11  N   UNL     1      43.962   2.866  10.294  0.00  0.00    +0.000 NA
ATOM     12  C   UNL     1      44.256   4.015  10.958  0.00  0.00    +0.000 A 
ENDBRANCH   5   7
BRANCH   1  13
ATOM     13  C   UNL     1      48.129   7.330  13.474  0.00  0.00    +0.000 C 
ATOM     14  C   UNL     1      49.368   6.934  12.690  0.00  0.00    +0.000 C 
ATOM     15  C   UNL     1      49.059   8.383  12.865  0.00  0.00    +0.000 C 
BRANCH  13  20
ATOM     16  C   UNL     1      48.073   3.599  17.105  0.00  0.00    +0.000 A 
ATOM     17  C   UNL     1      47.434   3.621  15.874  0.00  0.00    +0.000 A 
ATOM     18  C   UNL     1      47.469   4.788  15.104  0.00  0.00    +0.000 A 
ATOM     19  C   UNL     1      48.137   5.908  15.584  0.00  0.00    +0.000 A 
ATOM     20  N   UNL     1      48.143   7.155  14.943  0.00  0.00    +0.000 N 
ATOM     21  N   UNL     1      48.771   5.889  16.779  0.00  0.00    +0.000 NA
ATOM     22  C   UNL     1      48.729   4.747  17.504  0.00  0.00    +0.000 A 
ATOM     23  H   UNL     1      48.803   7.718  15.473  0.00  0.00    +0.000 HD
ENDBRANCH  13  20
ENDBRANCH   1  13
TORSDOF 3
ENDMDL
MODEL 5
REMARK VINA RESULT:    -6.746      2.454      8.172
REMARK INTER + INTRA:          -7.810
REMARK INTER:                  -7.421
REMARK INTRA:                  -0.389
REMARK UNBOUND:                 0.119
REMARK  Name = 
REMARK  3 active torsions:
REMARK  status: ('A' for Active; 'I' for Inactive)
REMARK    1  A    between atoms: N_5  and  C_6
REMARK    2  A    between atoms: C_6  and  C_7
REMARK    3  A    between atoms: C_11  and  C_12
REMARK                            x       y       z     vdW  Elec       q    Type
REMARK                         _______ _______ _______ _____ _____    ______ ____
ROOT
ATOM      1  C   UNL     1      47.841   4.867  15.884  0.00  0.00    +0.000 A 
ATOM      2  C   UNL     1      48.587   6.012  15.603  0.00  0.00    +0.000 A 
ATOM      3  C   UNL     1      48.328   6.729  14.443  0.00  0.00    +0.000 A 
ATOM      4  C   UNL     1      47.303   6.311  13.600  0.00  0.00    +0.000 A 
ATOM      5  C   UNL     1      46.538   5.205  13.957  0.00  0.00    +0.000 A 
ATOM      6  N   UNL     1      46.814   4.490  15.076  0.00  0.00    +0.000 NA
ENDROOT
BRANCH   5   7
ATOM      7  C   UNL     1      45.393   4.711  13.170  0.00  0.00    +0.000 A 
ATOM      8  C   UNL     1      45.374   3.461  12.535  0.00  0.00    +0.000 A 
ATOM      9  C   UNL     1      44.263   3.060  11.791  0.00  0.00    +0.000 A 
ATOM     10  C   UNL     1      43.185   3.921  11.693  0.00  0.00    +0.000 A 
ATOM     11  N   UNL     1      43.148   5.133  12.278  0.00  0.00    +0.000 NA
ATOM     12  C   UNL     1      44.247   5.495  12.992  0.00  0.00    +0.000 A 
ENDBRANCH   5   7
BRANCH   1  13
ATOM     13  C   UNL     1      48.244   3.945  17.043  0.00  0.00    +0.000 C 
ATOM     14  C   UNL     1      47.317   2.820  17.469  0.00  0.00    +0.000 C 
ATOM     15  C   UNL     1      48.474   2.502  16.581  0.00  0.00    +0.000 C 
BRANCH  13  20
ATOM     16  C   UNL     1      48.231   6.226  21.722  0.00  0.00    +0.000 A 
ATOM     17  C   UNL     1      47.307   6.347  20.696  0.00  0.00    +0.000 A 
ATOM     18  C   UNL     1      47.573   5.750  19.460  0.00  0.00    +0.000 A 
ATOM     19  C   UNL     1      48.760   5.051  19.275  0.00  0.00    +0.000 A 
ATOM     20  N   UNL     1      49.170   4.509  18.049  0.00  0.00    +0.000 N 
ATOM     21  N   UNL     1      49.660   4.921  20.275  0.00  0.00    +0.000 NA
ATOM     22  C   UNL     1      49.379   5.501  21.466  0.00  0.00    +0.000 A 
ATOM     23  H   UNL     1      50.005   3.971  18.268  0.00  0.00    +0.000 HD
ENDBRANCH  13  20
ENDBRANCH   1  13
TORSDOF 3
ENDMDL
MODEL 6
REMARK VINA RESULT:    -6.598      3.084      6.821
REMARK INTER + INTRA:          -7.636
REMARK INTER:                  -6.987
REMARK INTRA:                  -0.649
REMARK UNBOUND:                 0.119
REMARK  Name = 
REMARK  3 active torsions:
REMARK  status: ('A' for Active; 'I' for Inactive)
REMARK    1  A    between atoms: N_5  and  C_6
REMARK    2  A    between atoms: C_6  and  C_7
REMARK    3  A    between atoms: C_11  and  C_12
REMARK                            x       y       z     vdW  Elec       q    Type
REMARK                         _______ _______ _______ _____ _____    ______ ____
ROOT
ATOM      1  C   UNL     1      47.094   7.238  12.828  0.00  0.00    +0.000 A 
ATOM      2  C   UNL     1      46.236   8.323  13.008  0.00  0.00    +0.000 A 
ATOM      3  C   UNL     1      45.064   8.399  12.268  0.00  0.00    +0.000 A 
ATOM      4  C   UNL     1      44.751   7.370  11.384  0.00  0.00    +0.000 A 
ATOM      5  C   UNL     1      45.601   6.272  11.289  0.00  0.00    +0.000 A 
ATOM      6  N   UNL     1      46.759   6.218  11.994  0.00  0.00    +0.000 NA
ENDROOT
BRANCH   5   7
ATOM      7  C   UNL     1      45.338   5.103  10.432  0.00  0.00    +0.000 A 
ATOM      8  C   UNL     1      45.673   5.051   9.072  0.00  0.00    +0.000 A 
ATOM      9  C   UNL     1      45.381   3.917   8.312  0.00  0.00    +0.000 A 
ATOM     10  C   UNL     1      44.754   2.849   8.928  0.00  0.00    +0.000 A 
ATOM     11  N   UNL     1      44.407   2.843  10.229  0.00  0.00    +0.000 NA
ATOM     12  C   UNL     1      44.702   3.964  10.940  0.00  0.00    +0.000 A 
ENDBRANCH   5   7
BRANCH   1  13
ATOM     13  C   UNL     1      48.485   7.235  13.475  0.00  0.00    +0.000 C 
ATOM     14  C   UNL     1      48.688   7.889  14.831  0.00  0.00    +0.000 C 
ATOM     15  C   UNL     1      48.522   6.408  14.763  0.00  0.00    +0.000 C 
BRANCH  13  20
ATOM     16  C   UNL     1      51.594  10.253  10.588  0.00  0.00    +0.000 A 
ATOM     17  C   UNL     1      50.240  10.402  10.850  0.00  0.00    +0.000 A 
ATOM     18  C   UNL     1      49.561   9.395  11.543  0.00  0.00    +0.000 A 
ATOM     19  C   UNL     1      50.249   8.259  11.954  0.00  0.00    +0.000 A 
ATOM     20  N   UNL     1      49.643   7.150  12.559  0.00  0.00    +0.000 N 
ATOM     21  N   UNL     1      51.572   8.114  11.710  0.00  0.00    +0.000 NA
ATOM     22  C   UNL     1      52.210   9.104  11.044  0.00  0.00    +0.000 A 
ATOM     23  H   UNL     1      50.416   6.551  12.840  0.00  0.00    +0.000 HD
ENDBRANCH  13  20
ENDBRANCH   1  13
TORSDOF 3
ENDMDL
MODEL 7
REMARK VINA RESULT:    -6.531      1.288      6.985
REMARK INTER + INTRA:          -7.558
REMARK INTER:                  -7.032
REMARK INTRA:                  -0.526
REMARK UNBOUND:                 0.119
REMARK  Name = 
REMARK  3 active torsions:
REMARK  status: ('A' for Active; 'I' for Inactive)
REMARK    1  A    between atoms: N_5  and  C_6
REMARK    2  A    between atoms: C_6  and  C_7
REMARK    3  A    between atoms: C_11  and  C_12
REMARK                            x       y       z     vdW  Elec       q    Type
REMARK                         _______ _______ _______ _____ _____    ______ ____
ROOT
ATOM      1  C   UNL     1      45.692   5.138  12.856  0.00  0.00    +0.000 A 
ATOM      2  C   UNL     1      44.398   5.109  13.375  0.00  0.00    +0.000 A 
ATOM      3  C   UNL     1      43.353   4.655  12.581  0.00  0.00    +0.000 A 
ATOM      4  C   UNL     1      43.625   4.203  11.293  0.00  0.00    +0.000 A 
ATOM      5  C   UNL     1      44.942   4.183  10.843  0.00  0.00    +0.000 A 
ATOM      6  N   UNL     1      45.954   4.656  11.613  0.00  0.00    +0.000 NA
ENDROOT
BRANCH   5   7
ATOM      7  C   UNL     1      45.350   3.672   9.523  0.00  0.00    +0.000 A 
ATOM      8  C   UNL     1      45.353   2.309   9.189  0.00  0.00    +0.000 A 
ATOM      9  C   UNL     1      45.766   1.890   7.924  0.00  0.00    +0.000 A 
ATOM     10  C   UNL     1      46.174   2.844   7.009  0.00  0.00    +0.000 A 
ATOM     11  N   UNL     1      46.194   4.164   7.273  0.00  0.00    +0.000 NA
ATOM     12  C   UNL     1      45.789   4.539   8.516  0.00  0.00    +0.000 A 
ENDBRANCH   5   7
BRANCH   1  13
ATOM     13  C   UNL     1      46.822   5.827  13.634  0.00  0.00    +0.000 C 
ATOM     14  C   UNL     1      48.151   6.099  12.949  0.00  0.00    +0.000 C 
ATOM     15  C   UNL     1      47.158   7.208  13.063  0.00  0.00    +0.000 C 
BRANCH  13  20
ATOM     16  C   UNL     1      48.740   2.763  17.381  0.00  0.00    +0.000 A 
ATOM     17  C   UNL     1      48.332   2.417  16.101  0.00  0.00    +0.000 A 
ATOM     18  C   UNL     1      47.714   3.378  15.295  0.00  0.00    +0.000 A 
ATOM     19  C   UNL     1      47.513   4.662  15.787  0.00  0.00    +0.000 A 
ATOM     20  N   UNL     1      46.812   5.665  15.103  0.00  0.00    +0.000 N 
ATOM     21  N   UNL     1      47.918   5.008  17.030  0.00  0.00    +0.000 NA
ATOM     22  C   UNL     1      48.519   4.064  17.791  0.00  0.00    +0.000 A 
ATOM     23  H   UNL     1      46.940   6.503  15.666  0.00  0.00    +0.000 HD
ENDBRANCH  13  20
ENDBRANCH   1  13
TORSDOF 3
ENDMDL
MODEL 8
REMARK VINA RESULT:    -6.468      2.217      3.680
REMARK INTER + INTRA:          -7.483
REMARK INTER:                  -7.318
REMARK INTRA:                  -0.165
REMARK UNBOUND:                 0.119
REMARK  Name = 
REMARK  3 active torsions:
REMARK  status: ('A' for Active; 'I' for Inactive)
REMARK    1  A    between atoms: N_5  and  C_6
REMARK    2  A    between atoms: C_6  and  C_7
REMARK    3  A    between atoms: C_11  and  C_12
REMARK                            x       y       z     vdW  Elec       q    Type
REMARK                         _______ _______ _______ _____ _____    ______ ____
ROOT
ATOM      1  C   UNL     1      47.988   7.248  13.576  0.00  0.00    +0.000 A 
ATOM      2  C   UNL     1      49.177   7.976  13.549  0.00  0.00    +0.000 A 
ATOM      3  C   UNL     1      50.119   7.785  14.551  0.00  0.00    +0.000 A 
ATOM      4  C   UNL     1      49.873   6.842  15.544  0.00  0.00    +0.000 A 
ATOM      5  C   UNL     1      48.705   6.087  15.490  0.00  0.00    +0.000 A 
ATOM      6  N   UNL     1      47.775   6.299  14.525  0.00  0.00    +0.000 NA
ENDROOT
BRANCH   5   7
ATOM      7  C   UNL     1      48.371   5.022  16.453  0.00  0.00    +0.000 A 
ATOM      8  C   UNL     1      49.194   4.672  17.533  0.00  0.00    +0.000 A 
ATOM      9  C   UNL     1      48.826   3.642  18.400  0.00  0.00    +0.000 A 
ATOM     10  C   UNL     1      47.636   2.975  18.171  0.00  0.00    +0.000 A 
ATOM     11  N   UNL     1      46.808   3.266  17.151  0.00  0.00    +0.000 NA
ATOM     12  C   UNL     1      47.197   4.271  16.322  0.00  0.00    +0.000 A 
ENDBRANCH   5   7
BRANCH   1  13
ATOM     13  C   UNL     1      46.849   7.590  12.606  0.00  0.00    +0.000 C 
ATOM     14  C   UNL     1      45.799   8.612  13.005  0.00  0.00    +0.000 C 
ATOM     15  C   UNL     1      46.921   9.041  12.119  0.00  0.00    +0.000 C 
BRANCH  13  20
ATOM     16  C   UNL     1      43.164   4.023  11.713  0.00  0.00    +0.000 A 
ATOM     17  C   UNL     1      43.690   4.442  12.926  0.00  0.00    +0.000 A 
ATOM     18  C   UNL     1      44.778   5.319  12.935  0.00  0.00    +0.000 A 
ATOM     19  C   UNL     1      45.321   5.754  11.731  0.00  0.00    +0.000 A 
ATOM     20  N   UNL     1      46.473   6.546  11.629  0.00  0.00    +0.000 N 
ATOM     21  N   UNL     1      44.805   5.357  10.545  0.00  0.00    +0.000 NA
ATOM     22  C   UNL     1      43.748   4.513  10.560  0.00  0.00    +0.000 A 
ATOM     23  H   UNL     1      46.539   6.784  10.642  0.00  0.00    +0.000 HD
ENDBRANCH  13  20
ENDBRANCH   1  13
TORSDOF 3
ENDMDL
MODEL 9
REMARK VINA RESULT:    -6.455      2.114      7.238
REMARK INTER + INTRA:          -7.468
REMARK INTER:                  -7.456
REMARK INTRA:                  -0.013
REMARK UNBOUND:                 0.119
REMARK  Name = 
REMARK  3 active torsions:
REMARK  status: ('A' for Active; 'I' for Inactive)
REMARK    1  A    between atoms: N_5  and  C_6
REMARK    2  A    between atoms: C_6  and  C_7
REMARK    3  A    between atoms: C_11  and  C_12
REMARK                            x       y       z     vdW  Elec       q    Type
REMARK                         _______ _______ _______ _____ _____    ______ ____
ROOT
ATOM      1  C   UNL     1      47.466   7.551  12.316  0.00  0.00    +0.000 A 
ATOM      2  C   UNL     1      46.598   8.553  12.747  0.00  0.00    +0.000 A 
ATOM      3  C   UNL     1      45.259   8.503  12.382  0.00  0.00    +0.000 A 
ATOM      4  C   UNL     1      44.803   7.431  11.622  0.00  0.00    +0.000 A 
ATOM      5  C   UNL     1      45.690   6.416  11.275  0.00  0.00    +0.000 A 
ATOM      6  N   UNL     1      47.002   6.486  11.609  0.00  0.00    +0.000 NA
ENDROOT
BRANCH   5   7
ATOM      7  C   UNL     1      45.302   5.209  10.524  0.00  0.00    +0.000 A 
ATOM      8  C   UNL     1      45.578   5.025   9.161  0.00  0.00    +0.000 A 
ATOM      9  C   UNL     1      45.168   3.863   8.505  0.00  0.00    +0.000 A 
ATOM     10  C   UNL     1      44.484   2.901   9.226  0.00  0.00    +0.000 A 
ATOM     11  N   UNL     1      44.189   3.023  10.533  0.00  0.00    +0.000 NA
ATOM     12  C   UNL     1      44.599   4.168  11.142  0.00  0.00    +0.000 A 
ENDBRANCH   5   7
BRANCH   1  13
ATOM     13  C   UNL     1      48.980   7.693  12.527  0.00  0.00    +0.000 C 
ATOM     14  C   UNL     1      49.884   7.976  11.340  0.00  0.00    +0.000 C 
ATOM     15  C   UNL     1      49.476   9.110  12.221  0.00  0.00    +0.000 C 
BRANCH  13  20
ATOM     16  C   UNL     1      48.632   7.515  17.719  0.00  0.00    +0.000 A 
ATOM     17  C   UNL     1      48.511   8.612  16.878  0.00  0.00    +0.000 A 
ATOM     18  C   UNL     1      48.777   8.463  15.514  0.00  0.00    +0.000 A 
ATOM     19  C   UNL     1      49.165   7.222  15.021  0.00  0.00    +0.000 A 
ATOM     20  N   UNL     1      49.556   6.991  13.694  0.00  0.00    +0.000 N 
ATOM     21  N   UNL     1      49.275   6.147  15.834  0.00  0.00    +0.000 NA
ATOM     22  C   UNL     1      49.006   6.313  17.150  0.00  0.00    +0.000 A 
ATOM     23  H   UNL     1      49.663   5.982  13.626  0.00  0.00    +0.000 HD
ENDBRANCH  13  20
ENDBRANCH   1  13
TORSDOF 3
ENDMDL
