MODEL 1
REMARK VINA RESULT:    -8.401      0.000      0.000
REMARK INTER + INTRA:         -13.324
REMARK INTER:                 -12.085
REMARK INTRA:                  -1.239
REMARK UNBOUND:                -1.239
REMARK  Name = 
REMARK  9 active torsions:
REMARK  status: ('A' for Active; 'I' for Inactive)
REMARK    1  A    between atoms: C_1  and  N_2
REMARK    2  A    between atoms: C_4  and  C_5
REMARK    3  A    between atoms: N_7  and  C_8
REMARK    4  A    between atoms: C_8  and  C_9
REMARK    5  A    between atoms: C_12  and  N_13
REMARK    6  A    between atoms: N_13  and  C_14
REMARK    7  A    between atoms: C_14  and  C_15
REMARK    8  A    between atoms: C_15  and  C_16
REMARK    9  A    between atoms: C_25  and  O_26
REMARK                            x       y       z     vdW  Elec       q    Type
REMARK                         _______ _______ _______ _____ _____    ______ ____
ROOT
ATOM      1  C   UNL     1      47.011   8.073  13.284  0.00  0.00    +0.000 C 
ENDROOT
BRANCH   1   2
ATOM      2  C   UNL     1      46.177   7.161  12.429  0.00  0.00    +0.000 A 
ATOM      3  C   UNL     1      44.908   6.763  12.859  0.00  0.00    +0.000 A 
ATOM      4  C   UNL     1      44.108   5.940  12.057  0.00  0.00    +0.000 A 
ATOM      5  C   UNL     1      44.564   5.452  10.829  0.00  0.00    +0.000 A 
ATOM      6  C   UNL     1      45.844   5.838  10.415  0.00  0.00    +0.000 A 
ATOM      7  C   UNL     1      46.643   6.683  11.199  0.00  0.00    +0.000 A 
BRANCH   5   8
ATOM      8  N   UNL     1      43.779   4.702   9.968  0.00  0.00    +0.000 N 
ATOM      9  H   UNL     1      42.773   4.763  10.079  0.00  0.00    +0.000 HD
BRANCH   8  10
ATOM     10  C   UNL     1      44.330   4.047   8.787  0.00  0.00    +0.000 C 
BRANCH  10  11
ATOM     11  C   UNL     1      44.925   2.681   9.125  0.00  0.00    +0.000 C 
BRANCH  11  12
ATOM     12  C   UNL     1      45.895   2.235   8.058  0.00  0.00    +0.000 A 
ATOM     13  C   UNL     1      46.292   3.099   7.037  0.00  0.00    +0.000 A 
ATOM     14  C   UNL     1      47.183   2.637   6.073  0.00  0.00    +0.000 A 
ATOM     15  C   UNL     1      47.651   1.331   6.144  0.00  0.00    +0.000 A 
ATOM     16  C   UNL     1      47.201   0.536   7.184  0.00  0.00    +0.000 A 
ATOM     17  N   UNL     1      46.334   0.956   8.132  0.00  0.00    +0.000 NA
ENDBRANCH  11  12
ENDBRANCH  10  11
ENDBRANCH   8  10
ENDBRANCH   5   8
ENDBRANCH   1   2
BRANCH   1  20
ATOM     18  C   UNL     1      48.687   6.829  14.572  0.00  0.00    +0.000 C 
ATOM     19  O   UNL     1      49.481   6.822  13.639  0.00  0.00    +0.000 OA
ATOM     20  N   UNL     1      47.447   7.416  14.493  0.00  0.00    +0.000 N 
ATOM     21  H   UNL     1      46.822   7.409  15.285  0.00  0.00    +0.000 HD
BRANCH  18  25
ATOM     22  C   UNL     1      50.874   5.699  18.932  0.00  0.00    +0.000 C 
ATOM     23  N   UNL     1      49.979   5.679  17.799  0.00  0.00    +0.000 N 
ATOM     24  C   UNL     1      50.041   6.523  16.718  0.00  0.00    +0.000 A 
ATOM     25  C   UNL     1      49.012   6.200  15.847  0.00  0.00    +0.000 A 
ATOM     26  C   UNL     1      48.306   5.099  16.441  0.00  0.00    +0.000 A 
ATOM     27  C   UNL     1      47.203   4.293  16.132  0.00  0.00    +0.000 A 
ATOM     28  N   UNL     1      46.812   3.321  16.968  0.00  0.00    +0.000 NA
ATOM     29  C   UNL     1      47.513   3.155  18.102  0.00  0.00    +0.000 A 
ATOM     30  N   UNL     1      48.586   3.850  18.523  0.00  0.00    +0.000 NA
ATOM     31  C   UNL     1      48.933   4.809  17.649  0.00  0.00    +0.000 A 
BRANCH  27  32
ATOM     32  O   UNL     1      46.450   4.420  14.989  0.00  0.00    +0.000 OA
ATOM     33  H   UNL     1      46.991   4.892  14.325  0.00  0.00    +0.000 HD
ENDBRANCH  27  32
ENDBRANCH  18  25
ENDBRANCH   1  20
TORSDOF 8
ENDMDL
MODEL 2
REMARK VINA RESULT:    -7.542      2.160      2.505
REMARK INTER + INTRA:         -12.087
REMARK INTER:                 -10.940
REMARK INTRA:                  -1.147
REMARK UNBOUND:                -1.239
REMARK  Name = 
REMARK  9 active torsions:
REMARK  status: ('A' for Active; 'I' for Inactive)
REMARK    1  A    between atoms: C_1  and  N_2
REMARK    2  A    between atoms: C_4  and  C_5
REMARK    3  A    between atoms: N_7  and  C_8
REMARK    4  A    between atoms: C_8  and  C_9
REMARK    5  A    between atoms: C_12  and  N_13
REMARK    6  A    between atoms: N_13  and  C_14
REMARK    7  A    between atoms: C_14  and  C_15
REMARK    8  A    between atoms: C_15  and  C_16
REMARK    9  A    between atoms: C_25  and  O_26
REMARK                            x       y       z     vdW  Elec       q    Type
REMARK                         _______ _______ _______ _____ _____    ______ ____
ROOT
ATOM      1  C   UNL     1      48.418   6.752  13.708  0.00  0.00    +0.000 C 
ENDROOT
BRANCH   1   2
ATOM      2  C   UNL     1      47.214   6.156  13.034  0.00  0.00    +0.000 A 
ATOM      3  C   UNL     1      46.791   6.643  11.794  0.00  0.00    +0.000 A 
ATOM      4  C   UNL     1      45.690   6.075  11.142  0.00  0.00    +0.000 A 
ATOM      5  C   UNL     1      44.952   5.040  11.723  0.00  0.00    +0.000 A 
ATOM      6  C   UNL     1      45.370   4.572  12.974  0.00  0.00    +0.000 A 
ATOM      7  C   UNL     1      46.486   5.117  13.624  0.00  0.00    +0.000 A 
BRANCH   5   8
ATOM      8  N   UNL     1      43.907   4.395  11.080  0.00  0.00    +0.000 N 
ATOM      9  H   UNL     1      42.991   4.443  11.513  0.00  0.00    +0.000 HD
BRANCH   8  10
ATOM     10  C   UNL     1      44.030   3.882   9.721  0.00  0.00    +0.000 C 
BRANCH  10  11
ATOM     11  C   UNL     1      44.729   2.524   9.692  0.00  0.00    +0.000 C 
BRANCH  11  12
ATOM     12  C   UNL     1      45.662   2.421   8.509  0.00  0.00    +0.000 A 
ATOM     13  C   UNL     1      45.873   3.508   7.661  0.00  0.00    +0.000 A 
ATOM     14  C   UNL     1      46.738   3.359   6.580  0.00  0.00    +0.000 A 
ATOM     15  C   UNL     1      47.362   2.137   6.366  0.00  0.00    +0.000 A 
ATOM     16  C   UNL     1      47.092   1.106   7.250  0.00  0.00    +0.000 A 
ATOM     17  N   UNL     1      46.255   1.220   8.306  0.00  0.00    +0.000 NA
ENDBRANCH  11  12
ENDBRANCH  10  11
ENDBRANCH   8  10
ENDBRANCH   5   8
ENDBRANCH   1   2
BRANCH   1  20
ATOM     18  C   UNL     1      48.928   6.652  16.105  0.00  0.00    +0.000 C 
ATOM     19  O   UNL     1      49.897   5.923  15.926  0.00  0.00    +0.000 OA
ATOM     20  N   UNL     1      48.137   7.109  15.078  0.00  0.00    +0.000 N 
ATOM     21  H   UNL     1      47.351   7.714  15.262  0.00  0.00    +0.000 HD
BRANCH  18  25
ATOM     22  C   UNL     1      47.405   9.423  19.986  0.00  0.00    +0.000 C 
ATOM     23  N   UNL     1      47.865   8.310  19.191  0.00  0.00    +0.000 N 
ATOM     24  C   UNL     1      48.132   8.346  17.846  0.00  0.00    +0.000 A 
ATOM     25  C   UNL     1      48.543   7.085  17.444  0.00  0.00    +0.000 A 
ATOM     26  C   UNL     1      48.526   6.257  18.617  0.00  0.00    +0.000 A 
ATOM     27  C   UNL     1      48.809   4.925  18.945  0.00  0.00    +0.000 A 
ATOM     28  N   UNL     1      48.666   4.486  20.204  0.00  0.00    +0.000 NA
ATOM     29  C   UNL     1      48.243   5.366  21.126  0.00  0.00    +0.000 A 
ATOM     30  N   UNL     1      47.937   6.666  20.953  0.00  0.00    +0.000 NA
ATOM     31  C   UNL     1      48.098   7.051  19.677  0.00  0.00    +0.000 A 
BRANCH  27  32
ATOM     32  O   UNL     1      49.243   3.984  18.043  0.00  0.00    +0.000 OA
ATOM     33  H   UNL     1      48.693   3.183  18.158  0.00  0.00    +0.000 HD
ENDBRANCH  27  32
ENDBRANCH  18  25
ENDBRANCH   1  20
TORSDOF 8
ENDMDL
MODEL 3
REMARK VINA RESULT:    -7.321      2.411      2.913
REMARK INTER + INTRA:         -11.769
REMARK INTER:                 -10.691
REMARK INTRA:                  -1.078
REMARK UNBOUND:                -1.239
REMARK  Name = 
REMARK  9 active torsions:
REMARK  status: ('A' for Active; 'I' for Inactive)
REMARK    1  A    between atoms: C_1  and  N_2
REMARK    2  A    between atoms: C_4  and  C_5
REMARK    3  A    between atoms: N_7  and  C_8
REMARK    4  A    between atoms: C_8  and  C_9
REMARK    5  A    between atoms: C_12  and  N_13
REMARK    6  A    between atoms: N_13  and  C_14
REMARK    7  A    between atoms: C_14  and  C_15
REMARK    8  A    between atoms: C_15  and  C_16
REMARK    9  A    between atoms: C_25  and  O_26
REMARK                            x       y       z     vdW  Elec       q    Type
REMARK                         _______ _______ _______ _____ _____    ______ ____
ROOT
ATOM      1  C   UNL     1      48.341   6.906  13.844  0.00  0.00    +0.000 C 
ENDROOT
BRANCH   1   2
ATOM      2  C   UNL     1      47.280   6.140  13.105  0.00  0.00    +0.000 A 
ATOM      3  C   UNL     1      46.830   4.912  13.596  0.00  0.00    +0.000 A 
ATOM      4  C   UNL     1      45.820   4.205  12.933  0.00  0.00    +0.000 A 
ATOM      5  C   UNL     1      45.261   4.676  11.741  0.00  0.00    +0.000 A 
ATOM      6  C   UNL     1      45.732   5.897  11.245  0.00  0.00    +0.000 A 
ATOM      7  C   UNL     1      46.726   6.625  11.914  0.00  0.00    +0.000 A 
BRANCH   5   8
ATOM      8  N   UNL     1      44.206   4.051  11.095  0.00  0.00    +0.000 N 
ATOM      9  H   UNL     1      43.297   4.499  11.145  0.00  0.00    +0.000 HD
BRANCH   8  10
ATOM     10  C   UNL     1      44.408   2.943  10.169  0.00  0.00    +0.000 C 
BRANCH  10  11
ATOM     11  C   UNL     1      44.535   3.430   8.727  0.00  0.00    +0.000 C 
BRANCH  11  12
ATOM     12  C   UNL     1      45.682   2.746   8.023  0.00  0.00    +0.000 A 
ATOM     13  C   UNL     1      46.473   3.430   7.101  0.00  0.00    +0.000 A 
ATOM     14  C   UNL     1      47.515   2.752   6.474  0.00  0.00    +0.000 A 
ATOM     15  C   UNL     1      47.738   1.414   6.773  0.00  0.00    +0.000 A 
ATOM     16  C   UNL     1      46.901   0.806   7.693  0.00  0.00    +0.000 A 
ATOM     17  N   UNL     1      45.880   1.438   8.315  0.00  0.00    +0.000 NA
ENDBRANCH  11  12
ENDBRANCH  10  11
ENDBRANCH   8  10
ENDBRANCH   5   8
ENDBRANCH   1   2
BRANCH   1  20
ATOM     18  C   UNL     1      49.185   6.666  16.135  0.00  0.00    +0.000 C 
ATOM     19  O   UNL     1      50.341   6.518  15.753  0.00  0.00    +0.000 OA
ATOM     20  N   UNL     1      48.133   6.859  15.272  0.00  0.00    +0.000 N 
ATOM     21  H   UNL     1      47.195   6.984  15.622  0.00  0.00    +0.000 HD
BRANCH  18  25
ATOM     22  C   UNL     1      48.576   5.203  20.883  0.00  0.00    +0.000 C 
ATOM     23  N   UNL     1      48.566   6.001  19.681  0.00  0.00    +0.000 N 
ATOM     24  C   UNL     1      49.015   5.596  18.449  0.00  0.00    +0.000 A 
ATOM     25  C   UNL     1      48.847   6.640  17.553  0.00  0.00    +0.000 A 
ATOM     26  C   UNL     1      48.259   7.721  18.293  0.00  0.00    +0.000 A 
ATOM     27  C   UNL     1      47.832   9.032  18.042  0.00  0.00    +0.000 A 
ATOM     28  N   UNL     1      47.315   9.782  19.026  0.00  0.00    +0.000 NA
ATOM     29  C   UNL     1      47.227   9.232  20.247  0.00  0.00    +0.000 A 
ATOM     30  N   UNL     1      47.594   7.993  20.629  0.00  0.00    +0.000 NA
ATOM     31  C   UNL     1      48.104   7.288  19.606  0.00  0.00    +0.000 A 
BRANCH  27  32
ATOM     32  O   UNL     1      47.901   9.644  16.813  0.00  0.00    +0.000 OA
ATOM     33  H   UNL     1      47.917   8.944  16.130  0.00  0.00    +0.000 HD
ENDBRANCH  27  32
ENDBRANCH  18  25
ENDBRANCH   1  20
TORSDOF 8
ENDMDL
MODEL 4
REMARK VINA RESULT:    -7.152      2.117      8.082
REMARK INTER + INTRA:         -11.526
REMARK INTER:                  -9.785
REMARK INTRA:                  -1.741
REMARK UNBOUND:                -1.239
REMARK  Name = 
REMARK  9 active torsions:
REMARK  status: ('A' for Active; 'I' for Inactive)
REMARK    1  A    between atoms: C_1  and  N_2
REMARK    2  A    between atoms: C_4  and  C_5
REMARK    3  A    between atoms: N_7  and  C_8
REMARK    4  A    between atoms: C_8  and  C_9
REMARK    5  A    between atoms: C_12  and  N_13
REMARK    6  A    between atoms: N_13  and  C_14
REMARK    7  A    between atoms: C_14  and  C_15
REMARK    8  A    between atoms: C_15  and  C_16
REMARK    9  A    between atoms: C_25  and  O_26
REMARK                            x       y       z     vdW  Elec       q    Type
REMARK                         _______ _______ _______ _____ _____    ______ ____
ROOT
ATOM      1  C   UNL     1      48.037   8.353  12.156  0.00  0.00    +0.000 C 
ENDROOT
BRANCH   1   2
ATOM      2  C   UNL     1      48.339   8.107  13.607  0.00  0.00    +0.000 A 
ATOM      3  C   UNL     1      48.115   9.113  14.551  0.00  0.00    +0.000 A 
ATOM      4  C   UNL     1      48.362   8.884  15.910  0.00  0.00    +0.000 A 
ATOM      5  C   UNL     1      48.881   7.668  16.363  0.00  0.00    +0.000 A 
ATOM      6  C   UNL     1      49.123   6.673  15.409  0.00  0.00    +0.000 A 
ATOM      7  C   UNL     1      48.855   6.883  14.048  0.00  0.00    +0.000 A 
BRANCH   5   8
ATOM      8  N   UNL     1      49.066   7.370  17.704  0.00  0.00    +0.000 N 
ATOM      9  H   UNL     1      50.020   7.332  18.048  0.00  0.00    +0.000 HD
BRANCH   8  10
ATOM     10  C   UNL     1      47.961   7.356  18.655  0.00  0.00    +0.000 C 
BRANCH  10  11
ATOM     11  C   UNL     1      47.899   6.040  19.429  0.00  0.00    +0.000 C 
BRANCH  11  12
ATOM     12  C   UNL     1      48.111   4.862  18.509  0.00  0.00    +0.000 A 
ATOM     13  C   UNL     1      49.256   4.071  18.604  0.00  0.00    +0.000 A 
ATOM     14  C   UNL     1      49.409   3.000  17.727  0.00  0.00    +0.000 A 
ATOM     15  C   UNL     1      48.426   2.748  16.778  0.00  0.00    +0.000 A 
ATOM     16  C   UNL     1      47.325   3.586  16.744  0.00  0.00    +0.000 A 
ATOM     17  N   UNL     1      47.152   4.635  17.580  0.00  0.00    +0.000 NA
ENDBRANCH  11  12
ENDBRANCH  10  11
ENDBRANCH   8  10
ENDBRANCH   5   8
ENDBRANCH   1   2
BRANCH   1  20
ATOM     18  C   UNL     1      46.074   7.066  11.444  0.00  0.00    +0.000 C 
ATOM     19  O   UNL     1      45.295   7.906  11.882  0.00  0.00    +0.000 OA
ATOM     20  N   UNL     1      47.439   7.196  11.534  0.00  0.00    +0.000 N 
ATOM     21  H   UNL     1      48.050   6.488  11.155  0.00  0.00    +0.000 HD
BRANCH  18  25
ATOM     22  C   UNL     1      45.171   3.485   8.065  0.00  0.00    +0.000 C 
ATOM     23  N   UNL     1      45.177   4.244   9.293  0.00  0.00    +0.000 N 
ATOM     24  C   UNL     1      45.809   5.446   9.486  0.00  0.00    +0.000 A 
ATOM     25  C   UNL     1      45.592   5.854  10.792  0.00  0.00    +0.000 A 
ATOM     26  C   UNL     1      44.779   4.841  11.406  0.00  0.00    +0.000 A 
ATOM     27  C   UNL     1      44.200   4.601  12.658  0.00  0.00    +0.000 A 
ATOM     28  N   UNL     1      43.479   3.491  12.875  0.00  0.00    +0.000 NA
ATOM     29  C   UNL     1      43.338   2.630  11.855  0.00  0.00    +0.000 A 
ATOM     30  N   UNL     1      43.835   2.733  10.607  0.00  0.00    +0.000 NA
ATOM     31  C   UNL     1      44.547   3.861  10.446  0.00  0.00    +0.000 A 
BRANCH  27  32
ATOM     32  O   UNL     1      44.314   5.446  13.736  0.00  0.00    +0.000 OA
ATOM     33  H   UNL     1      43.710   5.123  14.434  0.00  0.00    +0.000 HD
ENDBRANCH  27  32
ENDBRANCH  18  25
ENDBRANCH   1  20
TORSDOF 8
ENDMDL
MODEL 5
REMARK VINA RESULT:    -7.003      2.628      3.741
REMARK INTER + INTRA:         -11.312
REMARK INTER:                 -10.130
REMARK INTRA:                  -1.182
REMARK UNBOUND:                -1.239
REMARK  Name = 
REMARK  9 active torsions:
REMARK  status: ('A' for Active; 'I' for Inactive)
REMARK    1  A    between atoms: C_1  and  N_2
REMARK    2  A    between atoms: C_4  and  C_5
REMARK    3  A    between atoms: N_7  and  C_8
REMARK    4  A    between atoms: C_8  and  C_9
REMARK    5  A    between atoms: C_12  and  N_13
REMARK    6  A    between atoms: N_13  and  C_14
REMARK    7  A    between atoms: C_14  and  C_15
REMARK    8  A    between atoms: C_15  and  C_16
REMARK    9  A    between atoms: C_25  and  O_26
REMARK                            x       y       z     vdW  Elec       q    Type
REMARK                         _______ _______ _______ _____ _____    ______ ____
ROOT
ATOM      1  C   UNL     1      49.140   6.983  15.990  0.00  0.00    +0.000 C 
ENDROOT
BRANCH   1   2
ATOM      2  C   UNL     1      48.239   6.222  15.058  0.00  0.00    +0.000 A 
ATOM      3  C   UNL     1      47.617   5.047  15.486  0.00  0.00    +0.000 A 
ATOM      4  C   UNL     1      46.751   4.347  14.638  0.00  0.00    +0.000 A 
ATOM      5  C   UNL     1      46.514   4.770  13.327  0.00  0.00    +0.000 A 
ATOM      6  C   UNL     1      47.157   5.937  12.898  0.00  0.00    +0.000 A 
ATOM      7  C   UNL     1      48.008   6.659  13.748  0.00  0.00    +0.000 A 
BRANCH   5   8
ATOM      8  N   UNL     1      45.605   4.156  12.480  0.00  0.00    +0.000 N 
ATOM      9  H   UNL     1      45.848   3.240  12.118  0.00  0.00    +0.000 HD
BRANCH   8  10
ATOM     10  C   UNL     1      44.248   4.659  12.301  0.00  0.00    +0.000 C 
BRANCH  10  11
ATOM     11  C   UNL     1      44.014   5.153  10.874  0.00  0.00    +0.000 C 
BRANCH  11  12
ATOM     12  C   UNL     1      44.674   4.239   9.870  0.00  0.00    +0.000 A 
ATOM     13  C   UNL     1      45.489   4.749   8.859  0.00  0.00    +0.000 A 
ATOM     14  C   UNL     1      46.070   3.865   7.953  0.00  0.00    +0.000 A 
ATOM     15  C   UNL     1      45.820   2.503   8.071  0.00  0.00    +0.000 A 
ATOM     16  C   UNL     1      44.992   2.081   9.096  0.00  0.00    +0.000 A 
ATOM     17  N   UNL     1      44.412   2.916   9.988  0.00  0.00    +0.000 NA
ENDBRANCH  11  12
ENDBRANCH  10  11
ENDBRANCH   8  10
ENDBRANCH   5   8
ENDBRANCH   1   2
BRANCH   1  20
ATOM     18  C   UNL     1      50.127   5.592  17.752  0.00  0.00    +0.000 C 
ATOM     19  O   UNL     1      49.175   5.768  18.503  0.00  0.00    +0.000 OA
ATOM     20  N   UNL     1      50.204   6.149  16.499  0.00  0.00    +0.000 N 
ATOM     21  H   UNL     1      51.000   5.976  15.905  0.00  0.00    +0.000 HD
BRANCH  18  25
ATOM     22  C   UNL     1      54.483   4.059  19.686  0.00  0.00    +0.000 C 
ATOM     23  N   UNL     1      53.209   4.065  19.008  0.00  0.00    +0.000 N 
ATOM     24  C   UNL     1      52.399   5.160  18.842  0.00  0.00    +0.000 A 
ATOM     25  C   UNL     1      51.263   4.768  18.151  0.00  0.00    +0.000 A 
ATOM     26  C   UNL     1      51.412   3.364  17.887  0.00  0.00    +0.000 A 
ATOM     27  C   UNL     1      50.680   2.349  17.257  0.00  0.00    +0.000 A 
ATOM     28  N   UNL     1      51.154   1.095  17.207  0.00  0.00    +0.000 NA
ATOM     29  C   UNL     1      52.344   0.856  17.782  0.00  0.00    +0.000 A 
ATOM     30  N   UNL     1      53.149   1.729  18.417  0.00  0.00    +0.000 NA
ATOM     31  C   UNL     1      52.627   2.966  18.436  0.00  0.00    +0.000 A 
BRANCH  27  32
ATOM     32  O   UNL     1      49.459   2.538  16.655  0.00  0.00    +0.000 OA
ATOM     33  H   UNL     1      49.569   3.217  15.960  0.00  0.00    +0.000 HD
ENDBRANCH  27  32
ENDBRANCH  18  25
ENDBRANCH   1  20
TORSDOF 8
ENDMDL
MODEL 6
REMARK VINA RESULT:    -6.795      2.608      3.324
REMARK INTER + INTRA:         -11.013
REMARK INTER:                 -10.106
REMARK INTRA:                  -0.907
REMARK UNBOUND:                -1.239
REMARK  Name = 
REMARK  9 active torsions:
REMARK  status: ('A' for Active; 'I' for Inactive)
REMARK    1  A    between atoms: C_1  and  N_2
REMARK    2  A    between atoms: C_4  and  C_5
REMARK    3  A    between atoms: N_7  and  C_8
REMARK    4  A    between atoms: C_8  and  C_9
REMARK    5  A    between atoms: C_12  and  N_13
REMARK    6  A    between atoms: N_13  and  C_14
REMARK    7  A    between atoms: C_14  and  C_15
REMARK    8  A    between atoms: C_15  and  C_16
REMARK    9  A    between atoms: C_25  and  O_26
REMARK                            x       y       z     vdW  Elec       q    Type
REMARK                         _______ _______ _______ _____ _____    ______ ____
ROOT
ATOM      1  C   UNL     1      49.644   7.157  14.722  0.00  0.00    +0.000 C 
ENDROOT
BRANCH   1   2
ATOM      2  C   UNL     1      48.568   6.808  13.732  0.00  0.00    +0.000 A 
ATOM      3  C   UNL     1      47.695   5.748  13.990  0.00  0.00    +0.000 A 
ATOM      4  C   UNL     1      46.668   5.434  13.091  0.00  0.00    +0.000 A 
ATOM      5  C   UNL     1      46.510   6.134  11.891  0.00  0.00    +0.000 A 
ATOM      6  C   UNL     1      47.402   7.180  11.631  0.00  0.00    +0.000 A 
ATOM      7  C   UNL     1      48.418   7.519  12.536  0.00  0.00    +0.000 A 
BRANCH   5   8
ATOM      8  N   UNL     1      45.462   5.911  11.011  0.00  0.00    +0.000 N 
ATOM      9  H   UNL     1      45.521   6.343  10.096  0.00  0.00    +0.000 HD
BRANCH   8  10
ATOM     10  C   UNL     1      44.436   4.906  11.264  0.00  0.00    +0.000 C 
BRANCH  10  11
ATOM     11  C   UNL     1      43.797   4.413   9.967  0.00  0.00    +0.000 C 
BRANCH  11  12
ATOM     12  C   UNL     1      44.801   3.675   9.116  0.00  0.00    +0.000 A 
ATOM     13  C   UNL     1      44.963   2.294   9.227  0.00  0.00    +0.000 A 
ATOM     14  C   UNL     1      45.909   1.660   8.424  0.00  0.00    +0.000 A 
ATOM     15  C   UNL     1      46.670   2.414   7.540  0.00  0.00    +0.000 A 
ATOM     16  C   UNL     1      46.454   3.781   7.498  0.00  0.00    +0.000 A 
ATOM     17  N   UNL     1      45.546   4.423   8.267  0.00  0.00    +0.000 NA
ENDBRANCH  11  12
ENDBRANCH  10  11
ENDBRANCH   8  10
ENDBRANCH   5   8
ENDBRANCH   1   2
BRANCH   1  20
ATOM     18  C   UNL     1      49.117   6.534  17.035  0.00  0.00    +0.000 C 
ATOM     19  O   UNL     1      49.592   5.412  16.900  0.00  0.00    +0.000 OA
ATOM     20  N   UNL     1      49.093   7.461  16.021  0.00  0.00    +0.000 N 
ATOM     21  H   UNL     1      48.700   8.378  16.170  0.00  0.00    +0.000 HD
BRANCH  18  25
ATOM     22  C   UNL     1      46.916   9.257  20.612  0.00  0.00    +0.000 C 
ATOM     23  N   UNL     1      47.550   8.165  19.913  0.00  0.00    +0.000 N 
ATOM     24  C   UNL     1      47.988   8.197  18.613  0.00  0.00    +0.000 A 
ATOM     25  C   UNL     1      48.531   6.961  18.300  0.00  0.00    +0.000 A 
ATOM     26  C   UNL     1      48.415   6.154  19.483  0.00  0.00    +0.000 A 
ATOM     27  C   UNL     1      48.741   4.850  19.879  0.00  0.00    +0.000 A 
ATOM     28  N   UNL     1      48.462   4.424  21.120  0.00  0.00    +0.000 NA
ATOM     29  C   UNL     1      47.864   5.288  21.956  0.00  0.00    +0.000 A 
ATOM     30  N   UNL     1      47.498   6.561  21.711  0.00  0.00    +0.000 NA
ATOM     31  C   UNL     1      47.800   6.934  20.457  0.00  0.00    +0.000 A 
BRANCH  27  32
ATOM     32  O   UNL     1      49.351   3.926  19.065  0.00  0.00    +0.000 OA
ATOM     33  H   UNL     1      50.311   3.955  19.247  0.00  0.00    +0.000 HD
ENDBRANCH  27  32
ENDBRANCH  18  25
ENDBRANCH   1  20
TORSDOF 8
ENDMDL
MODEL 7
REMARK VINA RESULT:    -6.722      3.489      9.240
REMARK INTER + INTRA:         -10.908
REMARK INTER:                  -9.246
REMARK INTRA:                  -1.663
REMARK UNBOUND:                -1.239
REMARK  Name = 
REMARK  9 active torsions:
REMARK  status: ('A' for Active; 'I' for Inactive)
REMARK    1  A    between atoms: C_1  and  N_2
REMARK    2  A    between atoms: C_4  and  C_5
REMARK    3  A    between atoms: N_7  and  C_8
REMARK    4  A    between atoms: C_8  and  C_9
REMARK    5  A    between atoms: C_12  and  N_13
REMARK    6  A    between atoms: N_13  and  C_14
REMARK    7  A    between atoms: C_14  and  C_15
REMARK    8  A    between atoms: C_15  and  C_16
REMARK    9  A    between atoms: C_25  and  O_26
REMARK                            x       y       z     vdW  Elec       q    Type
REMARK                         _______ _______ _______ _____ _____    ______ ____
ROOT
ATOM      1  C   UNL     1      47.689   3.511  16.436  0.00  0.00    +0.000 C 
ENDROOT
BRANCH   1   2
ATOM      2  C   UNL     1      48.268   4.196  17.641  0.00  0.00    +0.000 A 
ATOM      3  C   UNL     1      49.617   4.029  17.964  0.00  0.00    +0.000 A 
ATOM      4  C   UNL     1      50.175   4.688  19.066  0.00  0.00    +0.000 A 
ATOM      5  C   UNL     1      49.399   5.493  19.904  0.00  0.00    +0.000 A 
ATOM      6  C   UNL     1      48.044   5.640  19.587  0.00  0.00    +0.000 A 
ATOM      7  C   UNL     1      47.481   5.004  18.470  0.00  0.00    +0.000 A 
BRANCH   5   8
ATOM      8  N   UNL     1      49.924   6.227  20.957  0.00  0.00    +0.000 N 
ATOM      9  H   UNL     1      50.522   5.739  21.614  0.00  0.00    +0.000 HD
BRANCH   8  10
ATOM     10  C   UNL     1      49.848   7.682  21.002  0.00  0.00    +0.000 C 
BRANCH  10  11
ATOM     11  C   UNL     1      50.655   8.325  19.876  0.00  0.00    +0.000 C 
BRANCH  11  12
ATOM     12  C   UNL     1      49.772   8.654  18.697  0.00  0.00    +0.000 A 
ATOM     13  C   UNL     1      50.005   8.090  17.442  0.00  0.00    +0.000 A 
ATOM     14  C   UNL     1      49.166   8.431  16.385  0.00  0.00    +0.000 A 
ATOM     15  C   UNL     1      48.124   9.326  16.599  0.00  0.00    +0.000 A 
ATOM     16  C   UNL     1      47.967   9.847  17.872  0.00  0.00    +0.000 A 
ATOM     17  N   UNL     1      48.768   9.537  18.916  0.00  0.00    +0.000 NA
ENDBRANCH  11  12
ENDBRANCH  10  11
ENDBRANCH   8  10
ENDBRANCH   5   8
ENDBRANCH   1   2
BRANCH   1  20
ATOM     18  C   UNL     1      46.818   4.186  14.245  0.00  0.00    +0.000 C 
ATOM     19  O   UNL     1      47.255   3.179  13.698  0.00  0.00    +0.000 OA
ATOM     20  N   UNL     1      46.983   4.440  15.585  0.00  0.00    +0.000 N 
ATOM     21  H   UNL     1      46.603   5.276  16.002  0.00  0.00    +0.000 HD
BRANCH  18  25
ATOM     22  C   UNL     1      45.369   8.530  12.222  0.00  0.00    +0.000 C 
ATOM     23  N   UNL     1      45.422   7.133  12.581  0.00  0.00    +0.000 N 
ATOM     24  C   UNL     1      46.363   6.552  13.393  0.00  0.00    +0.000 A 
ATOM     25  C   UNL     1      46.085   5.198  13.492  0.00  0.00    +0.000 A 
ATOM     26  C   UNL     1      44.909   4.964  12.701  0.00  0.00    +0.000 A 
ATOM     27  C   UNL     1      44.096   3.877  12.357  0.00  0.00    +0.000 A 
ATOM     28  N   UNL     1      43.036   4.044  11.552  0.00  0.00    +0.000 NA
ATOM     29  C   UNL     1      42.792   5.283  11.094  0.00  0.00    +0.000 A 
ATOM     30  N   UNL     1      43.484   6.411  11.342  0.00  0.00    +0.000 NA
ATOM     31  C   UNL     1      44.531   6.185  12.152  0.00  0.00    +0.000 A 
BRANCH  27  32
ATOM     32  O   UNL     1      44.301   2.591  12.796  0.00  0.00    +0.000 OA
ATOM     33  H   UNL     1      44.232   1.996  12.022  0.00  0.00    +0.000 HD
ENDBRANCH  27  32
ENDBRANCH  18  25
ENDBRANCH   1  20
TORSDOF 8
ENDMDL
MODEL 8
REMARK VINA RESULT:    -6.716      3.395      9.347
REMARK INTER + INTRA:         -10.899
REMARK INTER:                  -9.344
REMARK INTRA:                  -1.555
REMARK UNBOUND:                -1.239
REMARK  Name = 
REMARK  9 active torsions:
REMARK  status: ('A' for Active; 'I' for Inactive)
REMARK    1  A    between atoms: C_1  and  N_2
REMARK    2  A    between atoms: C_4  and  C_5
REMARK    3  A    between atoms: N_7  and  C_8
REMARK    4  A    between atoms: C_8  and  C_9
REMARK    5  A    between atoms: C_12  and  N_13
REMARK    6  A    between atoms: N_13  and  C_14
REMARK    7  A    between atoms: C_14  and  C_15
REMARK    8  A    between atoms: C_15  and  C_16
REMARK    9  A    between atoms: C_25  and  O_26
REMARK                            x       y       z     vdW  Elec       q    Type
REMARK                         _______ _______ _______ _____ _____    ______ ____
ROOT
ATOM      1  C   UNL     1      47.692   3.157  16.574  0.00  0.00    +0.000 C 
ENDROOT
BRANCH   1   2
ATOM      2  C   UNL     1      49.046   3.620  17.035  0.00  0.00    +0.000 A 
ATOM      3  C   UNL     1      50.035   2.687  17.356  0.00  0.00    +0.000 A 
ATOM      4  C   UNL     1      51.309   3.107  17.755  0.00  0.00    +0.000 A 
ATOM      5  C   UNL     1      51.622   4.462  17.891  0.00  0.00    +0.000 A 
ATOM      6  C   UNL     1      50.619   5.390  17.587  0.00  0.00    +0.000 A 
ATOM      7  C   UNL     1      49.347   4.981  17.162  0.00  0.00    +0.000 A 
BRANCH   5   8
ATOM      8  N   UNL     1      52.891   4.924  18.205  0.00  0.00    +0.000 N 
ATOM      9  H   UNL     1      53.196   4.834  19.168  0.00  0.00    +0.000 HD
BRANCH   8  10
ATOM     10  C   UNL     1      53.859   5.292  17.178  0.00  0.00    +0.000 C 
BRANCH  10  11
ATOM     11  C   UNL     1      55.221   4.649  17.432  0.00  0.00    +0.000 C 
BRANCH  11  12
ATOM     12  C   UNL     1      55.069   3.213  17.870  0.00  0.00    +0.000 A 
ATOM     13  C   UNL     1      54.958   2.182  16.937  0.00  0.00    +0.000 A 
ATOM     14  C   UNL     1      54.811   0.875  17.392  0.00  0.00    +0.000 A 
ATOM     15  C   UNL     1      54.772   0.627  18.758  0.00  0.00    +0.000 A 
ATOM     16  C   UNL     1      54.879   1.706  19.618  0.00  0.00    +0.000 A 
ATOM     17  N   UNL     1      55.019   2.986  19.205  0.00  0.00    +0.000 NA
ENDBRANCH  11  12
ENDBRANCH  10  11
ENDBRANCH   8  10
ENDBRANCH   5   8
ENDBRANCH   1   2
BRANCH   1  20
ATOM     18  C   UNL     1      46.911   3.960  14.392  0.00  0.00    +0.000 C 
ATOM     19  O   UNL     1      47.329   2.964  13.813  0.00  0.00    +0.000 OA
ATOM     20  N   UNL     1      47.045   4.148  15.747  0.00  0.00    +0.000 N 
ATOM     21  H   UNL     1      46.682   4.978  16.192  0.00  0.00    +0.000 HD
BRANCH  18  25
ATOM     22  C   UNL     1      45.633   8.452  12.587  0.00  0.00    +0.000 C 
ATOM     23  N   UNL     1      45.651   7.032  12.851  0.00  0.00    +0.000 N 
ATOM     24  C   UNL     1      46.533   6.385  13.679  0.00  0.00    +0.000 A 
ATOM     25  C   UNL     1      46.237   5.031  13.666  0.00  0.00    +0.000 A 
ATOM     26  C   UNL     1      45.112   4.868  12.789  0.00  0.00    +0.000 A 
ATOM     27  C   UNL     1      44.314   3.817  12.320  0.00  0.00    +0.000 A 
ATOM     28  N   UNL     1      43.309   4.053  11.463  0.00  0.00    +0.000 NA
ATOM     29  C   UNL     1      43.105   5.323  11.077  0.00  0.00    +0.000 A 
ATOM     30  N   UNL     1      43.790   6.423  11.445  0.00  0.00    +0.000 NA
ATOM     31  C   UNL     1      44.782   6.128  12.302  0.00  0.00    +0.000 A 
BRANCH  27  32
ATOM     32  O   UNL     1      44.479   2.502  12.680  0.00  0.00    +0.000 OA
ATOM     33  H   UNL     1      44.498   1.967  11.861  0.00  0.00    +0.000 HD
ENDBRANCH  27  32
ENDBRANCH  18  25
ENDBRANCH   1  20
TORSDOF 8
ENDMDL
MODEL 9
REMARK VINA RESULT:    -6.348      4.812      7.908
REMARK INTER + INTRA:         -10.371
REMARK INTER:                  -9.479
REMARK INTRA:                  -0.892
REMARK UNBOUND:                -1.239
REMARK  Name = 
REMARK  9 active torsions:
REMARK  status: ('A' for Active; 'I' for Inactive)
REMARK    1  A    between atoms: C_1  and  N_2
REMARK    2  A    between atoms: C_4  and  C_5
REMARK    3  A    between atoms: N_7  and  C_8
REMARK    4  A    between atoms: C_8  and  C_9
REMARK    5  A    between atoms: C_12  and  N_13
REMARK    6  A    between atoms: N_13  and  C_14
REMARK    7  A    between atoms: C_14  and  C_15
REMARK    8  A    between atoms: C_15  and  C_16
REMARK    9  A    between atoms: C_25  and  O_26
REMARK                            x       y       z     vdW  Elec       q    Type
REMARK                         _______ _______ _______ _____ _____    ______ ____
ROOT
ATOM      1  C   UNL     1      44.764   7.892  12.163  0.00  0.00    +0.000 C 
ENDROOT
BRANCH   1   2
ATOM      2  C   UNL     1      44.677   6.445  11.764  0.00  0.00    +0.000 A 
ATOM      3  C   UNL     1      43.637   6.006  10.941  0.00  0.00    +0.000 A 
ATOM      4  C   UNL     1      43.564   4.668  10.537  0.00  0.00    +0.000 A 
ATOM      5  C   UNL     1      44.493   3.721  10.976  0.00  0.00    +0.000 A 
ATOM      6  C   UNL     1      45.520   4.164  11.817  0.00  0.00    +0.000 A 
ATOM      7  C   UNL     1      45.617   5.508  12.208  0.00  0.00    +0.000 A 
BRANCH   5   8
ATOM      8  N   UNL     1      44.506   2.405  10.538  0.00  0.00    +0.000 N 
ATOM      9  H   UNL     1      44.298   1.684  11.220  0.00  0.00    +0.000 HD
BRANCH   8  10
ATOM     10  C   UNL     1      44.561   2.058   9.123  0.00  0.00    +0.000 C 
BRANCH  10  11
ATOM     11  C   UNL     1      45.850   1.316   8.774  0.00  0.00    +0.000 C 
BRANCH  11  12
ATOM     12  C   UNL     1      46.415   1.802   7.461  0.00  0.00    +0.000 A 
ATOM     13  C   UNL     1      46.236   3.121   7.044  0.00  0.00    +0.000 A 
ATOM     14  C   UNL     1      46.771   3.518   5.821  0.00  0.00    +0.000 A 
ATOM     15  C   UNL     1      47.462   2.596   5.045  0.00  0.00    +0.000 A 
ATOM     16  C   UNL     1      47.587   1.305   5.528  0.00  0.00    +0.000 A 
ATOM     17  N   UNL     1      47.076   0.890   6.709  0.00  0.00    +0.000 NA
ENDBRANCH  11  12
ENDBRANCH  10  11
ENDBRANCH   8  10
ENDBRANCH   5   8
ENDBRANCH   1   2
BRANCH   1  20
ATOM     18  C   UNL     1      44.232  10.119  11.285  0.00  0.00    +0.000 C 
ATOM     19  O   UNL     1      44.822  10.682  12.201  0.00  0.00    +0.000 OA
ATOM     20  N   UNL     1      44.146   8.752  11.182  0.00  0.00    +0.000 N 
ATOM     21  H   UNL     1      43.659   8.323  10.410  0.00  0.00    +0.000 HD
BRANCH  18  25
ATOM     22  C   UNL     1      43.186  12.347   6.926  0.00  0.00    +0.000 C 
ATOM     23  N   UNL     1      43.086  11.883   8.289  0.00  0.00    +0.000 N 
ATOM     24  C   UNL     1      44.027  11.132   8.948  0.00  0.00    +0.000 A 
ATOM     25  C   UNL     1      43.569  10.879  10.231  0.00  0.00    +0.000 A 
ATOM     26  C   UNL     1      42.290  11.522  10.342  0.00  0.00    +0.000 A 
ATOM     27  C   UNL     1      41.294  11.678  11.314  0.00  0.00    +0.000 A 
ATOM     28  N   UNL     1      40.178  12.372  11.044  0.00  0.00    +0.000 NA
ATOM     29  C   UNL     1      40.058  12.904   9.817  0.00  0.00    +0.000 A 
ATOM     30  N   UNL     1      40.930  12.835   8.793  0.00  0.00    +0.000 NA
ATOM     31  C   UNL     1      42.025  12.130   9.119  0.00  0.00    +0.000 A 
BRANCH  27  32
ATOM     32  O   UNL     1      41.365  11.155  12.583  0.00  0.00    +0.000 OA
ATOM     33  H   UNL     1      41.082  11.850  13.210  0.00  0.00    +0.000 HD
ENDBRANCH  27  32
ENDBRANCH  18  25
ENDBRANCH   1  20
TORSDOF 8
ENDMDL
