MODEL 1
REMARK VINA RESULT:    -7.890      0.000      0.000
REMARK INTER + INTRA:         -11.806
REMARK INTER:                 -10.658
REMARK INTRA:                  -1.148
REMARK UNBOUND:                -1.148
REMARK  Name = 
REMARK  7 active torsions:
REMARK  status: ('A' for Active; 'I' for Inactive)
REMARK    1  A    between atoms: C_1  and  O_2
REMARK    2  A    between atoms: O_2  and  C_3
REMARK    3  A    between atoms: C_7  and  C_8
REMARK    4  A    between atoms: C_8  and  C_9
REMARK    5  A    between atoms: C_12  and  C_13
REMARK    6  A    between atoms: C_13  and  N_14
REMARK    7  A    between atoms: C_15  and  C_17
REMARK                            x       y       z     vdW  Elec       q    Type
REMARK                         _______ _______ _______ _____ _____    ______ ____
ROOT
ATOM      1  C   UNL     1      47.363   8.259  13.605  0.00  0.00    +0.000 C 
ENDROOT
BRANCH   1   5
ATOM      2  C   UNL     1      44.668   5.878  11.171  0.00  0.00    +0.000 A 
ATOM      3  C   UNL     1      45.879   5.341  11.631  0.00  0.00    +0.000 A 
ATOM      4  C   UNL     1      46.761   6.111  12.400  0.00  0.00    +0.000 A 
ATOM      5  C   UNL     1      46.446   7.434  12.735  0.00  0.00    +0.000 A 
ATOM      6  C   UNL     1      45.259   7.985  12.236  0.00  0.00    +0.000 A 
ATOM      7  C   UNL     1      44.374   7.214  11.474  0.00  0.00    +0.000 A 
BRANCH   2   8
ATOM      8  C   UNL     1      43.681   5.017  10.407  0.00  0.00    +0.000 C 
BRANCH   8  13
ATOM      9  C   UNL     1      45.818   3.449   7.657  0.00  0.00    +0.000 A 
ATOM     10  C   UNL     1      45.813   2.106   8.032  0.00  0.00    +0.000 A 
ATOM     11  C   UNL     1      45.061   1.691   9.132  0.00  0.00    +0.000 A 
ATOM     12  C   UNL     1      44.331   2.619   9.881  0.00  0.00    +0.000 A 
ATOM     13  C   UNL     1      44.353   3.976   9.536  0.00  0.00    +0.000 A 
ATOM     14  C   UNL     1      45.077   4.371   8.400  0.00  0.00    +0.000 A 
BRANCH   9  16
ATOM     15  C   UNL     1      47.014   3.078   5.637  0.00  0.00    +0.000 C 
ATOM     16  O   UNL     1      46.510   3.989   6.606  0.00  0.00    +0.000 OA
ENDBRANCH   9  16
ENDBRANCH   8  13
ENDBRANCH   2   8
ENDBRANCH   1   5
BRANCH   1  17
ATOM     17  N   UNL     1      47.739   7.549  14.800  0.00  0.00    +0.000 N 
ATOM     18  C   UNL     1      48.976   6.963  14.926  0.00  0.00    +0.000 C 
ATOM     19  O   UNL     1      49.841   7.058  14.061  0.00  0.00    +0.000 OA
ATOM     20  H   UNL     1      46.981   7.243  15.399  0.00  0.00    +0.000 HD
BRANCH  18  21
ATOM     21  C   UNL     1      49.230   6.280  16.203  0.00  0.00    +0.000 A 
ATOM     22  C   UNL     1      50.215   6.752  17.059  0.00  0.00    +0.000 A 
ATOM     23  S   UNL     1      50.324   5.878  18.520  0.00  0.00    +0.000 S 
ATOM     24  C   UNL     1      49.096   4.805  18.036  0.00  0.00    +0.000 A 
ATOM     25  N   UNL     1      48.705   3.777  18.837  0.00  0.00    +0.000 NA
ATOM     26  C   UNL     1      47.781   3.031  18.333  0.00  0.00    +0.000 A 
ATOM     27  N   UNL     1      47.211   3.216  17.099  0.00  0.00    +0.000 N 
ATOM     28  C   UNL     1      47.559   4.246  16.268  0.00  0.00    +0.000 A 
ATOM     29  O   UNL     1      47.008   4.403  15.179  0.00  0.00    +0.000 OA
ATOM     30  C   UNL     1      48.599   5.118  16.783  0.00  0.00    +0.000 A 
ATOM     31  H   UNL     1      46.485   2.599  16.765  0.00  0.00    +0.000 HD
ENDBRANCH  18  21
ENDBRANCH   1  17
TORSDOF 6
ENDMDL
MODEL 2
REMARK VINA RESULT:    -7.415      2.065      3.253
REMARK INTER + INTRA:         -11.164
REMARK INTER:                 -10.682
REMARK INTRA:                  -0.482
REMARK UNBOUND:                -1.148
REMARK  Name = 
REMARK  7 active torsions:
REMARK  status: ('A' for Active; 'I' for Inactive)
REMARK    1  A    between atoms: C_1  and  O_2
REMARK    2  A    between atoms: O_2  and  C_3
REMARK    3  A    between atoms: C_7  and  C_8
REMARK    4  A    between atoms: C_8  and  C_9
REMARK    5  A    between atoms: C_12  and  C_13
REMARK    6  A    between atoms: C_13  and  N_14
REMARK    7  A    between atoms: C_15  and  C_17
REMARK                            x       y       z     vdW  Elec       q    Type
REMARK                         _______ _______ _______ _____ _____    ______ ____
ROOT
ATOM      1  C   UNL     1      44.339   4.592  12.978  0.00  0.00    +0.000 C 
ENDROOT
BRANCH   1   5
ATOM      2  C   UNL     1      45.549   4.325   8.817  0.00  0.00    +0.000 A 
ATOM      3  C   UNL     1      44.686   3.370   9.373  0.00  0.00    +0.000 A 
ATOM      4  C   UNL     1      44.309   3.440  10.720  0.00  0.00    +0.000 A 
ATOM      5  C   UNL     1      44.778   4.476  11.540  0.00  0.00    +0.000 A 
ATOM      6  C   UNL     1      45.676   5.402  10.996  0.00  0.00    +0.000 A 
ATOM      7  C   UNL     1      46.048   5.337   9.648  0.00  0.00    +0.000 A 
BRANCH   2   8
ATOM      8  C   UNL     1      45.891   4.291   7.340  0.00  0.00    +0.000 C 
BRANCH   8  13
ATOM      9  C   UNL     1      46.883   1.418   5.026  0.00  0.00    +0.000 A 
ATOM     10  C   UNL     1      47.412   0.501   5.933  0.00  0.00    +0.000 A 
ATOM     11  C   UNL     1      47.384   0.775   7.301  0.00  0.00    +0.000 A 
ATOM     12  C   UNL     1      46.853   1.980   7.770  0.00  0.00    +0.000 A 
ATOM     13  C   UNL     1      46.348   2.926   6.870  0.00  0.00    +0.000 A 
ATOM     14  C   UNL     1      46.342   2.616   5.500  0.00  0.00    +0.000 A 
BRANCH   9  16
ATOM     15  C   UNL     1      47.010  -0.041   3.155  0.00  0.00    +0.000 C 
ATOM     16  O   UNL     1      46.848   1.277   3.665  0.00  0.00    +0.000 OA
ENDBRANCH   9  16
ENDBRANCH   8  13
ENDBRANCH   2   8
ENDBRANCH   1   5
BRANCH   1  17
ATOM     17  N   UNL     1      45.378   5.154  13.804  0.00  0.00    +0.000 N 
ATOM     18  C   UNL     1      46.451   4.401  14.216  0.00  0.00    +0.000 C 
ATOM     19  O   UNL     1      46.615   3.237  13.862  0.00  0.00    +0.000 OA
ATOM     20  H   UNL     1      45.144   6.001  14.307  0.00  0.00    +0.000 HD
BRANCH  18  21
ATOM     21  C   UNL     1      47.440   5.103  15.046  0.00  0.00    +0.000 A 
ATOM     22  C   UNL     1      48.187   6.142  14.507  0.00  0.00    +0.000 A 
ATOM     23  S   UNL     1      49.235   6.882  15.632  0.00  0.00    +0.000 S 
ATOM     24  C   UNL     1      48.767   5.805  16.862  0.00  0.00    +0.000 A 
ATOM     25  N   UNL     1      49.316   5.879  18.106  0.00  0.00    +0.000 NA
ATOM     26  C   UNL     1      48.884   4.986  18.932  0.00  0.00    +0.000 A 
ATOM     27  N   UNL     1      47.955   4.023  18.629  0.00  0.00    +0.000 N 
ATOM     28  C   UNL     1      47.363   3.923  17.399  0.00  0.00    +0.000 A 
ATOM     29  O   UNL     1      46.511   3.067  17.167  0.00  0.00    +0.000 OA
ATOM     30  C   UNL     1      47.814   4.903  16.426  0.00  0.00    +0.000 A 
ATOM     31  H   UNL     1      47.654   3.356  19.324  0.00  0.00    +0.000 HD
ENDBRANCH  18  21
ENDBRANCH   1  17
TORSDOF 6
ENDMDL
MODEL 3
REMARK VINA RESULT:    -7.397      1.639      2.061
REMARK INTER + INTRA:         -11.140
REMARK INTER:                 -10.166
REMARK INTRA:                  -0.973
REMARK UNBOUND:                -1.148
REMARK  Name = 
REMARK  7 active torsions:
REMARK  status: ('A' for Active; 'I' for Inactive)
REMARK    1  A    between atoms: C_1  and  O_2
REMARK    2  A    between atoms: O_2  and  C_3
REMARK    3  A    between atoms: C_7  and  C_8
REMARK    4  A    between atoms: C_8  and  C_9
REMARK    5  A    between atoms: C_12  and  C_13
REMARK    6  A    between atoms: C_13  and  N_14
REMARK    7  A    between atoms: C_15  and  C_17
REMARK                            x       y       z     vdW  Elec       q    Type
REMARK                         _______ _______ _______ _____ _____    ______ ____
ROOT
ATOM      1  C   UNL     1      48.620   7.105  13.901  0.00  0.00    +0.000 C 
ENDROOT
BRANCH   1   5
ATOM      2  C   UNL     1      45.191   5.635  11.681  0.00  0.00    +0.000 A 
ATOM      3  C   UNL     1      45.695   6.923  11.447  0.00  0.00    +0.000 A 
ATOM      4  C   UNL     1      46.789   7.409  12.174  0.00  0.00    +0.000 A 
ATOM      5  C   UNL     1      47.410   6.613  13.146  0.00  0.00    +0.000 A 
ATOM      6  C   UNL     1      46.877   5.346  13.413  0.00  0.00    +0.000 A 
ATOM      7  C   UNL     1      45.789   4.856  12.681  0.00  0.00    +0.000 A 
BRANCH   2   8
ATOM      8  C   UNL     1      44.058   5.083  10.837  0.00  0.00    +0.000 C 
BRANCH   8  13
ATOM      9  C   UNL     1      45.816   3.490   7.843  0.00  0.00    +0.000 A 
ATOM     10  C   UNL     1      45.595   2.135   8.081  0.00  0.00    +0.000 A 
ATOM     11  C   UNL     1      44.817   1.733   9.167  0.00  0.00    +0.000 A 
ATOM     12  C   UNL     1      44.277   2.682  10.040  0.00  0.00    +0.000 A 
ATOM     13  C   UNL     1      44.517   4.046   9.835  0.00  0.00    +0.000 A 
ATOM     14  C   UNL     1      45.264   4.436   8.712  0.00  0.00    +0.000 A 
BRANCH   9  16
ATOM     15  C   UNL     1      46.854   3.154   5.733  0.00  0.00    +0.000 C 
ATOM     16  O   UNL     1      46.557   4.020   6.821  0.00  0.00    +0.000 OA
ENDBRANCH   9  16
ENDBRANCH   8  13
ENDBRANCH   2   8
ENDBRANCH   1   5
BRANCH   1  17
ATOM     17  N   UNL     1      48.360   7.200  15.315  0.00  0.00    +0.000 N 
ATOM     18  C   UNL     1      49.256   6.722  16.242  0.00  0.00    +0.000 C 
ATOM     19  O   UNL     1      50.341   6.244  15.925  0.00  0.00    +0.000 OA
ATOM     20  H   UNL     1      47.395   7.346  15.586  0.00  0.00    +0.000 HD
BRANCH  18  21
ATOM     21  C   UNL     1      48.867   6.894  17.649  0.00  0.00    +0.000 A 
ATOM     22  C   UNL     1      48.496   8.146  18.120  0.00  0.00    +0.000 A 
ATOM     23  S   UNL     1      48.014   8.144  19.757  0.00  0.00    +0.000 S 
ATOM     24  C   UNL     1      48.338   6.481  19.908  0.00  0.00    +0.000 A 
ATOM     25  N   UNL     1      48.153   5.835  21.091  0.00  0.00    +0.000 NA
ATOM     26  C   UNL     1      48.459   4.581  21.067  0.00  0.00    +0.000 A 
ATOM     27  N   UNL     1      48.936   3.912  19.968  0.00  0.00    +0.000 N 
ATOM     28  C   UNL     1      49.119   4.517  18.753  0.00  0.00    +0.000 A 
ATOM     29  O   UNL     1      49.519   3.883  17.778  0.00  0.00    +0.000 OA
ATOM     30  C   UNL     1      48.792   5.931  18.723  0.00  0.00    +0.000 A 
ATOM     31  H   UNL     1      49.151   2.927  20.013  0.00  0.00    +0.000 HD
ENDBRANCH  18  21
ENDBRANCH   1  17
TORSDOF 6
ENDMDL
MODEL 4
REMARK VINA RESULT:    -7.342      2.224      2.847
REMARK INTER + INTRA:         -11.065
REMARK INTER:                  -9.863
REMARK INTRA:                  -1.202
REMARK UNBOUND:                -1.148
REMARK  Name = 
REMARK  7 active torsions:
REMARK  status: ('A' for Active; 'I' for Inactive)
REMARK    1  A    between atoms: C_1  and  O_2
REMARK    2  A    between atoms: O_2  and  C_3
REMARK    3  A    between atoms: C_7  and  C_8
REMARK    4  A    between atoms: C_8  and  C_9
REMARK    5  A    between atoms: C_12  and  C_13
REMARK    6  A    between atoms: C_13  and  N_14
REMARK    7  A    between atoms: C_15  and  C_17
REMARK                            x       y       z     vdW  Elec       q    Type
REMARK                         _______ _______ _______ _____ _____    ______ ____
ROOT
ATOM      1  C   UNL     1      48.463   6.953  14.053  0.00  0.00    +0.000 C 
ENDROOT
BRANCH   1   5
ATOM      2  C   UNL     1      45.152   5.552  11.618  0.00  0.00    +0.000 A 
ATOM      3  C   UNL     1      45.628   6.865  11.491  0.00  0.00    +0.000 A 
ATOM      4  C   UNL     1      46.682   7.328  12.288  0.00  0.00    +0.000 A 
ATOM      5  C   UNL     1      47.293   6.483  13.224  0.00  0.00    +0.000 A 
ATOM      6  C   UNL     1      46.788   5.187  13.384  0.00  0.00    +0.000 A 
ATOM      7  C   UNL     1      45.739   4.721  12.582  0.00  0.00    +0.000 A 
BRANCH   2   8
ATOM      8  C   UNL     1      44.064   5.031  10.699  0.00  0.00    +0.000 C 
BRANCH   8  13
ATOM      9  C   UNL     1      45.869   3.455   7.724  0.00  0.00    +0.000 A 
ATOM     10  C   UNL     1      45.721   2.097   7.997  0.00  0.00    +0.000 A 
ATOM     11  C   UNL     1      44.977   1.683   9.103  0.00  0.00    +0.000 A 
ATOM     12  C   UNL     1      44.398   2.624   9.959  0.00  0.00    +0.000 A 
ATOM     13  C   UNL     1      44.566   3.993   9.717  0.00  0.00    +0.000 A 
ATOM     14  C   UNL     1      45.279   4.393   8.575  0.00  0.00    +0.000 A 
BRANCH   9  16
ATOM     15  C   UNL     1      47.007   3.096   5.669  0.00  0.00    +0.000 C 
ATOM     16  O   UNL     1      46.570   3.996   6.680  0.00  0.00    +0.000 OA
ENDBRANCH   9  16
ENDBRANCH   8  13
ENDBRANCH   2   8
ENDBRANCH   1   5
BRANCH   1  17
ATOM     17  N   UNL     1      48.190   6.845  15.463  0.00  0.00    +0.000 N 
ATOM     18  C   UNL     1      49.161   6.451  16.353  0.00  0.00    +0.000 C 
ATOM     19  O   UNL     1      50.318   6.225  16.009  0.00  0.00    +0.000 OA
ATOM     20  H   UNL     1      47.215   6.775  15.729  0.00  0.00    +0.000 HD
BRANCH  18  21
ATOM     21  C   UNL     1      48.748   6.394  17.763  0.00  0.00    +0.000 A 
ATOM     22  C   UNL     1      48.841   5.201  18.466  0.00  0.00    +0.000 A 
ATOM     23  S   UNL     1      48.381   5.338  20.104  0.00  0.00    +0.000 S 
ATOM     24  C   UNL     1      47.989   6.982  19.914  0.00  0.00    +0.000 A 
ATOM     25  N   UNL     1      47.503   7.712  20.955  0.00  0.00    +0.000 NA
ATOM     26  C   UNL     1      47.228   8.939  20.662  0.00  0.00    +0.000 A 
ATOM     27  N   UNL     1      47.392   9.504  19.423  0.00  0.00    +0.000 N 
ATOM     28  C   UNL     1      47.895   8.814  18.353  0.00  0.00    +0.000 A 
ATOM     29  O   UNL     1      48.059   9.357  17.262  0.00  0.00    +0.000 OA
ATOM     30  C   UNL     1      48.220   7.425  18.624  0.00  0.00    +0.000 A 
ATOM     31  H   UNL     1      47.164  10.474  19.260  0.00  0.00    +0.000 HD
ENDBRANCH  18  21
ENDBRANCH   1  17
TORSDOF 6
ENDMDL
MODEL 5
REMARK VINA RESULT:    -6.958      3.644      8.274
REMARK INTER + INTRA:         -10.546
REMARK INTER:                  -9.402
REMARK INTRA:                  -1.145
REMARK UNBOUND:                -1.148
REMARK  Name = 
REMARK  7 active torsions:
REMARK  status: ('A' for Active; 'I' for Inactive)
REMARK    1  A    between atoms: C_1  and  O_2
REMARK    2  A    between atoms: O_2  and  C_3
REMARK    3  A    between atoms: C_7  and  C_8
REMARK    4  A    between atoms: C_8  and  C_9
REMARK    5  A    between atoms: C_12  and  C_13
REMARK    6  A    between atoms: C_13  and  N_14
REMARK    7  A    between atoms: C_15  and  C_17
REMARK                            x       y       z     vdW  Elec       q    Type
REMARK                         _______ _______ _______ _____ _____    ______ ____
ROOT
ATOM      1  C   UNL     1      48.531   8.343  14.902  0.00  0.00    +0.000 C 
ENDROOT
BRANCH   1   5
ATOM      2  C   UNL     1      51.027   6.160  17.705  0.00  0.00    +0.000 A 
ATOM      3  C   UNL     1      49.739   6.578  18.070  0.00  0.00    +0.000 A 
ATOM      4  C   UNL     1      48.938   7.299  17.176  0.00  0.00    +0.000 A 
ATOM      5  C   UNL     1      49.403   7.611  15.892  0.00  0.00    +0.000 A 
ATOM      6  C   UNL     1      50.706   7.235  15.544  0.00  0.00    +0.000 A 
ATOM      7  C   UNL     1      51.505   6.507  16.434  0.00  0.00    +0.000 A 
BRANCH   2   8
ATOM      8  C   UNL     1      51.861   5.312  18.645  0.00  0.00    +0.000 C 
BRANCH   8  13
ATOM      9  C   UNL     1      50.827   1.994  17.059  0.00  0.00    +0.000 A 
ATOM     10  C   UNL     1      51.914   1.182  17.381  0.00  0.00    +0.000 A 
ATOM     11  C   UNL     1      52.949   1.681  18.171  0.00  0.00    +0.000 A 
ATOM     12  C   UNL     1      52.920   3.004  18.623  0.00  0.00    +0.000 A 
ATOM     13  C   UNL     1      51.852   3.842  18.281  0.00  0.00    +0.000 A 
ATOM     14  C   UNL     1      50.796   3.312  17.524  0.00  0.00    +0.000 A 
BRANCH   9  16
ATOM     15  C   UNL     1      48.555   2.383  16.482  0.00  0.00    +0.000 C 
ATOM     16  O   UNL     1      49.750   1.634  16.294  0.00  0.00    +0.000 OA
ENDBRANCH   9  16
ENDBRANCH   8  13
ENDBRANCH   2   8
ENDBRANCH   1   5
BRANCH   1  17
ATOM     17  N   UNL     1      47.498   7.490  14.372  0.00  0.00    +0.000 N 
ATOM     18  C   UNL     1      47.719   6.697  13.271  0.00  0.00    +0.000 C 
ATOM     19  O   UNL     1      48.812   6.629  12.716  0.00  0.00    +0.000 OA
ATOM     20  H   UNL     1      46.548   7.714  14.640  0.00  0.00    +0.000 HD
BRANCH  18  21
ATOM     21  C   UNL     1      46.582   5.869  12.845  0.00  0.00    +0.000 A 
ATOM     22  C   UNL     1      46.622   4.492  13.017  0.00  0.00    +0.000 A 
ATOM     23  S   UNL     1      45.191   3.702  12.527  0.00  0.00    +0.000 S 
ATOM     24  C   UNL     1      44.490   5.166  12.017  0.00  0.00    +0.000 A 
ATOM     25  N   UNL     1      43.247   5.194  11.466  0.00  0.00    +0.000 NA
ATOM     26  C   UNL     1      42.851   6.368  11.104  0.00  0.00    +0.000 A 
ATOM     27  N   UNL     1      43.586   7.519  11.242  0.00  0.00    +0.000 N 
ATOM     28  C   UNL     1      44.832   7.541  11.808  0.00  0.00    +0.000 A 
ATOM     29  O   UNL     1      45.453   8.593  11.945  0.00  0.00    +0.000 OA
ATOM     30  C   UNL     1      45.330   6.244  12.232  0.00  0.00    +0.000 A 
ATOM     31  H   UNL     1      43.215   8.410  10.945  0.00  0.00    +0.000 HD
ENDBRANCH  18  21
ENDBRANCH   1  17
TORSDOF 6
ENDMDL
MODEL 6
REMARK VINA RESULT:    -6.835      2.525      3.626
REMARK INTER + INTRA:         -10.381
REMARK INTER:                  -9.228
REMARK INTRA:                  -1.153
REMARK UNBOUND:                -1.148
REMARK  Name = 
REMARK  7 active torsions:
REMARK  status: ('A' for Active; 'I' for Inactive)
REMARK    1  A    between atoms: C_1  and  O_2
REMARK    2  A    between atoms: O_2  and  C_3
REMARK    3  A    between atoms: C_7  and  C_8
REMARK    4  A    between atoms: C_8  and  C_9
REMARK    5  A    between atoms: C_12  and  C_13
REMARK    6  A    between atoms: C_13  and  N_14
REMARK    7  A    between atoms: C_15  and  C_17
REMARK                            x       y       z     vdW  Elec       q    Type
REMARK                         _______ _______ _______ _____ _____    ______ ____
ROOT
ATOM      1  C   UNL     1      48.853   7.603  16.180  0.00  0.00    +0.000 C 
ENDROOT
BRANCH   1   5
ATOM      2  C   UNL     1      47.266   6.717  12.237  0.00  0.00    +0.000 A 
ATOM      3  C   UNL     1      47.334   5.720  13.221  0.00  0.00    +0.000 A 
ATOM      4  C   UNL     1      47.863   5.996  14.488  0.00  0.00    +0.000 A 
ATOM      5  C   UNL     1      48.327   7.279  14.803  0.00  0.00    +0.000 A 
ATOM      6  C   UNL     1      48.302   8.262  13.806  0.00  0.00    +0.000 A 
ATOM      7  C   UNL     1      47.766   7.990  12.542  0.00  0.00    +0.000 A 
BRANCH   2   8
ATOM      8  C   UNL     1      46.619   6.436  10.894  0.00  0.00    +0.000 C 
BRANCH   8  13
ATOM      9  C   UNL     1      43.871   3.784  10.850  0.00  0.00    +0.000 A 
ATOM     10  C   UNL     1      42.815   4.468  11.450  0.00  0.00    +0.000 A 
ATOM     11  C   UNL     1      42.963   5.810  11.805  0.00  0.00    +0.000 A 
ATOM     12  C   UNL     1      44.177   6.469  11.588  0.00  0.00    +0.000 A 
ATOM     13  C   UNL     1      45.257   5.786  11.017  0.00  0.00    +0.000 A 
ATOM     14  C   UNL     1      45.078   4.450  10.624  0.00  0.00    +0.000 A 
BRANCH   9  16
ATOM     15  C   UNL     1      44.529   2.168   9.238  0.00  0.00    +0.000 C 
ATOM     16  O   UNL     1      43.861   2.473  10.456  0.00  0.00    +0.000 OA
ENDBRANCH   9  16
ENDBRANCH   8  13
ENDBRANCH   2   8
ENDBRANCH   1   5
BRANCH   1  17
ATOM     17  N   UNL     1      49.918   6.713  16.563  0.00  0.00    +0.000 N 
ATOM     18  C   UNL     1      49.779   5.840  17.617  0.00  0.00    +0.000 C 
ATOM     19  O   UNL     1      48.732   5.731  18.248  0.00  0.00    +0.000 OA
ATOM     20  H   UNL     1      50.847   6.956  16.239  0.00  0.00    +0.000 HD
BRANCH  18  21
ATOM     21  C   UNL     1      50.941   4.983  17.891  0.00  0.00    +0.000 A 
ATOM     22  C   UNL     1      52.095   5.531  18.435  0.00  0.00    +0.000 A 
ATOM     23  S   UNL     1      53.315   4.378  18.746  0.00  0.00    +0.000 S 
ATOM     24  C   UNL     1      52.364   3.118  18.114  0.00  0.00    +0.000 A 
ATOM     25  N   UNL     1      52.834   1.842  18.063  0.00  0.00    +0.000 NA
ATOM     26  C   UNL     1      52.015   0.993  17.538  0.00  0.00    +0.000 A 
ATOM     27  N   UNL     1      50.767   1.303  17.058  0.00  0.00    +0.000 N 
ATOM     28  C   UNL     1      50.246   2.568  17.107  0.00  0.00    +0.000 A 
ATOM     29  O   UNL     1      49.112   2.808  16.695  0.00  0.00    +0.000 OA
ATOM     30  C   UNL     1      51.127   3.566  17.686  0.00  0.00    +0.000 A 
ATOM     31  H   UNL     1      50.171   0.590  16.665  0.00  0.00    +0.000 HD
ENDBRANCH  18  21
ENDBRANCH   1  17
TORSDOF 6
ENDMDL
MODEL 7
REMARK VINA RESULT:    -6.828      4.414      9.456
REMARK INTER + INTRA:         -10.371
REMARK INTER:                  -9.562
REMARK INTRA:                  -0.809
REMARK UNBOUND:                -1.148
REMARK  Name = 
REMARK  7 active torsions:
REMARK  status: ('A' for Active; 'I' for Inactive)
REMARK    1  A    between atoms: C_1  and  O_2
REMARK    2  A    between atoms: O_2  and  C_3
REMARK    3  A    between atoms: C_7  and  C_8
REMARK    4  A    between atoms: C_8  and  C_9
REMARK    5  A    between atoms: C_12  and  C_13
REMARK    6  A    between atoms: C_13  and  N_14
REMARK    7  A    between atoms: C_15  and  C_17
REMARK                            x       y       z     vdW  Elec       q    Type
REMARK                         _______ _______ _______ _____ _____    ______ ____
ROOT
ATOM      1  C   UNL     1      47.295   3.632  16.760  0.00  0.00    +0.000 C 
ENDROOT
BRANCH   1   5
ATOM      2  C   UNL     1      51.504   4.281  17.607  0.00  0.00    +0.000 A 
ATOM      3  C   UNL     1      50.961   2.988  17.630  0.00  0.00    +0.000 A 
ATOM      4  C   UNL     1      49.601   2.775  17.377  0.00  0.00    +0.000 A 
ATOM      5  C   UNL     1      48.752   3.852  17.084  0.00  0.00    +0.000 A 
ATOM      6  C   UNL     1      49.285   5.147  17.108  0.00  0.00    +0.000 A 
ATOM      7  C   UNL     1      50.646   5.360  17.353  0.00  0.00    +0.000 A 
BRANCH   2   8
ATOM      8  C   UNL     1      52.992   4.499  17.803  0.00  0.00    +0.000 C 
BRANCH   8  13
ATOM      9  C   UNL     1      54.841   1.202  18.351  0.00  0.00    +0.000 A 
ATOM     10  C   UNL     1      55.153   1.281  19.707  0.00  0.00    +0.000 A 
ATOM     11  C   UNL     1      54.706   2.364  20.466  0.00  0.00    +0.000 A 
ATOM     12  C   UNL     1      53.967   3.389  19.868  0.00  0.00    +0.000 A 
ATOM     13  C   UNL     1      53.674   3.341  18.500  0.00  0.00    +0.000 A 
ATOM     14  C   UNL     1      54.092   2.223  17.760  0.00  0.00    +0.000 A 
BRANCH   9  16
ATOM     15  C   UNL     1      54.261  -0.194  16.518  0.00  0.00    +0.000 C 
ATOM     16  O   UNL     1      55.217   0.203  17.494  0.00  0.00    +0.000 OA
ENDBRANCH   9  16
ENDBRANCH   8  13
ENDBRANCH   2   8
ENDBRANCH   1   5
BRANCH   1  17
ATOM     17  N   UNL     1      46.827   4.566  15.768  0.00  0.00    +0.000 N 
ATOM     18  C   UNL     1      46.885   4.274  14.426  0.00  0.00    +0.000 C 
ATOM     19  O   UNL     1      47.281   3.192  14.003  0.00  0.00    +0.000 OA
ATOM     20  H   UNL     1      46.741   5.530  16.063  0.00  0.00    +0.000 HD
BRANCH  18  21
ATOM     21  C   UNL     1      46.363   5.313  13.526  0.00  0.00    +0.000 A 
ATOM     22  C   UNL     1      47.139   6.423  13.224  0.00  0.00    +0.000 A 
ATOM     23  S   UNL     1      46.401   7.489  12.115  0.00  0.00    +0.000 S 
ATOM     24  C   UNL     1      44.997   6.531  12.042  0.00  0.00    +0.000 A 
ATOM     25  N   UNL     1      43.938   6.896  11.270  0.00  0.00    +0.000 NA
ATOM     26  C   UNL     1      42.933   6.088  11.329  0.00  0.00    +0.000 A 
ATOM     27  N   UNL     1      42.889   4.947  12.090  0.00  0.00    +0.000 N 
ATOM     28  C   UNL     1      43.937   4.531  12.866  0.00  0.00    +0.000 A 
ATOM     29  O   UNL     1      43.878   3.488  13.514  0.00  0.00    +0.000 OA
ATOM     30  C   UNL     1      45.096   5.406  12.841  0.00  0.00    +0.000 A 
ATOM     31  H   UNL     1      42.073   4.352  12.087  0.00  0.00    +0.000 HD
ENDBRANCH  18  21
ENDBRANCH   1  17
TORSDOF 6
ENDMDL
MODEL 8
REMARK VINA RESULT:    -6.785      3.524      4.848
REMARK INTER + INTRA:         -10.313
REMARK INTER:                  -9.305
REMARK INTRA:                  -1.008
REMARK UNBOUND:                -1.148
REMARK  Name = 
REMARK  7 active torsions:
REMARK  status: ('A' for Active; 'I' for Inactive)
REMARK    1  A    between atoms: C_1  and  O_2
REMARK    2  A    between atoms: O_2  and  C_3
REMARK    3  A    between atoms: C_7  and  C_8
REMARK    4  A    between atoms: C_8  and  C_9
REMARK    5  A    between atoms: C_12  and  C_13
REMARK    6  A    between atoms: C_13  and  N_14
REMARK    7  A    between atoms: C_15  and  C_17
REMARK                            x       y       z     vdW  Elec       q    Type
REMARK                         _______ _______ _______ _____ _____    ______ ____
ROOT
ATOM      1  C   UNL     1      48.786   4.843  17.534  0.00  0.00    +0.000 C 
ENDROOT
BRANCH   1   5
ATOM      2  C   UNL     1      47.238   5.804  13.593  0.00  0.00    +0.000 A 
ATOM      3  C   UNL     1      48.113   6.680  14.250  0.00  0.00    +0.000 A 
ATOM      4  C   UNL     1      48.600   6.384  15.530  0.00  0.00    +0.000 A 
ATOM      5  C   UNL     1      48.230   5.198  16.177  0.00  0.00    +0.000 A 
ATOM      6  C   UNL     1      47.319   4.346  15.541  0.00  0.00    +0.000 A 
ATOM      7  C   UNL     1      46.838   4.637  14.259  0.00  0.00    +0.000 A 
BRANCH   2   8
ATOM      8  C   UNL     1      46.776   6.089  12.177  0.00  0.00    +0.000 C 
BRANCH   8  13
ATOM      9  C   UNL     1      43.921   4.011  10.720  0.00  0.00    +0.000 A 
ATOM     10  C   UNL     1      42.847   4.426  11.505  0.00  0.00    +0.000 A 
ATOM     11  C   UNL     1      43.025   5.429  12.459  0.00  0.00    +0.000 A 
ATOM     12  C   UNL     1      44.283   6.006  12.653  0.00  0.00    +0.000 A 
ATOM     13  C   UNL     1      45.379   5.577  11.895  0.00  0.00    +0.000 A 
ATOM     14  C   UNL     1      45.175   4.599  10.908  0.00  0.00    +0.000 A 
BRANCH   9  16
ATOM     15  C   UNL     1      44.737   3.229   8.630  0.00  0.00    +0.000 C 
ATOM     16  O   UNL     1      43.887   3.041   9.754  0.00  0.00    +0.000 OA
ENDBRANCH   9  16
ENDBRANCH   8  13
ENDBRANCH   2   8
ENDBRANCH   1   5
BRANCH   1  17
ATOM     17  N   UNL     1      50.135   4.346  17.440  0.00  0.00    +0.000 N 
ATOM     18  C   UNL     1      50.971   4.333  18.531  0.00  0.00    +0.000 C 
ATOM     19  O   UNL     1      50.603   4.685  19.648  0.00  0.00    +0.000 OA
ATOM     20  H   UNL     1      50.532   4.295  16.510  0.00  0.00    +0.000 HD
BRANCH  18  21
ATOM     21  C   UNL     1      52.317   3.790  18.295  0.00  0.00    +0.000 A 
ATOM     22  C   UNL     1      53.433   4.589  18.501  0.00  0.00    +0.000 A 
ATOM     23  S   UNL     1      54.910   3.774  18.242  0.00  0.00    +0.000 S 
ATOM     24  C   UNL     1      54.107   2.343  17.793  0.00  0.00    +0.000 A 
ATOM     25  N   UNL     1      54.803   1.234  17.423  0.00  0.00    +0.000 NA
ATOM     26  C   UNL     1      54.066   0.230  17.087  0.00  0.00    +0.000 A 
ATOM     27  N   UNL     1      52.693   0.232  17.085  0.00  0.00    +0.000 N 
ATOM     28  C   UNL     1      51.952   1.317  17.468  0.00  0.00    +0.000 A 
ATOM     29  O   UNL     1      50.723   1.278  17.484  0.00  0.00    +0.000 OA
ATOM     30  C   UNL     1      52.732   2.479  17.855  0.00  0.00    +0.000 A 
ATOM     31  H   UNL     1      52.174  -0.591  16.817  0.00  0.00    +0.000 HD
ENDBRANCH  18  21
ENDBRANCH   1  17
TORSDOF 6
ENDMDL
MODEL 9
REMARK VINA RESULT:    -6.726      1.721      2.573
REMARK INTER + INTRA:         -10.233
REMARK INTER:                  -8.777
REMARK INTRA:                  -1.456
REMARK UNBOUND:                -1.148
REMARK  Name = 
REMARK  7 active torsions:
REMARK  status: ('A' for Active; 'I' for Inactive)
REMARK    1  A    between atoms: C_1  and  O_2
REMARK    2  A    between atoms: O_2  and  C_3
REMARK    3  A    between atoms: C_7  and  C_8
REMARK    4  A    between atoms: C_8  and  C_9
REMARK    5  A    between atoms: C_12  and  C_13
REMARK    6  A    between atoms: C_13  and  N_14
REMARK    7  A    between atoms: C_15  and  C_17
REMARK                            x       y       z     vdW  Elec       q    Type
REMARK                         _______ _______ _______ _____ _____    ______ ____
ROOT
ATOM      1  C   UNL     1      49.346   8.547  14.211  0.00  0.00    +0.000 C 
ENDROOT
BRANCH   1   5
ATOM      2  C   UNL     1      45.825   7.513  11.891  0.00  0.00    +0.000 A 
ATOM      3  C   UNL     1      46.955   6.681  11.885  0.00  0.00    +0.000 A 
ATOM      4  C   UNL     1      48.100   7.020  12.616  0.00  0.00    +0.000 A 
ATOM      5  C   UNL     1      48.138   8.195  13.379  0.00  0.00    +0.000 A 
ATOM      6  C   UNL     1      47.028   9.048  13.347  0.00  0.00    +0.000 A 
ATOM      7  C   UNL     1      45.879   8.706  12.623  0.00  0.00    +0.000 A 
BRANCH   2   8
ATOM      8  C   UNL     1      44.559   7.103  11.163  0.00  0.00    +0.000 C 
BRANCH   8  13
ATOM      9  C   UNL     1      44.131   3.323  10.818  0.00  0.00    +0.000 A 
ATOM     10  C   UNL     1      43.601   2.989  12.063  0.00  0.00    +0.000 A 
ATOM     11  C   UNL     1      43.313   3.990  12.991  0.00  0.00    +0.000 A 
ATOM     12  C   UNL     1      43.577   5.330  12.693  0.00  0.00    +0.000 A 
ATOM     13  C   UNL     1      44.140   5.678  11.459  0.00  0.00    +0.000 A 
ATOM     14  C   UNL     1      44.383   4.665  10.518  0.00  0.00    +0.000 A 
BRANCH   9  16
ATOM     15  C   UNL     1      44.611   2.989   8.515  0.00  0.00    +0.000 C 
ATOM     16  O   UNL     1      44.461   2.445   9.820  0.00  0.00    +0.000 OA
ENDBRANCH   9  16
ENDBRANCH   8  13
ENDBRANCH   2   8
ENDBRANCH   1   5
BRANCH   1  17
ATOM     17  N   UNL     1      49.427   7.734  15.397  0.00  0.00    +0.000 N 
ATOM     18  C   UNL     1      48.800   8.104  16.564  0.00  0.00    +0.000 C 
ATOM     19  O   UNL     1      48.097   9.107  16.644  0.00  0.00    +0.000 OA
ATOM     20  H   UNL     1      50.185   7.063  15.433  0.00  0.00    +0.000 HD
BRANCH  18  21
ATOM     21  C   UNL     1      48.958   7.176  17.693  0.00  0.00    +0.000 A 
ATOM     22  C   UNL     1      49.411   7.645  18.919  0.00  0.00    +0.000 A 
ATOM     23  S   UNL     1      49.469   6.443  20.128  0.00  0.00    +0.000 S 
ATOM     24  C   UNL     1      48.943   5.245  19.042  0.00  0.00    +0.000 A 
ATOM     25  N   UNL     1      48.796   3.952  19.440  0.00  0.00    +0.000 NA
ATOM     26  C   UNL     1      48.413   3.147  18.507  0.00  0.00    +0.000 A 
ATOM     27  N   UNL     1      48.164   3.515  17.209  0.00  0.00    +0.000 N 
ATOM     28  C   UNL     1      48.280   4.806  16.768  0.00  0.00    +0.000 A 
ATOM     29  O   UNL     1      48.021   5.110  15.605  0.00  0.00    +0.000 OA
ATOM     30  C   UNL     1      48.712   5.756  17.778  0.00  0.00    +0.000 A 
ATOM     31  H   UNL     1      47.860   2.837  16.526  0.00  0.00    +0.000 HD
ENDBRANCH  18  21
ENDBRANCH   1  17
TORSDOF 6
ENDMDL
