MODEL 1
REMARK VINA RESULT:    -8.081      0.000      0.000
REMARK INTER + INTRA:         -10.982
REMARK INTER:                 -10.442
REMARK INTRA:                  -0.540
REMARK UNBOUND:                -0.540
REMARK  Name = 
REMARK  5 active torsions:
REMARK  status: ('A' for Active; 'I' for Inactive)
REMARK    1  A    between atoms: C_2  and  C_18
REMARK    2  A    between atoms: N_3  and  C_4
REMARK    3  A    between atoms: C_4  and  C_5
REMARK    4  A    between atoms: C_8  and  C_9
REMARK    5  A    between atoms: C_9  and  N_10
REMARK                            x       y       z     vdW  Elec       q    Type
REMARK                         _______ _______ _______ _____ _____    ______ ____
ROOT
ATOM      1  O   UNL     1      46.316   3.354  13.696  0.00  0.00    +0.000 OA
ATOM      2  C   UNL     1      46.223   4.561  13.902  0.00  0.00    +0.000 C 
ATOM      3  N   UNL     1      45.101   5.271  13.543  0.00  0.00    +0.000 N 
ATOM      4  H   UNL     1      45.123   6.287  13.545  0.00  0.00    +0.000 HD
ENDROOT
BRANCH   2   5
ATOM      5  C   UNL     1      47.303   5.304  14.569  0.00  0.00    +0.000 A 
ATOM      6  C   UNL     1      47.959   6.316  13.875  0.00  0.00    +0.000 A 
ATOM      7  S   UNL     1      49.178   7.092  14.789  0.00  0.00    +0.000 S 
ATOM      8  C   UNL     1      48.847   6.130  16.153  0.00  0.00    +0.000 A 
ATOM      9  N   UNL     1      49.525   6.312  17.318  0.00  0.00    +0.000 NA
ATOM     10  C   UNL     1      49.144   5.541  18.282  0.00  0.00    +0.000 A 
ATOM     11  N   UNL     1      48.155   4.596  18.179  0.00  0.00    +0.000 N 
ATOM     12  C   UNL     1      47.474   4.346  17.011  0.00  0.00    +0.000 A 
ATOM     13  O   UNL     1      46.644   3.449  16.934  0.00  0.00    +0.000 OA
ATOM     14  C   UNL     1      47.842   5.210  15.907  0.00  0.00    +0.000 A 
ATOM     15  H   UNL     1      47.918   4.011  18.966  0.00  0.00    +0.000 HD
ENDBRANCH   2   5
BRANCH   3  16
ATOM     16  C   UNL     1      44.041   4.629  12.796  0.00  0.00    +0.000 C 
BRANCH  16  17
ATOM     17  C   UNL     1      44.448   4.287  11.383  0.00  0.00    +0.000 A 
ATOM     18  C   UNL     1      45.065   5.257  10.583  0.00  0.00    +0.000 A 
ATOM     19  C   UNL     1      45.443   4.969   9.265  0.00  0.00    +0.000 A 
ATOM     20  C   UNL     1      45.218   3.703   8.708  0.00  0.00    +0.000 A 
ATOM     21  C   UNL     1      44.603   2.729   9.512  0.00  0.00    +0.000 A 
ATOM     22  C   UNL     1      44.214   3.020  10.832  0.00  0.00    +0.000 A 
BRANCH  20  23
ATOM     23  C   UNL     1      45.499   3.452   7.237  0.00  0.00    +0.000 C 
BRANCH  23  24
ATOM     24  N   UNL     1      46.836   3.063   6.791  0.00  0.00    +0.000 NA
ATOM     25  C   UNL     1      47.106   3.147   5.357  0.00  0.00    +0.000 C 
ATOM     26  C   UNL     1      46.889   1.842   4.559  0.00  0.00    +0.000 C 
ATOM     27  N   UNL     1      47.465   0.626   5.159  0.00  0.00    +0.000 NA
ATOM     28  C   UNL     1      47.156   0.552   6.596  0.00  0.00    +0.000 C 
ATOM     29  C   UNL     1      47.411   1.855   7.381  0.00  0.00    +0.000 C 
ATOM     30  H   UNL     1      48.476   0.654   5.046  0.00  0.00    +0.000 HD
ENDBRANCH  23  24
ENDBRANCH  20  23
ENDBRANCH  16  17
ENDBRANCH   3  16
TORSDOF 5
ENDMDL
MODEL 2
REMARK VINA RESULT:    -7.678      1.760      2.639
REMARK INTER + INTRA:         -10.462
REMARK INTER:                  -9.616
REMARK INTRA:                  -0.845
REMARK UNBOUND:                -0.540
REMARK  Name = 
REMARK  5 active torsions:
REMARK  status: ('A' for Active; 'I' for Inactive)
REMARK    1  A    between atoms: C_2  and  C_18
REMARK    2  A    between atoms: N_3  and  C_4
REMARK    3  A    between atoms: C_4  and  C_5
REMARK    4  A    between atoms: C_8  and  C_9
REMARK    5  A    between atoms: C_9  and  N_10
REMARK                            x       y       z     vdW  Elec       q    Type
REMARK                         _______ _______ _______ _____ _____    ______ ____
ROOT
ATOM      1  O   UNL     1      46.571   3.714  14.097  0.00  0.00    +0.000 OA
ATOM      2  C   UNL     1      46.580   4.940  14.018  0.00  0.00    +0.000 C 
ATOM      3  N   UNL     1      45.529   5.636  13.469  0.00  0.00    +0.000 N 
ATOM      4  H   UNL     1      45.639   6.620  13.240  0.00  0.00    +0.000 HD
ENDROOT
BRANCH   2   5
ATOM      5  C   UNL     1      47.711   5.726  14.533  0.00  0.00    +0.000 A 
ATOM      6  C   UNL     1      48.121   5.545  15.850  0.00  0.00    +0.000 A 
ATOM      7  S   UNL     1      49.452   6.521  16.293  0.00  0.00    +0.000 S 
ATOM      8  C   UNL     1      49.552   7.192  14.732  0.00  0.00    +0.000 A 
ATOM      9  N   UNL     1      50.524   8.090  14.418  0.00  0.00    +0.000 NA
ATOM     10  C   UNL     1      50.506   8.486  13.188  0.00  0.00    +0.000 A 
ATOM     11  N   UNL     1      49.595   8.073  12.250  0.00  0.00    +0.000 N 
ATOM     12  C   UNL     1      48.569   7.202  12.533  0.00  0.00    +0.000 A 
ATOM     13  O   UNL     1      47.731   6.905  11.689  0.00  0.00    +0.000 OA
ATOM     14  C   UNL     1      48.566   6.701  13.892  0.00  0.00    +0.000 A 
ATOM     15  H   UNL     1      49.623   8.436  11.309  0.00  0.00    +0.000 HD
ENDBRANCH   2   5
BRANCH   3  16
ATOM     16  C   UNL     1      44.428   4.928  12.854  0.00  0.00    +0.000 C 
BRANCH  16  17
ATOM     17  C   UNL     1      44.735   4.483  11.444  0.00  0.00    +0.000 A 
ATOM     18  C   UNL     1      45.287   5.393  10.533  0.00  0.00    +0.000 A 
ATOM     19  C   UNL     1      45.571   5.010   9.216  0.00  0.00    +0.000 A 
ATOM     20  C   UNL     1      45.317   3.707   8.771  0.00  0.00    +0.000 A 
ATOM     21  C   UNL     1      44.767   2.792   9.685  0.00  0.00    +0.000 A 
ATOM     22  C   UNL     1      44.472   3.179  11.004  0.00  0.00    +0.000 A 
BRANCH  20  23
ATOM     23  C   UNL     1      45.494   3.349   7.305  0.00  0.00    +0.000 C 
BRANCH  23  24
ATOM     24  N   UNL     1      46.815   3.012   6.776  0.00  0.00    +0.000 NA
ATOM     25  C   UNL     1      46.993   3.113   5.329  0.00  0.00    +0.000 C 
ATOM     26  C   UNL     1      46.777   1.804   4.537  0.00  0.00    +0.000 C 
ATOM     27  N   UNL     1      47.434   0.609   5.093  0.00  0.00    +0.000 NA
ATOM     28  C   UNL     1      47.217   0.516   6.545  0.00  0.00    +0.000 C 
ATOM     29  C   UNL     1      47.470   1.825   7.321  0.00  0.00    +0.000 C 
ATOM     30  H   UNL     1      48.435   0.675   4.918  0.00  0.00    +0.000 HD
ENDBRANCH  23  24
ENDBRANCH  20  23
ENDBRANCH  16  17
ENDBRANCH   3  16
TORSDOF 5
ENDMDL
MODEL 3
REMARK VINA RESULT:    -7.132      3.902      6.577
REMARK INTER + INTRA:          -9.756
REMARK INTER:                  -8.839
REMARK INTRA:                  -0.918
REMARK UNBOUND:                -0.540
REMARK  Name = 
REMARK  5 active torsions:
REMARK  status: ('A' for Active; 'I' for Inactive)
REMARK    1  A    between atoms: C_2  and  C_18
REMARK    2  A    between atoms: N_3  and  C_4
REMARK    3  A    between atoms: C_4  and  C_5
REMARK    4  A    between atoms: C_8  and  C_9
REMARK    5  A    between atoms: C_9  and  N_10
REMARK                            x       y       z     vdW  Elec       q    Type
REMARK                         _______ _______ _______ _____ _____    ______ ____
ROOT
ATOM      1  O   UNL     1      49.925   5.485  19.509  0.00  0.00    +0.000 OA
ATOM      2  C   UNL     1      50.679   5.166  18.592  0.00  0.00    +0.000 C 
ATOM      3  N   UNL     1      50.518   5.661  17.319  0.00  0.00    +0.000 N 
ATOM      4  H   UNL     1      51.025   5.241  16.545  0.00  0.00    +0.000 HD
ENDROOT
BRANCH   2   5
ATOM      5  C   UNL     1      51.810   4.255  18.821  0.00  0.00    +0.000 A 
ATOM      6  C   UNL     1      52.821   4.634  19.699  0.00  0.00    +0.000 A 
ATOM      7  S   UNL     1      54.056   3.464  19.866  0.00  0.00    +0.000 S 
ATOM      8  C   UNL     1      53.267   2.397  18.801  0.00  0.00    +0.000 A 
ATOM      9  N   UNL     1      53.786   1.169  18.531  0.00  0.00    +0.000 NA
ATOM     10  C   UNL     1      53.063   0.448  17.738  0.00  0.00    +0.000 A 
ATOM     11  N   UNL     1      51.877   0.853  17.182  0.00  0.00    +0.000 N 
ATOM     12  C   UNL     1      51.337   2.100  17.390  0.00  0.00    +0.000 A 
ATOM     13  O   UNL     1      50.310   2.455  16.825  0.00  0.00    +0.000 OA
ATOM     14  C   UNL     1      52.093   2.935  18.301  0.00  0.00    +0.000 A 
ATOM     15  H   UNL     1      51.370   0.248  16.554  0.00  0.00    +0.000 HD
ENDBRANCH   2   5
BRANCH   3  16
ATOM     16  C   UNL     1      49.372   6.483  16.997  0.00  0.00    +0.000 C 
BRANCH  16  17
ATOM     17  C   UNL     1      48.478   5.854  15.955  0.00  0.00    +0.000 A 
ATOM     18  C   UNL     1      47.792   4.669  16.251  0.00  0.00    +0.000 A 
ATOM     19  C   UNL     1      46.965   4.059  15.300  0.00  0.00    +0.000 A 
ATOM     20  C   UNL     1      46.795   4.615  14.026  0.00  0.00    +0.000 A 
ATOM     21  C   UNL     1      47.480   5.806  13.729  0.00  0.00    +0.000 A 
ATOM     22  C   UNL     1      48.318   6.414  14.681  0.00  0.00    +0.000 A 
BRANCH  20  23
ATOM     23  C   UNL     1      46.013   3.867  12.960  0.00  0.00    +0.000 C 
BRANCH  23  24
ATOM     24  N   UNL     1      44.571   4.061  12.821  0.00  0.00    +0.000 NA
ATOM     25  C   UNL     1      43.905   3.327  11.748  0.00  0.00    +0.000 C 
ATOM     26  C   UNL     1      43.737   4.095  10.417  0.00  0.00    +0.000 C 
ATOM     27  N   UNL     1      43.235   5.475  10.539  0.00  0.00    +0.000 NA
ATOM     28  C   UNL     1      43.940   6.200  11.607  0.00  0.00    +0.000 C 
ATOM     29  C   UNL     1      44.067   5.428  12.937  0.00  0.00    +0.000 C 
ATOM     30  H   UNL     1      42.244   5.442  10.768  0.00  0.00    +0.000 HD
ENDBRANCH  23  24
ENDBRANCH  20  23
ENDBRANCH  16  17
ENDBRANCH   3  16
TORSDOF 5
ENDMDL
MODEL 4
REMARK VINA RESULT:    -7.054      4.473      9.760
REMARK INTER + INTRA:          -9.656
REMARK INTER:                  -8.928
REMARK INTRA:                  -0.727
REMARK UNBOUND:                -0.540
REMARK  Name = 
REMARK  5 active torsions:
REMARK  status: ('A' for Active; 'I' for Inactive)
REMARK    1  A    between atoms: C_2  and  C_18
REMARK    2  A    between atoms: N_3  and  C_4
REMARK    3  A    between atoms: C_4  and  C_5
REMARK    4  A    between atoms: C_8  and  C_9
REMARK    5  A    between atoms: C_9  and  N_10
REMARK                            x       y       z     vdW  Elec       q    Type
REMARK                         _______ _______ _______ _____ _____    ______ ____
ROOT
ATOM      1  O   UNL     1      47.203   3.162  13.962  0.00  0.00    +0.000 OA
ATOM      2  C   UNL     1      46.833   4.240  14.419  0.00  0.00    +0.000 C 
ATOM      3  N   UNL     1      46.931   4.529  15.760  0.00  0.00    +0.000 N 
ATOM      4  H   UNL     1      46.448   5.339  16.139  0.00  0.00    +0.000 HD
ENDROOT
BRANCH   2   5
ATOM      5  C   UNL     1      46.288   5.290  13.544  0.00  0.00    +0.000 A 
ATOM      6  C   UNL     1      47.081   6.388  13.225  0.00  0.00    +0.000 A 
ATOM      7  S   UNL     1      46.311   7.511  12.191  0.00  0.00    +0.000 S 
ATOM      8  C   UNL     1      44.907   6.552  12.104  0.00  0.00    +0.000 A 
ATOM      9  N   UNL     1      43.851   6.928  11.333  0.00  0.00    +0.000 NA
ATOM     10  C   UNL     1      42.870   6.088  11.328  0.00  0.00    +0.000 A 
ATOM     11  N   UNL     1      42.846   4.913  12.035  0.00  0.00    +0.000 N 
ATOM     12  C   UNL     1      43.871   4.514  12.861  0.00  0.00    +0.000 A 
ATOM     13  O   UNL     1      43.790   3.492  13.531  0.00  0.00    +0.000 OA
ATOM     14  C   UNL     1      45.011   5.407  12.875  0.00  0.00    +0.000 A 
ATOM     15  H   UNL     1      42.039   4.309  12.003  0.00  0.00    +0.000 HD
ENDBRANCH   2   5
BRANCH   3  16
ATOM     16  C   UNL     1      47.365   3.513  16.694  0.00  0.00    +0.000 C 
BRANCH  16  17
ATOM     17  C   UNL     1      48.832   3.623  17.033  0.00  0.00    +0.000 A 
ATOM     18  C   UNL     1      49.421   4.886  17.177  0.00  0.00    +0.000 A 
ATOM     19  C   UNL     1      50.781   5.016  17.482  0.00  0.00    +0.000 A 
ATOM     20  C   UNL     1      51.595   3.889  17.655  0.00  0.00    +0.000 A 
ATOM     21  C   UNL     1      51.004   2.621  17.515  0.00  0.00    +0.000 A 
ATOM     22  C   UNL     1      49.640   2.491  17.200  0.00  0.00    +0.000 A 
BRANCH  20  23
ATOM     23  C   UNL     1      53.094   4.046  17.840  0.00  0.00    +0.000 C 
BRANCH  23  24
ATOM     24  N   UNL     1      53.644   4.489  19.120  0.00  0.00    +0.000 NA
ATOM     25  C   UNL     1      53.004   3.975  20.328  0.00  0.00    +0.000 C 
ATOM     26  C   UNL     1      51.905   4.873  20.937  0.00  0.00    +0.000 C 
ATOM     27  N   UNL     1      52.246   6.301  21.058  0.00  0.00    +0.000 NA
ATOM     28  C   UNL     1      52.862   6.802  19.820  0.00  0.00    +0.000 C 
ATOM     29  C   UNL     1      53.981   5.906  19.246  0.00  0.00    +0.000 C 
ATOM     30  H   UNL     1      52.911   6.415  21.820  0.00  0.00    +0.000 HD
ENDBRANCH  23  24
ENDBRANCH  20  23
ENDBRANCH  16  17
ENDBRANCH   3  16
TORSDOF 5
ENDMDL
MODEL 5
REMARK VINA RESULT:    -6.995      3.603      5.082
REMARK INTER + INTRA:          -9.579
REMARK INTER:                  -8.474
REMARK INTRA:                  -1.106
REMARK UNBOUND:                -0.540
REMARK  Name = 
REMARK  5 active torsions:
REMARK  status: ('A' for Active; 'I' for Inactive)
REMARK    1  A    between atoms: C_2  and  C_18
REMARK    2  A    between atoms: N_3  and  C_4
REMARK    3  A    between atoms: C_4  and  C_5
REMARK    4  A    between atoms: C_8  and  C_9
REMARK    5  A    between atoms: C_9  and  N_10
REMARK                            x       y       z     vdW  Elec       q    Type
REMARK                         _______ _______ _______ _____ _____    ______ ____
ROOT
ATOM      1  O   UNL     1      48.483   8.656  16.129  0.00  0.00    +0.000 OA
ATOM      2  C   UNL     1      48.854   7.519  15.850  0.00  0.00    +0.000 C 
ATOM      3  N   UNL     1      49.094   7.135  14.551  0.00  0.00    +0.000 N 
ATOM      4  H   UNL     1      49.211   6.150  14.329  0.00  0.00    +0.000 HD
ENDROOT
BRANCH   2   5
ATOM      5  C   UNL     1      49.085   6.516  16.901  0.00  0.00    +0.000 A 
ATOM      6  C   UNL     1      49.931   6.826  17.961  0.00  0.00    +0.000 A 
ATOM      7  S   UNL     1      50.087   5.564  19.103  0.00  0.00    +0.000 S 
ATOM      8  C   UNL     1      49.002   4.575  18.242  0.00  0.00    +0.000 A 
ATOM      9  N   UNL     1      48.657   3.344  18.709  0.00  0.00    +0.000 NA
ATOM     10  C   UNL     1      47.795   2.720  17.976  0.00  0.00    +0.000 A 
ATOM     11  N   UNL     1      47.258   3.211  16.814  0.00  0.00    +0.000 N 
ATOM     12  C   UNL     1      47.610   4.430  16.282  0.00  0.00    +0.000 A 
ATOM     13  O   UNL     1      47.162   4.811  15.207  0.00  0.00    +0.000 OA
ATOM     14  C   UNL     1      48.550   5.186  17.085  0.00  0.00    +0.000 A 
ATOM     15  H   UNL     1      46.603   2.665  16.277  0.00  0.00    +0.000 HD
ENDBRANCH   2   5
BRANCH   3  16
ATOM     16  C   UNL     1      48.796   8.034  13.459  0.00  0.00    +0.000 C 
BRANCH  16  17
ATOM     17  C   UNL     1      47.492   7.706  12.773  0.00  0.00    +0.000 A 
ATOM     18  C   UNL     1      46.315   8.358  13.165  0.00  0.00    +0.000 A 
ATOM     19  C   UNL     1      45.091   8.064  12.552  0.00  0.00    +0.000 A 
ATOM     20  C   UNL     1      45.004   7.113  11.528  0.00  0.00    +0.000 A 
ATOM     21  C   UNL     1      46.184   6.461  11.131  0.00  0.00    +0.000 A 
ATOM     22  C   UNL     1      47.412   6.748  11.753  0.00  0.00    +0.000 A 
BRANCH  20  23
ATOM     23  C   UNL     1      43.650   6.701  10.976  0.00  0.00    +0.000 C 
BRANCH  23  24
ATOM     24  N   UNL     1      43.074   5.400  11.314  0.00  0.00    +0.000 NA
ATOM     25  C   UNL     1      42.984   5.064  12.733  0.00  0.00    +0.000 C 
ATOM     26  C   UNL     1      44.165   4.248  13.303  0.00  0.00    +0.000 C 
ATOM     27  N   UNL     1      44.593   3.097  12.489  0.00  0.00    +0.000 NA
ATOM     28  C   UNL     1      44.703   3.468  11.070  0.00  0.00    +0.000 C 
ATOM     29  C   UNL     1      43.498   4.254  10.512  0.00  0.00    +0.000 C 
ATOM     30  H   UNL     1      43.900   2.358  12.579  0.00  0.00    +0.000 HD
ENDBRANCH  23  24
ENDBRANCH  20  23
ENDBRANCH  16  17
ENDBRANCH   3  16
TORSDOF 5
ENDMDL
MODEL 6
REMARK VINA RESULT:    -6.772      4.495     10.240
REMARK INTER + INTRA:          -9.291
REMARK INTER:                  -8.652
REMARK INTRA:                  -0.639
REMARK UNBOUND:                -0.540
REMARK  Name = 
REMARK  5 active torsions:
REMARK  status: ('A' for Active; 'I' for Inactive)
REMARK    1  A    between atoms: C_2  and  C_18
REMARK    2  A    between atoms: N_3  and  C_4
REMARK    3  A    between atoms: C_4  and  C_5
REMARK    4  A    between atoms: C_8  and  C_9
REMARK    5  A    between atoms: C_9  and  N_10
REMARK                            x       y       z     vdW  Elec       q    Type
REMARK                         _______ _______ _______ _____ _____    ______ ____
ROOT
ATOM      1  O   UNL     1      47.168   3.275  13.903  0.00  0.00    +0.000 OA
ATOM      2  C   UNL     1      46.811   4.366  14.340  0.00  0.00    +0.000 C 
ATOM      3  N   UNL     1      46.991   4.711  15.659  0.00  0.00    +0.000 N 
ATOM      4  H   UNL     1      46.520   5.529  16.037  0.00  0.00    +0.000 HD
ENDROOT
BRANCH   2   5
ATOM      5  C   UNL     1      46.191   5.371  13.462  0.00  0.00    +0.000 A 
ATOM      6  C   UNL     1      46.913   6.509  13.116  0.00  0.00    +0.000 A 
ATOM      7  S   UNL     1      46.061   7.572  12.083  0.00  0.00    +0.000 S 
ATOM      8  C   UNL     1      44.715   6.532  12.030  0.00  0.00    +0.000 A 
ATOM      9  N   UNL     1      43.627   6.836  11.273  0.00  0.00    +0.000 NA
ATOM     10  C   UNL     1      42.696   5.940  11.295  0.00  0.00    +0.000 A 
ATOM     11  N   UNL     1      42.753   4.775  12.016  0.00  0.00    +0.000 N 
ATOM     12  C   UNL     1      43.812   4.447  12.829  0.00  0.00    +0.000 A 
ATOM     13  O   UNL     1      43.802   3.430  13.513  0.00  0.00    +0.000 OA
ATOM     14  C   UNL     1      44.899   5.405  12.813  0.00  0.00    +0.000 A 
ATOM     15  H   UNL     1      41.982   4.124  12.006  0.00  0.00    +0.000 HD
ENDBRANCH   2   5
BRANCH   3  16
ATOM     16  C   UNL     1      47.503   3.741  16.601  0.00  0.00    +0.000 C 
BRANCH  16  17
ATOM     17  C   UNL     1      47.740   4.329  17.972  0.00  0.00    +0.000 A 
ATOM     18  C   UNL     1      47.012   5.454  18.381  0.00  0.00    +0.000 A 
ATOM     19  C   UNL     1      47.220   6.025  19.643  0.00  0.00    +0.000 A 
ATOM     20  C   UNL     1      48.158   5.490  20.534  0.00  0.00    +0.000 A 
ATOM     21  C   UNL     1      48.886   4.359  20.126  0.00  0.00    +0.000 A 
ATOM     22  C   UNL     1      48.685   3.791  18.855  0.00  0.00    +0.000 A 
BRANCH  20  23
ATOM     23  C   UNL     1      48.476   6.205  21.836  0.00  0.00    +0.000 C 
BRANCH  23  24
ATOM     24  N   UNL     1      49.348   7.379  21.846  0.00  0.00    +0.000 NA
ATOM     25  C   UNL     1      48.698   8.687  21.806  0.00  0.00    +0.000 C 
ATOM     26  C   UNL     1      48.535   9.309  20.402  0.00  0.00    +0.000 C 
ATOM     27  N   UNL     1      49.730   9.259  19.542  0.00  0.00    +0.000 NA
ATOM     28  C   UNL     1      50.350   7.926  19.578  0.00  0.00    +0.000 C 
ATOM     29  C   UNL     1      50.533   7.336  20.992  0.00  0.00    +0.000 C 
ATOM     30  H   UNL     1      50.406   9.940  19.882  0.00  0.00    +0.000 HD
ENDBRANCH  23  24
ENDBRANCH  20  23
ENDBRANCH  16  17
ENDBRANCH   3  16
TORSDOF 5
ENDMDL
MODEL 7
REMARK VINA RESULT:    -6.723      3.457      8.976
REMARK INTER + INTRA:          -9.228
REMARK INTER:                  -8.688
REMARK INTRA:                  -0.540
REMARK UNBOUND:                -0.540
REMARK  Name = 
REMARK  5 active torsions:
REMARK  status: ('A' for Active; 'I' for Inactive)
REMARK    1  A    between atoms: C_2  and  C_18
REMARK    2  A    between atoms: N_3  and  C_4
REMARK    3  A    between atoms: C_4  and  C_5
REMARK    4  A    between atoms: C_8  and  C_9
REMARK    5  A    between atoms: C_9  and  N_10
REMARK                            x       y       z     vdW  Elec       q    Type
REMARK                         _______ _______ _______ _____ _____    ______ ____
ROOT
ATOM      1  O   UNL     1      45.973   7.828  11.910  0.00  0.00    +0.000 OA
ATOM      2  C   UNL     1      46.518   6.771  11.605  0.00  0.00    +0.000 C 
ATOM      3  N   UNL     1      47.840   6.528  11.894  0.00  0.00    +0.000 N 
ATOM      4  H   UNL     1      48.315   5.738  11.467  0.00  0.00    +0.000 HD
ENDROOT
BRANCH   2   5
ATOM      5  C   UNL     1      45.770   5.697  10.933  0.00  0.00    +0.000 A 
ATOM      6  C   UNL     1      45.873   5.559   9.552  0.00  0.00    +0.000 A 
ATOM      7  S   UNL     1      44.956   4.260   8.924  0.00  0.00    +0.000 S 
ATOM      8  C   UNL     1      44.420   3.814  10.477  0.00  0.00    +0.000 A 
ATOM      9  N   UNL     1      43.617   2.730  10.655  0.00  0.00    +0.000 NA
ATOM     10  C   UNL     1      43.320   2.485  11.888  0.00  0.00    +0.000 A 
ATOM     11  N   UNL     1      43.744   3.233  12.956  0.00  0.00    +0.000 N 
ATOM     12  C   UNL     1      44.520   4.361  12.820  0.00  0.00    +0.000 A 
ATOM     13  O   UNL     1      44.826   5.046  13.789  0.00  0.00    +0.000 OA
ATOM     14  C   UNL     1      44.909   4.660  11.458  0.00  0.00    +0.000 A 
ATOM     15  H   UNL     1      43.460   2.999  13.895  0.00  0.00    +0.000 HD
ENDBRANCH   2   5
BRANCH   3  16
ATOM     16  C   UNL     1      48.664   7.572  12.464  0.00  0.00    +0.000 C 
BRANCH  16  17
ATOM     17  C   UNL     1      49.098   7.265  13.877  0.00  0.00    +0.000 A 
ATOM     18  C   UNL     1      48.205   6.641  14.759  0.00  0.00    +0.000 A 
ATOM     19  C   UNL     1      48.579   6.355  16.078  0.00  0.00    +0.000 A 
ATOM     20  C   UNL     1      49.855   6.680  16.556  0.00  0.00    +0.000 A 
ATOM     21  C   UNL     1      50.752   7.302  15.671  0.00  0.00    +0.000 A 
ATOM     22  C   UNL     1      50.374   7.599  14.349  0.00  0.00    +0.000 A 
BRANCH  20  23
ATOM     23  C   UNL     1      50.194   6.497  18.025  0.00  0.00    +0.000 C 
BRANCH  23  24
ATOM     24  N   UNL     1      50.473   5.166  18.564  0.00  0.00    +0.000 NA
ATOM     25  C   UNL     1      49.991   4.025  17.790  0.00  0.00    +0.000 C 
ATOM     26  C   UNL     1      48.609   3.472  18.204  0.00  0.00    +0.000 C 
ATOM     27  N   UNL     1      48.408   3.283  19.651  0.00  0.00    +0.000 NA
ATOM     28  C   UNL     1      48.875   4.456  20.405  0.00  0.00    +0.000 C 
ATOM     29  C   UNL     1      50.272   4.972  19.999  0.00  0.00    +0.000 C 
ATOM     30  H   UNL     1      48.942   2.470  19.952  0.00  0.00    +0.000 HD
ENDBRANCH  23  24
ENDBRANCH  20  23
ENDBRANCH  16  17
ENDBRANCH   3  16
TORSDOF 5
ENDMDL
MODEL 8
REMARK VINA RESULT:    -6.558      3.134      9.437
REMARK INTER + INTRA:          -9.014
REMARK INTER:                  -8.025
REMARK INTRA:                  -0.990
REMARK UNBOUND:                -0.540
REMARK  Name = 
REMARK  5 active torsions:
REMARK  status: ('A' for Active; 'I' for Inactive)
REMARK    1  A    between atoms: C_2  and  C_18
REMARK    2  A    between atoms: N_3  and  C_4
REMARK    3  A    between atoms: C_4  and  C_5
REMARK    4  A    between atoms: C_8  and  C_9
REMARK    5  A    between atoms: C_9  and  N_10
REMARK                            x       y       z     vdW  Elec       q    Type
REMARK                         _______ _______ _______ _____ _____    ______ ____
ROOT
ATOM      1  O   UNL     1      44.940   7.475  12.215  0.00  0.00    +0.000 OA
ATOM      2  C   UNL     1      45.625   6.510  11.883  0.00  0.00    +0.000 C 
ATOM      3  N   UNL     1      46.993   6.598  11.776  0.00  0.00    +0.000 N 
ATOM      4  H   UNL     1      47.513   5.854  11.319  0.00  0.00    +0.000 HD
ENDROOT
BRANCH   2   5
ATOM      5  C   UNL     1      45.012   5.202  11.607  0.00  0.00    +0.000 A 
ATOM      6  C   UNL     1      44.283   4.569  12.609  0.00  0.00    +0.000 A 
ATOM      7  S   UNL     1      43.626   3.065  12.129  0.00  0.00    +0.000 S 
ATOM      8  C   UNL     1      44.260   3.225  10.558  0.00  0.00    +0.000 A 
ATOM      9  N   UNL     1      44.024   2.279   9.610  0.00  0.00    +0.000 NA
ATOM     10  C   UNL     1      44.531   2.548   8.452  0.00  0.00    +0.000 A 
ATOM     11  N   UNL     1      45.262   3.671   8.163  0.00  0.00    +0.000 N 
ATOM     12  C   UNL     1      45.562   4.632   9.100  0.00  0.00    +0.000 A 
ATOM     13  O   UNL     1      46.275   5.590   8.827  0.00  0.00    +0.000 OA
ATOM     14  C   UNL     1      44.987   4.394  10.408  0.00  0.00    +0.000 A 
ATOM     15  H   UNL     1      45.647   3.813   7.242  0.00  0.00    +0.000 HD
ENDBRANCH   2   5
BRANCH   3  16
ATOM     16  C   UNL     1      47.656   7.874  11.937  0.00  0.00    +0.000 C 
BRANCH  16  17
ATOM     17  C   UNL     1      48.325   8.018  13.282  0.00  0.00    +0.000 A 
ATOM     18  C   UNL     1      47.699   8.757  14.295  0.00  0.00    +0.000 A 
ATOM     19  C   UNL     1      48.302   8.915  15.549  0.00  0.00    +0.000 A 
ATOM     20  C   UNL     1      49.547   8.338  15.831  0.00  0.00    +0.000 A 
ATOM     21  C   UNL     1      50.174   7.593  14.817  0.00  0.00    +0.000 A 
ATOM     22  C   UNL     1      49.573   7.442  13.555  0.00  0.00    +0.000 A 
BRANCH  20  23
ATOM     23  C   UNL     1      50.253   8.639  17.141  0.00  0.00    +0.000 C 
BRANCH  23  24
ATOM     24  N   UNL     1      49.904   7.910  18.359  0.00  0.00    +0.000 NA
ATOM     25  C   UNL     1      49.720   6.466  18.236  0.00  0.00    +0.000 C 
ATOM     26  C   UNL     1      48.267   5.994  18.008  0.00  0.00    +0.000 C 
ATOM     27  N   UNL     1      47.255   6.607  18.886  0.00  0.00    +0.000 NA
ATOM     28  C   UNL     1      47.445   8.063  18.972  0.00  0.00    +0.000 C 
ATOM     29  C   UNL     1      48.898   8.512  19.232  0.00  0.00    +0.000 C 
ATOM     30  H   UNL     1      47.350   6.212  19.820  0.00  0.00    +0.000 HD
ENDBRANCH  23  24
ENDBRANCH  20  23
ENDBRANCH  16  17
ENDBRANCH   3  16
TORSDOF 5
ENDMDL
MODEL 9
REMARK VINA RESULT:    -6.382      4.195      9.775
REMARK INTER + INTRA:          -8.786
REMARK INTER:                  -7.910
REMARK INTRA:                  -0.876
REMARK UNBOUND:                -0.540
REMARK  Name = 
REMARK  5 active torsions:
REMARK  status: ('A' for Active; 'I' for Inactive)
REMARK    1  A    between atoms: C_2  and  C_18
REMARK    2  A    between atoms: N_3  and  C_4
REMARK    3  A    between atoms: C_4  and  C_5
REMARK    4  A    between atoms: C_8  and  C_9
REMARK    5  A    between atoms: C_9  and  N_10
REMARK                            x       y       z     vdW  Elec       q    Type
REMARK                         _______ _______ _______ _____ _____    ______ ____
ROOT
ATOM      1  O   UNL     1      47.558   7.708  11.820  0.00  0.00    +0.000 OA
ATOM      2  C   UNL     1      46.899   7.016  12.593  0.00  0.00    +0.000 C 
ATOM      3  N   UNL     1      47.323   6.759  13.875  0.00  0.00    +0.000 N 
ATOM      4  H   UNL     1      46.866   6.037  14.424  0.00  0.00    +0.000 HD
ENDROOT
BRANCH   2   5
ATOM      5  C   UNL     1      45.604   6.447  12.187  0.00  0.00    +0.000 A 
ATOM      6  C   UNL     1      44.659   7.272  11.585  0.00  0.00    +0.000 A 
ATOM      7  S   UNL     1      43.214   6.461  11.163  0.00  0.00    +0.000 S 
ATOM      8  C   UNL     1      43.815   4.975  11.734  0.00  0.00    +0.000 A 
ATOM      9  N   UNL     1      43.077   3.837  11.632  0.00  0.00    +0.000 NA
ATOM     10  C   UNL     1      43.671   2.776  12.069  0.00  0.00    +0.000 A 
ATOM     11  N   UNL     1      44.931   2.755  12.609  0.00  0.00    +0.000 N 
ATOM     12  C   UNL     1      45.695   3.886  12.773  0.00  0.00    +0.000 A 
ATOM     13  O   UNL     1      46.790   3.843  13.321  0.00  0.00    +0.000 OA
ATOM     14  C   UNL     1      45.087   5.099  12.267  0.00  0.00    +0.000 A 
ATOM     15  H   UNL     1      45.331   1.894  12.951  0.00  0.00    +0.000 HD
ENDBRANCH   2   5
BRANCH   3  16
ATOM     16  C   UNL     1      48.629   7.202  14.312  0.00  0.00    +0.000 C 
BRANCH  16  17
ATOM     17  C   UNL     1      49.065   6.549  15.602  0.00  0.00    +0.000 A 
ATOM     18  C   UNL     1      50.292   6.901  16.180  0.00  0.00    +0.000 A 
ATOM     19  C   UNL     1      50.724   6.302  17.370  0.00  0.00    +0.000 A 
ATOM     20  C   UNL     1      49.945   5.338  18.020  0.00  0.00    +0.000 A 
ATOM     21  C   UNL     1      48.712   4.987  17.443  0.00  0.00    +0.000 A 
ATOM     22  C   UNL     1      48.282   5.580  16.243  0.00  0.00    +0.000 A 
BRANCH  20  23
ATOM     23  C   UNL     1      50.492   4.594  19.226  0.00  0.00    +0.000 C 
BRANCH  23  24
ATOM     24  N   UNL     1      50.171   5.038  20.582  0.00  0.00    +0.000 NA
ATOM     25  C   UNL     1      48.844   4.700  21.093  0.00  0.00    +0.000 C 
ATOM     26  C   UNL     1      47.759   5.783  20.904  0.00  0.00    +0.000 C 
ATOM     27  N   UNL     1      48.159   7.153  21.270  0.00  0.00    +0.000 NA
ATOM     28  C   UNL     1      49.485   7.479  20.721  0.00  0.00    +0.000 C 
ATOM     29  C   UNL     1      50.562   6.398  20.949  0.00  0.00    +0.000 C 
ATOM     30  H   UNL     1      48.203   7.221  22.285  0.00  0.00    +0.000 HD
ENDBRANCH  23  24
ENDBRANCH  20  23
ENDBRANCH  16  17
ENDBRANCH   3  16
TORSDOF 5
ENDMDL
