MODEL 1
REMARK VINA RESULT:    -8.319      0.000      0.000
REMARK INTER + INTRA:         -13.060
REMARK INTER:                 -11.723
REMARK INTRA:                  -1.337
REMARK UNBOUND:                -1.337
REMARK  Name = 
REMARK  7 active torsions:
REMARK  status: ('A' for Active; 'I' for Inactive)
REMARK    1  A    between atoms: C_2  and  C_4
REMARK    2  A    between atoms: C_8  and  C_9
REMARK    3  A    between atoms: C_9  and  N_10
REMARK    4  A    between atoms: N_10  and  C_11
REMARK    5  A    between atoms: C_14  and  C_15
REMARK    6  A    between atoms: C_15  and  N_16
REMARK    7  A    between atoms: C_17  and  C_19
REMARK                            x       y       z     vdW  Elec       q    Type
REMARK                         _______ _______ _______ _____ _____    ______ ____
ROOT
ATOM      1  C   UNL     1      44.906   3.905  12.454  0.00  0.00    +0.000 A 
ATOM      2  C   UNL     1      44.360   5.191  12.505  0.00  0.00    +0.000 A 
ATOM      3  C   UNL     1      45.135   6.289  12.910  0.00  0.00    +0.000 A 
ATOM      4  C   UNL     1      46.476   6.119  13.277  0.00  0.00    +0.000 A 
ATOM      5  C   UNL     1      46.995   4.821  13.317  0.00  0.00    +0.000 A 
ATOM      6  C   UNL     1      46.214   3.732  12.922  0.00  0.00    +0.000 A 
ENDROOT
BRANCH   1   7
ATOM      7  N   UNL     1      44.221   2.768  12.016  0.00  0.00    +0.000 N 
ATOM      8  H   UNL     1      43.593   2.424  12.740  0.00  0.00    +0.000 HD
BRANCH   7   9
ATOM      9  C   UNL     1      43.590   2.775  10.704  0.00  0.00    +0.000 C 
BRANCH   9  14
ATOM     10  C   UNL     1      46.259   2.131   8.031  0.00  0.00    +0.000 A 
ATOM     11  C   UNL     1      46.464   3.422   7.530  0.00  0.00    +0.000 A 
ATOM     12  C   UNL     1      45.781   4.501   8.091  0.00  0.00    +0.000 A 
ATOM     13  C   UNL     1      44.881   4.291   9.138  0.00  0.00    +0.000 A 
ATOM     14  C   UNL     1      44.640   3.000   9.636  0.00  0.00    +0.000 A 
ATOM     15  C   UNL     1      45.344   1.923   9.076  0.00  0.00    +0.000 A 
BRANCH  10  17
ATOM     16  N   UNL     1      47.934   1.179   6.533  0.00  0.00    +0.000 N 
ATOM     17  C   UNL     1      46.954   0.948   7.458  0.00  0.00    +0.000 C 
ATOM     18  O   UNL     1      46.687  -0.191   7.820  0.00  0.00    +0.000 OA
ATOM     19  H   UNL     1      48.463   0.371   6.229  0.00  0.00    +0.000 HD
ATOM     20  H   UNL     1      48.345   2.090   6.390  0.00  0.00    +0.000 HD
ENDBRANCH  10  17
ENDBRANCH   9  14
ENDBRANCH   7   9
ENDBRANCH   1   7
BRANCH   4  21
ATOM     21  C   UNL     1      47.348   7.293  13.633  0.00  0.00    +0.000 C 
BRANCH  21  22
ATOM     22  N   UNL     1      47.814   7.216  14.993  0.00  0.00    +0.000 N 
ATOM     23  C   UNL     1      49.140   6.993  15.269  0.00  0.00    +0.000 C 
ATOM     24  O   UNL     1      49.983   6.906  14.380  0.00  0.00    +0.000 OA
ATOM     25  H   UNL     1      47.117   7.048  15.711  0.00  0.00    +0.000 HD
BRANCH  23  26
ATOM     26  C   UNL     1      49.512   6.925  16.686  0.00  0.00    +0.000 A 
ATOM     27  C   UNL     1      50.469   7.799  17.186  0.00  0.00    +0.000 A 
ATOM     28  S   UNL     1      50.748   7.625  18.859  0.00  0.00    +0.000 S 
ATOM     29  C   UNL     1      49.642   6.337  18.964  0.00  0.00    +0.000 A 
ATOM     30  N   UNL     1      49.422   5.699  20.146  0.00  0.00    +0.000 NA
ATOM     31  C   UNL     1      48.585   4.718  20.075  0.00  0.00    +0.000 A 
ATOM     32  N   UNL     1      47.943   4.321  18.930  0.00  0.00    +0.000 N 
ATOM     33  C   UNL     1      48.113   4.952  17.722  0.00  0.00    +0.000 A 
ATOM     34  O   UNL     1      47.495   4.593  16.724  0.00  0.00    +0.000 OA
ATOM     35  C   UNL     1      49.054   6.056  17.743  0.00  0.00    +0.000 A 
ATOM     36  H   UNL     1      47.295   3.547  18.942  0.00  0.00    +0.000 HD
ENDBRANCH  23  26
ENDBRANCH  21  22
ENDBRANCH   4  21
TORSDOF 7
ENDMDL
MODEL 2
REMARK VINA RESULT:    -8.115      3.406      5.338
REMARK INTER + INTRA:         -12.773
REMARK INTER:                 -11.430
REMARK INTRA:                  -1.343
REMARK UNBOUND:                -1.337
REMARK  Name = 
REMARK  7 active torsions:
REMARK  status: ('A' for Active; 'I' for Inactive)
REMARK    1  A    between atoms: C_2  and  C_4
REMARK    2  A    between atoms: C_8  and  C_9
REMARK    3  A    between atoms: C_9  and  N_10
REMARK    4  A    between atoms: N_10  and  C_11
REMARK    5  A    between atoms: C_14  and  C_15
REMARK    6  A    between atoms: C_15  and  N_16
REMARK    7  A    between atoms: C_17  and  C_19
REMARK                            x       y       z     vdW  Elec       q    Type
REMARK                         _______ _______ _______ _____ _____    ______ ____
ROOT
ATOM      1  C   UNL     1      45.042   3.652  12.533  0.00  0.00    +0.000 A 
ATOM      2  C   UNL     1      44.604   4.974  12.660  0.00  0.00    +0.000 A 
ATOM      3  C   UNL     1      45.450   5.966  13.181  0.00  0.00    +0.000 A 
ATOM      4  C   UNL     1      46.752   5.652  13.589  0.00  0.00    +0.000 A 
ATOM      5  C   UNL     1      47.156   4.314  13.551  0.00  0.00    +0.000 A 
ATOM      6  C   UNL     1      46.306   3.330  13.040  0.00  0.00    +0.000 A 
ENDROOT
BRANCH   1   7
ATOM      7  N   UNL     1      44.285   2.615  11.979  0.00  0.00    +0.000 N 
ATOM      8  H   UNL     1      43.649   2.224  12.671  0.00  0.00    +0.000 HD
BRANCH   7   9
ATOM      9  C   UNL     1      43.636   2.813  10.691  0.00  0.00    +0.000 C 
BRANCH   9  14
ATOM     10  C   UNL     1      46.282   2.130   8.005  0.00  0.00    +0.000 A 
ATOM     11  C   UNL     1      46.508   3.419   7.507  0.00  0.00    +0.000 A 
ATOM     12  C   UNL     1      45.846   4.509   8.075  0.00  0.00    +0.000 A 
ATOM     13  C   UNL     1      44.947   4.311   9.124  0.00  0.00    +0.000 A 
ATOM     14  C   UNL     1      44.686   3.023   9.620  0.00  0.00    +0.000 A 
ATOM     15  C   UNL     1      45.367   1.936   9.053  0.00  0.00    +0.000 A 
BRANCH  10  17
ATOM     16  N   UNL     1      47.800   1.140   6.370  0.00  0.00    +0.000 N 
ATOM     17  C   UNL     1      46.953   0.938   7.424  0.00  0.00    +0.000 C 
ATOM     18  O   UNL     1      46.785  -0.183   7.889  0.00  0.00    +0.000 OA
ATOM     19  H   UNL     1      48.322   0.333   6.054  0.00  0.00    +0.000 HD
ATOM     20  H   UNL     1      48.148   2.053   6.119  0.00  0.00    +0.000 HD
ENDBRANCH  10  17
ENDBRANCH   9  14
ENDBRANCH   7   9
ENDBRANCH   1   7
BRANCH   4  21
ATOM     21  C   UNL     1      47.702   6.716  14.073  0.00  0.00    +0.000 C 
BRANCH  21  22
ATOM     22  N   UNL     1      47.251   8.034  13.714  0.00  0.00    +0.000 N 
ATOM     23  C   UNL     1      47.765   8.679  12.618  0.00  0.00    +0.000 C 
ATOM     24  O   UNL     1      48.582   8.143  11.874  0.00  0.00    +0.000 OA
ATOM     25  H   UNL     1      46.772   8.569  14.432  0.00  0.00    +0.000 HD
BRANCH  23  26
ATOM     26  C   UNL     1      47.244  10.022  12.341  0.00  0.00    +0.000 A 
ATOM     27  C   UNL     1      48.046  11.131  12.578  0.00  0.00    +0.000 A 
ATOM     28  S   UNL     1      47.310  12.610  12.156  0.00  0.00    +0.000 S 
ATOM     29  C   UNL     1      45.872  11.825  11.696  0.00  0.00    +0.000 A 
ATOM     30  N   UNL     1      44.800  12.536  11.252  0.00  0.00    +0.000 NA
ATOM     31  C   UNL     1      43.765  11.818  10.971  0.00  0.00    +0.000 A 
ATOM     32  N   UNL     1      43.706  10.453  11.086  0.00  0.00    +0.000 N 
ATOM     33  C   UNL     1      44.772   9.693  11.503  0.00  0.00    +0.000 A 
ATOM     34  O   UNL     1      44.697   8.469  11.561  0.00  0.00    +0.000 OA
ATOM     35  C   UNL     1      45.959  10.453  11.845  0.00  0.00    +0.000 A 
ATOM     36  H   UNL     1      42.865   9.949  10.845  0.00  0.00    +0.000 HD
ENDBRANCH  23  26
ENDBRANCH  21  22
ENDBRANCH   4  21
TORSDOF 7
ENDMDL
MODEL 3
REMARK VINA RESULT:    -7.931      1.769      2.189
REMARK INTER + INTRA:         -12.513
REMARK INTER:                 -11.551
REMARK INTRA:                  -0.962
REMARK UNBOUND:                -1.337
REMARK  Name = 
REMARK  7 active torsions:
REMARK  status: ('A' for Active; 'I' for Inactive)
REMARK    1  A    between atoms: C_2  and  C_4
REMARK    2  A    between atoms: C_8  and  C_9
REMARK    3  A    between atoms: C_9  and  N_10
REMARK    4  A    between atoms: N_10  and  C_11
REMARK    5  A    between atoms: C_14  and  C_15
REMARK    6  A    between atoms: C_15  and  N_16
REMARK    7  A    between atoms: C_17  and  C_19
REMARK                            x       y       z     vdW  Elec       q    Type
REMARK                         _______ _______ _______ _____ _____    ______ ____
ROOT
ATOM      1  C   UNL     1      45.076   4.854  12.081  0.00  0.00    +0.000 A 
ATOM      2  C   UNL     1      45.721   4.106  13.070  0.00  0.00    +0.000 A 
ATOM      3  C   UNL     1      46.789   4.647  13.802  0.00  0.00    +0.000 A 
ATOM      4  C   UNL     1      47.235   5.952  13.555  0.00  0.00    +0.000 A 
ATOM      5  C   UNL     1      46.653   6.665  12.503  0.00  0.00    +0.000 A 
ATOM      6  C   UNL     1      45.597   6.115  11.771  0.00  0.00    +0.000 A 
ENDROOT
BRANCH   1   7
ATOM      7  N   UNL     1      43.975   4.411  11.340  0.00  0.00    +0.000 N 
ATOM      8  H   UNL     1      43.643   5.143  10.716  0.00  0.00    +0.000 HD
BRANCH   7   9
ATOM      9  C   UNL     1      44.034   3.115  10.680  0.00  0.00    +0.000 C 
BRANCH   9  14
ATOM     10  C   UNL     1      46.385   2.095   7.832  0.00  0.00    +0.000 A 
ATOM     11  C   UNL     1      46.596   3.324   7.195  0.00  0.00    +0.000 A 
ATOM     12  C   UNL     1      46.022   4.484   7.717  0.00  0.00    +0.000 A 
ATOM     13  C   UNL     1      45.225   4.415   8.861  0.00  0.00    +0.000 A 
ATOM     14  C   UNL     1      44.979   3.188   9.499  0.00  0.00    +0.000 A 
ATOM     15  C   UNL     1      45.572   2.030   8.975  0.00  0.00    +0.000 A 
BRANCH  10  17
ATOM     16  N   UNL     1      47.751   0.912   6.190  0.00  0.00    +0.000 N 
ATOM     17  C   UNL     1      46.964   0.831   7.306  0.00  0.00    +0.000 C 
ATOM     18  O   UNL     1      46.775  -0.243   7.864  0.00  0.00    +0.000 OA
ATOM     19  H   UNL     1      48.216   0.059   5.907  0.00  0.00    +0.000 HD
ATOM     20  H   UNL     1      48.124   1.786   5.850  0.00  0.00    +0.000 HD
ENDBRANCH  10  17
ENDBRANCH   9  14
ENDBRANCH   7   9
ENDBRANCH   1   7
BRANCH   4  21
ATOM     21  C   UNL     1      48.323   6.580  14.384  0.00  0.00    +0.000 C 
BRANCH  21  22
ATOM     22  N   UNL     1      48.111   6.364  15.791  0.00  0.00    +0.000 N 
ATOM     23  C   UNL     1      49.156   6.031  16.616  0.00  0.00    +0.000 C 
ATOM     24  O   UNL     1      50.310   5.959  16.205  0.00  0.00    +0.000 OA
ATOM     25  H   UNL     1      47.158   6.187  16.092  0.00  0.00    +0.000 HD
BRANCH  23  26
ATOM     26  C   UNL     1      48.834   5.827  18.033  0.00  0.00    +0.000 A 
ATOM     27  C   UNL     1      49.039   4.580  18.609  0.00  0.00    +0.000 A 
ATOM     28  S   UNL     1      48.665   4.524  20.272  0.00  0.00    +0.000 S 
ATOM     29  C   UNL     1      48.161   6.149  20.267  0.00  0.00    +0.000 A 
ATOM     30  N   UNL     1      47.683   6.736  21.399  0.00  0.00    +0.000 NA
ATOM     31  C   UNL     1      47.304   7.960  21.245  0.00  0.00    +0.000 A 
ATOM     32  N   UNL     1      47.364   8.654  20.064  0.00  0.00    +0.000 N 
ATOM     33  C   UNL     1      47.863   8.112  18.905  0.00  0.00    +0.000 A 
ATOM     34  O   UNL     1      47.936   8.772  17.872  0.00  0.00    +0.000 OA
ATOM     35  C   UNL     1      48.293   6.731  19.019  0.00  0.00    +0.000 A 
ATOM     36  H   UNL     1      47.055   9.613  20.011  0.00  0.00    +0.000 HD
ENDBRANCH  23  26
ENDBRANCH  21  22
ENDBRANCH   4  21
TORSDOF 7
ENDMDL
MODEL 4
REMARK VINA RESULT:    -7.691      3.172      8.602
REMARK INTER + INTRA:         -12.176
REMARK INTER:                 -10.541
REMARK INTRA:                  -1.634
REMARK UNBOUND:                -1.337
REMARK  Name = 
REMARK  7 active torsions:
REMARK  status: ('A' for Active; 'I' for Inactive)
REMARK    1  A    between atoms: C_2  and  C_4
REMARK    2  A    between atoms: C_8  and  C_9
REMARK    3  A    between atoms: C_9  and  N_10
REMARK    4  A    between atoms: N_10  and  C_11
REMARK    5  A    between atoms: C_14  and  C_15
REMARK    6  A    between atoms: C_15  and  N_16
REMARK    7  A    between atoms: C_17  and  C_19
REMARK                            x       y       z     vdW  Elec       q    Type
REMARK                         _______ _______ _______ _____ _____    ______ ____
ROOT
ATOM      1  C   UNL     1      49.623   7.902  16.026  0.00  0.00    +0.000 A 
ATOM      2  C   UNL     1      48.482   8.682  15.812  0.00  0.00    +0.000 A 
ATOM      3  C   UNL     1      47.875   8.740  14.547  0.00  0.00    +0.000 A 
ATOM      4  C   UNL     1      48.402   8.018  13.469  0.00  0.00    +0.000 A 
ATOM      5  C   UNL     1      49.595   7.314  13.659  0.00  0.00    +0.000 A 
ATOM      6  C   UNL     1      50.199   7.269  14.919  0.00  0.00    +0.000 A 
ENDROOT
BRANCH   1   7
ATOM      7  N   UNL     1      50.260   7.748  17.261  0.00  0.00    +0.000 N 
ATOM      8  H   UNL     1      50.744   8.604  17.525  0.00  0.00    +0.000 HD
BRANCH   7   9
ATOM      9  C   UNL     1      49.524   7.170  18.377  0.00  0.00    +0.000 C 
BRANCH   9  14
ATOM     10  C   UNL     1      49.351   3.472  17.388  0.00  0.00    +0.000 A 
ATOM     11  C   UNL     1      47.970   3.244  17.417  0.00  0.00    +0.000 A 
ATOM     12  C   UNL     1      47.098   4.295  17.703  0.00  0.00    +0.000 A 
ATOM     13  C   UNL     1      47.604   5.567  17.978  0.00  0.00    +0.000 A 
ATOM     14  C   UNL     1      48.987   5.810  17.981  0.00  0.00    +0.000 A 
ATOM     15  C   UNL     1      49.855   4.751  17.677  0.00  0.00    +0.000 A 
BRANCH  10  17
ATOM     16  N   UNL     1      51.385   2.245  17.946  0.00  0.00    +0.000 N 
ATOM     17  C   UNL     1      50.319   2.381  17.101  0.00  0.00    +0.000 C 
ATOM     18  O   UNL     1      50.157   1.609  16.164  0.00  0.00    +0.000 OA
ATOM     19  H   UNL     1      51.977   1.438  17.794  0.00  0.00    +0.000 HD
ATOM     20  H   UNL     1      51.425   2.693  18.850  0.00  0.00    +0.000 HD
ENDBRANCH  10  17
ENDBRANCH   9  14
ENDBRANCH   7   9
ENDBRANCH   1   7
BRANCH   4  21
ATOM     21  C   UNL     1      47.719   8.000  12.127  0.00  0.00    +0.000 C 
BRANCH  21  22
ATOM     22  N   UNL     1      47.016   6.765  11.905  0.00  0.00    +0.000 N 
ATOM     23  C   UNL     1      45.650   6.703  12.023  0.00  0.00    +0.000 C 
ATOM     24  O   UNL     1      44.974   7.698  12.266  0.00  0.00    +0.000 OA
ATOM     25  H   UNL     1      47.562   5.910  11.941  0.00  0.00    +0.000 HD
BRANCH  23  26
ATOM     26  C   UNL     1      45.029   5.396  11.781  0.00  0.00    +0.000 A 
ATOM     27  C   UNL     1      44.352   4.758  12.813  0.00  0.00    +0.000 A 
ATOM     28  S   UNL     1      43.646   3.275  12.353  0.00  0.00    +0.000 S 
ATOM     29  C   UNL     1      44.269   3.406  10.775  0.00  0.00    +0.000 A 
ATOM     30  N   UNL     1      44.049   2.428   9.855  0.00  0.00    +0.000 NA
ATOM     31  C   UNL     1      44.608   2.639   8.710  0.00  0.00    +0.000 A 
ATOM     32  N   UNL     1      45.362   3.742   8.400  0.00  0.00    +0.000 N 
ATOM     33  C   UNL     1      45.587   4.765   9.288  0.00  0.00    +0.000 A 
ATOM     34  O   UNL     1      46.237   5.756   8.967  0.00  0.00    +0.000 OA
ATOM     35  C   UNL     1      44.990   4.573  10.596  0.00  0.00    +0.000 A 
ATOM     36  H   UNL     1      45.769   3.849   7.483  0.00  0.00    +0.000 HD
ENDBRANCH  23  26
ENDBRANCH  21  22
ENDBRANCH   4  21
TORSDOF 7
ENDMDL
MODEL 5
REMARK VINA RESULT:    -7.438      2.052      2.968
REMARK INTER + INTRA:         -11.818
REMARK INTER:                 -10.436
REMARK INTRA:                  -1.382
REMARK UNBOUND:                -1.337
REMARK  Name = 
REMARK  7 active torsions:
REMARK  status: ('A' for Active; 'I' for Inactive)
REMARK    1  A    between atoms: C_2  and  C_4
REMARK    2  A    between atoms: C_8  and  C_9
REMARK    3  A    between atoms: C_9  and  N_10
REMARK    4  A    between atoms: N_10  and  C_11
REMARK    5  A    between atoms: C_14  and  C_15
REMARK    6  A    between atoms: C_15  and  N_16
REMARK    7  A    between atoms: C_17  and  C_19
REMARK                            x       y       z     vdW  Elec       q    Type
REMARK                         _______ _______ _______ _____ _____    ______ ____
ROOT
ATOM      1  C   UNL     1      45.304   7.632  11.680  0.00  0.00    +0.000 A 
ATOM      2  C   UNL     1      46.476   6.871  11.740  0.00  0.00    +0.000 A 
ATOM      3  C   UNL     1      47.513   7.213  12.622  0.00  0.00    +0.000 A 
ATOM      4  C   UNL     1      47.398   8.329  13.461  0.00  0.00    +0.000 A 
ATOM      5  C   UNL     1      46.268   9.142  13.334  0.00  0.00    +0.000 A 
ATOM      6  C   UNL     1      45.244   8.801  12.446  0.00  0.00    +0.000 A 
ENDROOT
BRANCH   1   7
ATOM      7  N   UNL     1      44.205   7.335  10.869  0.00  0.00    +0.000 N 
ATOM      8  H   UNL     1      44.505   7.114   9.922  0.00  0.00    +0.000 HD
BRANCH   7   9
ATOM      9  C   UNL     1      43.192   6.406  11.351  0.00  0.00    +0.000 C 
BRANCH   9  14
ATOM     10  C   UNL     1      44.737   3.463   9.445  0.00  0.00    +0.000 A 
ATOM     11  C   UNL     1      44.341   2.382  10.241  0.00  0.00    +0.000 A 
ATOM     12  C   UNL     1      43.536   2.600  11.359  0.00  0.00    +0.000 A 
ATOM     13  C   UNL     1      43.139   3.897  11.693  0.00  0.00    +0.000 A 
ATOM     14  C   UNL     1      43.548   4.998  10.922  0.00  0.00    +0.000 A 
ATOM     15  C   UNL     1      44.345   4.767   9.792  0.00  0.00    +0.000 A 
BRANCH  10  17
ATOM     16  N   UNL     1      46.101   2.029   8.017  0.00  0.00    +0.000 N 
ATOM     17  C   UNL     1      45.606   3.282   8.253  0.00  0.00    +0.000 C 
ATOM     18  O   UNL     1      45.845   4.207   7.487  0.00  0.00    +0.000 OA
ATOM     19  H   UNL     1      46.607   1.904   7.149  0.00  0.00    +0.000 HD
ATOM     20  H   UNL     1      45.739   1.206   8.473  0.00  0.00    +0.000 HD
ENDBRANCH  10  17
ENDBRANCH   9  14
ENDBRANCH   7   9
ENDBRANCH   1   7
BRANCH   4  21
ATOM     21  C   UNL     1      48.462   8.664  14.472  0.00  0.00    +0.000 C 
BRANCH  21  22
ATOM     22  N   UNL     1      48.521   7.685  15.526  0.00  0.00    +0.000 N 
ATOM     23  C   UNL     1      49.683   7.001  15.785  0.00  0.00    +0.000 C 
ATOM     24  O   UNL     1      50.722   7.232  15.173  0.00  0.00    +0.000 OA
ATOM     25  H   UNL     1      47.638   7.321  15.867  0.00  0.00    +0.000 HD
BRANCH  23  26
ATOM     26  C   UNL     1      49.638   6.021  16.875  0.00  0.00    +0.000 A 
ATOM     27  C   UNL     1      50.532   6.131  17.933  0.00  0.00    +0.000 A 
ATOM     28  S   UNL     1      50.313   4.947  19.140  0.00  0.00    +0.000 S 
ATOM     29  C   UNL     1      49.053   4.211  18.264  0.00  0.00    +0.000 A 
ATOM     30  N   UNL     1      48.431   3.097  18.738  0.00  0.00    +0.000 NA
ATOM     31  C   UNL     1      47.519   2.623  17.957  0.00  0.00    +0.000 A 
ATOM     32  N   UNL     1      47.168   3.164  16.748  0.00  0.00    +0.000 N 
ATOM     33  C   UNL     1      47.750   4.302  16.242  0.00  0.00    +0.000 A 
ATOM     34  O   UNL     1      47.387   4.781  15.172  0.00  0.00    +0.000 OA
ATOM     35  C   UNL     1      48.792   4.870  17.076  0.00  0.00    +0.000 A 
ATOM     36  H   UNL     1      46.442   2.747  16.184  0.00  0.00    +0.000 HD
ENDBRANCH  23  26
ENDBRANCH  21  22
ENDBRANCH   4  21
TORSDOF 7
ENDMDL
MODEL 6
REMARK VINA RESULT:    -7.338      3.624      8.000
REMARK INTER + INTRA:         -11.677
REMARK INTER:                  -9.977
REMARK INTRA:                  -1.700
REMARK UNBOUND:                -1.337
REMARK  Name = 
REMARK  7 active torsions:
REMARK  status: ('A' for Active; 'I' for Inactive)
REMARK    1  A    between atoms: C_2  and  C_4
REMARK    2  A    between atoms: C_8  and  C_9
REMARK    3  A    between atoms: C_9  and  N_10
REMARK    4  A    between atoms: N_10  and  C_11
REMARK    5  A    between atoms: C_14  and  C_15
REMARK    6  A    between atoms: C_15  and  N_16
REMARK    7  A    between atoms: C_17  and  C_19
REMARK                            x       y       z     vdW  Elec       q    Type
REMARK                         _______ _______ _______ _____ _____    ______ ____
ROOT
ATOM      1  C   UNL     1      49.585   7.755  18.364  0.00  0.00    +0.000 A 
ATOM      2  C   UNL     1      48.478   8.609  18.355  0.00  0.00    +0.000 A 
ATOM      3  C   UNL     1      48.048   9.218  17.165  0.00  0.00    +0.000 A 
ATOM      4  C   UNL     1      48.723   8.987  15.960  0.00  0.00    +0.000 A 
ATOM      5  C   UNL     1      49.885   8.211  15.988  0.00  0.00    +0.000 A 
ATOM      6  C   UNL     1      50.313   7.615  17.177  0.00  0.00    +0.000 A 
ENDROOT
BRANCH   1   7
ATOM      7  N   UNL     1      50.050   7.069  19.491  0.00  0.00    +0.000 N 
ATOM      8  H   UNL     1      50.374   7.722  20.202  0.00  0.00    +0.000 HD
BRANCH   7   9
ATOM      9  C   UNL     1      49.242   5.999  20.058  0.00  0.00    +0.000 C 
BRANCH   9  14
ATOM     10  C   UNL     1      49.253   3.144  17.504  0.00  0.00    +0.000 A 
ATOM     11  C   UNL     1      47.932   3.184  17.040  0.00  0.00    +0.000 A 
ATOM     12  C   UNL     1      47.060   4.164  17.513  0.00  0.00    +0.000 A 
ATOM     13  C   UNL     1      47.498   5.091  18.462  0.00  0.00    +0.000 A 
ATOM     14  C   UNL     1      48.811   5.050  18.960  0.00  0.00    +0.000 A 
ATOM     15  C   UNL     1      49.685   4.070  18.466  0.00  0.00    +0.000 A 
BRANCH  10  17
ATOM     16  N   UNL     1      51.230   1.765  17.887  0.00  0.00    +0.000 N 
ATOM     17  C   UNL     1      50.215   2.110  17.039  0.00  0.00    +0.000 C 
ATOM     18  O   UNL     1      50.090   1.560  15.952  0.00  0.00    +0.000 OA
ATOM     19  H   UNL     1      51.814   0.992  17.596  0.00  0.00    +0.000 HD
ATOM     20  H   UNL     1      51.228   2.010  18.866  0.00  0.00    +0.000 HD
ENDBRANCH  10  17
ENDBRANCH   9  14
ENDBRANCH   7   9
ENDBRANCH   1   7
BRANCH   4  21
ATOM     21  C   UNL     1      48.229   9.564  14.660  0.00  0.00    +0.000 C 
BRANCH  21  22
ATOM     22  N   UNL     1      47.154   8.784  14.106  0.00  0.00    +0.000 N 
ATOM     23  C   UNL     1      47.394   7.855  13.125  0.00  0.00    +0.000 C 
ATOM     24  O   UNL     1      48.528   7.614  12.722  0.00  0.00    +0.000 OA
ATOM     25  H   UNL     1      46.212   9.131  14.249  0.00  0.00    +0.000 HD
BRANCH  23  26
ATOM     26  C   UNL     1      46.230   7.117  12.623  0.00  0.00    +0.000 A 
ATOM     27  C   UNL     1      45.211   7.803  11.974  0.00  0.00    +0.000 A 
ATOM     28  S   UNL     1      43.959   6.793  11.408  0.00  0.00    +0.000 S 
ATOM     29  C   UNL     1      44.707   5.410  12.059  0.00  0.00    +0.000 A 
ATOM     30  N   UNL     1      44.127   4.184  11.947  0.00  0.00    +0.000 NA
ATOM     31  C   UNL     1      44.784   3.230  12.517  0.00  0.00    +0.000 A 
ATOM     32  N   UNL     1      45.972   3.389  13.183  0.00  0.00    +0.000 N 
ATOM     33  C   UNL     1      46.606   4.602  13.298  0.00  0.00    +0.000 A 
ATOM     34  O   UNL     1      47.687   4.703  13.871  0.00  0.00    +0.000 OA
ATOM     35  C   UNL     1      45.903   5.712  12.685  0.00  0.00    +0.000 A 
ATOM     36  H   UNL     1      46.439   2.599  13.605  0.00  0.00    +0.000 HD
ENDBRANCH  23  26
ENDBRANCH  21  22
ENDBRANCH   4  21
TORSDOF 7
ENDMDL
MODEL 7
REMARK VINA RESULT:    -7.256      4.109      4.803
REMARK INTER + INTRA:         -11.562
REMARK INTER:                 -10.611
REMARK INTRA:                  -0.951
REMARK UNBOUND:                -1.337
REMARK  Name = 
REMARK  7 active torsions:
REMARK  status: ('A' for Active; 'I' for Inactive)
REMARK    1  A    between atoms: C_2  and  C_4
REMARK    2  A    between atoms: C_8  and  C_9
REMARK    3  A    between atoms: C_9  and  N_10
REMARK    4  A    between atoms: N_10  and  C_11
REMARK    5  A    between atoms: C_14  and  C_15
REMARK    6  A    between atoms: C_15  and  N_16
REMARK    7  A    between atoms: C_17  and  C_19
REMARK                            x       y       z     vdW  Elec       q    Type
REMARK                         _______ _______ _______ _____ _____    ______ ____
ROOT
ATOM      1  C   UNL     1      44.674   4.202  11.957  0.00  0.00    +0.000 A 
ATOM      2  C   UNL     1      43.640   5.111  11.713  0.00  0.00    +0.000 A 
ATOM      3  C   UNL     1      43.797   6.475  12.003  0.00  0.00    +0.000 A 
ATOM      4  C   UNL     1      44.994   6.956  12.548  0.00  0.00    +0.000 A 
ATOM      5  C   UNL     1      45.991   6.034  12.879  0.00  0.00    +0.000 A 
ATOM      6  C   UNL     1      45.824   4.676  12.596  0.00  0.00    +0.000 A 
ENDROOT
BRANCH   1   7
ATOM      7  N   UNL     1      44.620   2.838  11.652  0.00  0.00    +0.000 N 
ATOM      8  H   UNL     1      44.212   2.312  12.422  0.00  0.00    +0.000 HD
BRANCH   7   9
ATOM      9  C   UNL     1      44.094   2.414  10.362  0.00  0.00    +0.000 C 
BRANCH   9  14
ATOM     10  C   UNL     1      46.616   2.173   7.488  0.00  0.00    +0.000 A 
ATOM     11  C   UNL     1      46.739   3.517   7.115  0.00  0.00    +0.000 A 
ATOM     12  C   UNL     1      46.049   4.500   7.826  0.00  0.00    +0.000 A 
ATOM     13  C   UNL     1      45.224   4.142   8.894  0.00  0.00    +0.000 A 
ATOM     14  C   UNL     1      45.067   2.796   9.266  0.00  0.00    +0.000 A 
ATOM     15  C   UNL     1      45.776   1.817   8.555  0.00  0.00    +0.000 A 
BRANCH  10  17
ATOM     16  N   UNL     1      48.351   1.450   5.931  0.00  0.00    +0.000 N 
ATOM     17  C   UNL     1      47.320   1.089   6.753  0.00  0.00    +0.000 C 
ATOM     18  O   UNL     1      47.016  -0.089   6.900  0.00  0.00    +0.000 OA
ATOM     19  H   UNL     1      48.881   0.692   5.518  0.00  0.00    +0.000 HD
ATOM     20  H   UNL     1      48.783   2.361   5.967  0.00  0.00    +0.000 HD
ENDBRANCH  10  17
ENDBRANCH   9  14
ENDBRANCH   7   9
ENDBRANCH   1   7
BRANCH   4  21
ATOM     21  C   UNL     1      45.213   8.426  12.788  0.00  0.00    +0.000 C 
BRANCH  21  22
ATOM     22  N   UNL     1      46.419   8.894  12.159  0.00  0.00    +0.000 N 
ATOM     23  C   UNL     1      47.508   9.260  12.911  0.00  0.00    +0.000 C 
ATOM     24  O   UNL     1      47.518   9.152  14.134  0.00  0.00    +0.000 OA
ATOM     25  H   UNL     1      46.346   9.210  11.198  0.00  0.00    +0.000 HD
BRANCH  23  26
ATOM     26  C   UNL     1      48.687   9.729  12.175  0.00  0.00    +0.000 A 
ATOM     27  C   UNL     1      48.787  11.069  11.825  0.00  0.00    +0.000 A 
ATOM     28  S   UNL     1      50.240  11.459  11.020  0.00  0.00    +0.000 S 
ATOM     29  C   UNL     1      50.759   9.839  11.060  0.00  0.00    +0.000 A 
ATOM     30  N   UNL     1      51.944   9.472  10.501  0.00  0.00    +0.000 NA
ATOM     31  C   UNL     1      52.198   8.208  10.572  0.00  0.00    +0.000 A 
ATOM     32  N   UNL     1      51.377   7.278  11.156  0.00  0.00    +0.000 N 
ATOM     33  C   UNL     1      50.186   7.607  11.756  0.00  0.00    +0.000 A 
ATOM     34  O   UNL     1      49.491   6.755  12.302  0.00  0.00    +0.000 OA
ATOM     35  C   UNL     1      49.846   9.016  11.694  0.00  0.00    +0.000 A 
ATOM     36  H   UNL     1      51.635   6.303  11.182  0.00  0.00    +0.000 HD
ENDBRANCH  23  26
ENDBRANCH  21  22
ENDBRANCH   4  21
TORSDOF 7
ENDMDL
MODEL 8
REMARK VINA RESULT:    -7.254      3.723      8.271
REMARK INTER + INTRA:         -11.560
REMARK INTER:                  -9.374
REMARK INTRA:                  -2.186
REMARK UNBOUND:                -1.337
REMARK  Name = 
REMARK  7 active torsions:
REMARK  status: ('A' for Active; 'I' for Inactive)
REMARK    1  A    between atoms: C_2  and  C_4
REMARK    2  A    between atoms: C_8  and  C_9
REMARK    3  A    between atoms: C_9  and  N_10
REMARK    4  A    between atoms: N_10  and  C_11
REMARK    5  A    between atoms: C_14  and  C_15
REMARK    6  A    between atoms: C_15  and  N_16
REMARK    7  A    between atoms: C_17  and  C_19
REMARK                            x       y       z     vdW  Elec       q    Type
REMARK                         _______ _______ _______ _____ _____    ______ ____
ROOT
ATOM      1  C   UNL     1      49.638   7.784  19.142  0.00  0.00    +0.000 A 
ATOM      2  C   UNL     1      48.373   8.375  19.071  0.00  0.00    +0.000 A 
ATOM      3  C   UNL     1      47.910   8.946  17.875  0.00  0.00    +0.000 A 
ATOM      4  C   UNL     1      48.709   8.939  16.725  0.00  0.00    +0.000 A 
ATOM      5  C   UNL     1      50.009   8.434  16.821  0.00  0.00    +0.000 A 
ATOM      6  C   UNL     1      50.467   7.876  18.018  0.00  0.00    +0.000 A 
ENDROOT
BRANCH   1   7
ATOM      7  N   UNL     1      50.157   7.149  20.275  0.00  0.00    +0.000 N 
ATOM      8  H   UNL     1      50.175   7.787  21.068  0.00  0.00    +0.000 HD
BRANCH   7   9
ATOM      9  C   UNL     1      49.660   5.832  20.646  0.00  0.00    +0.000 C 
BRANCH   9  14
ATOM     10  C   UNL     1      49.342   3.398  17.703  0.00  0.00    +0.000 A 
ATOM     11  C   UNL     1      50.686   3.114  17.435  0.00  0.00    +0.000 A 
ATOM     12  C   UNL     1      51.686   3.666  18.236  0.00  0.00    +0.000 A 
ATOM     13  C   UNL     1      51.347   4.515  19.292  0.00  0.00    +0.000 A 
ATOM     14  C   UNL     1      50.006   4.834  19.561  0.00  0.00    +0.000 A 
ATOM     15  C   UNL     1      49.007   4.262  18.759  0.00  0.00    +0.000 A 
BRANCH  10  17
ATOM     16  N   UNL     1      46.980   2.862  17.397  0.00  0.00    +0.000 N 
ATOM     17  C   UNL     1      48.242   2.845  16.870  0.00  0.00    +0.000 C 
ATOM     18  O   UNL     1      48.446   2.418  15.740  0.00  0.00    +0.000 OA
ATOM     19  H   UNL     1      46.233   2.574  16.778  0.00  0.00    +0.000 HD
ATOM     20  H   UNL     1      46.735   3.415  18.205  0.00  0.00    +0.000 HD
ENDBRANCH  10  17
ENDBRANCH   9  14
ENDBRANCH   7   9
ENDBRANCH   1   7
BRANCH   4  21
ATOM     21  C   UNL     1      48.200   9.472  15.412  0.00  0.00    +0.000 C 
BRANCH  21  22
ATOM     22  N   UNL     1      47.307   8.543  14.772  0.00  0.00    +0.000 N 
ATOM     23  C   UNL     1      47.246   8.455  13.404  0.00  0.00    +0.000 C 
ATOM     24  O   UNL     1      47.981   9.119  12.677  0.00  0.00    +0.000 OA
ATOM     25  H   UNL     1      46.545   8.174  15.332  0.00  0.00    +0.000 HD
BRANCH  23  26
ATOM     26  C   UNL     1      46.299   7.482  12.850  0.00  0.00    +0.000 A 
ATOM     27  C   UNL     1      45.247   7.923  12.057  0.00  0.00    +0.000 A 
ATOM     28  S   UNL     1      44.271   6.662  11.452  0.00  0.00    +0.000 S 
ATOM     29  C   UNL     1      45.186   5.487  12.274  0.00  0.00    +0.000 A 
ATOM     30  N   UNL     1      44.857   4.168  12.200  0.00  0.00    +0.000 NA
ATOM     31  C   UNL     1      45.613   3.390  12.900  0.00  0.00    +0.000 A 
ATOM     32  N   UNL     1      46.672   3.810  13.662  0.00  0.00    +0.000 N 
ATOM     33  C   UNL     1      47.057   5.126  13.745  0.00  0.00    +0.000 A 
ATOM     34  O   UNL     1      48.033   5.464  14.409  0.00  0.00    +0.000 OA
ATOM     35  C   UNL     1      46.232   6.046  12.986  0.00  0.00    +0.000 A 
ATOM     36  H   UNL     1      47.229   3.149  14.185  0.00  0.00    +0.000 HD
ENDBRANCH  23  26
ENDBRANCH  21  22
ENDBRANCH   4  21
TORSDOF 7
ENDMDL
MODEL 9
REMARK VINA RESULT:    -7.188      3.739      8.389
REMARK INTER + INTRA:         -11.467
REMARK INTER:                 -10.125
REMARK INTRA:                  -1.342
REMARK UNBOUND:                -1.337
REMARK  Name = 
REMARK  7 active torsions:
REMARK  status: ('A' for Active; 'I' for Inactive)
REMARK    1  A    between atoms: C_2  and  C_4
REMARK    2  A    between atoms: C_8  and  C_9
REMARK    3  A    between atoms: C_9  and  N_10
REMARK    4  A    between atoms: N_10  and  C_11
REMARK    5  A    between atoms: C_14  and  C_15
REMARK    6  A    between atoms: C_15  and  N_16
REMARK    7  A    between atoms: C_17  and  C_19
REMARK                            x       y       z     vdW  Elec       q    Type
REMARK                         _______ _______ _______ _____ _____    ______ ____
ROOT
ATOM      1  C   UNL     1      49.874   7.811  16.105  0.00  0.00    +0.000 A 
ATOM      2  C   UNL     1      50.235   7.150  14.927  0.00  0.00    +0.000 A 
ATOM      3  C   UNL     1      49.528   7.364  13.734  0.00  0.00    +0.000 A 
ATOM      4  C   UNL     1      48.440   8.245  13.697  0.00  0.00    +0.000 A 
ATOM      5  C   UNL     1      48.021   8.833  14.894  0.00  0.00    +0.000 A 
ATOM      6  C   UNL     1      48.724   8.607  16.081  0.00  0.00    +0.000 A 
ENDROOT
BRANCH   1   7
ATOM      7  N   UNL     1      50.553   7.694  17.322  0.00  0.00    +0.000 N 
ATOM      8  H   UNL     1      51.029   8.563  17.553  0.00  0.00    +0.000 HD
BRANCH   7   9
ATOM      9  C   UNL     1      49.864   7.125  18.471  0.00  0.00    +0.000 C 
BRANCH   9  14
ATOM     10  C   UNL     1      49.345   3.480  17.414  0.00  0.00    +0.000 A 
ATOM     11  C   UNL     1      47.953   3.362  17.506  0.00  0.00    +0.000 A 
ATOM     12  C   UNL     1      47.184   4.471  17.857  0.00  0.00    +0.000 A 
ATOM     13  C   UNL     1      47.803   5.692  18.134  0.00  0.00    +0.000 A 
ATOM     14  C   UNL     1      49.200   5.824  18.074  0.00  0.00    +0.000 A 
ATOM     15  C   UNL     1      49.964   4.706  17.705  0.00  0.00    +0.000 A 
BRANCH  10  17
ATOM     16  N   UNL     1      51.268   2.049  17.875  0.00  0.00    +0.000 N 
ATOM     17  C   UNL     1      50.207   2.323  17.057  0.00  0.00    +0.000 C 
ATOM     18  O   UNL     1      49.963   1.616  16.087  0.00  0.00    +0.000 OA
ATOM     19  H   UNL     1      51.783   1.201  17.673  0.00  0.00    +0.000 HD
ATOM     20  H   UNL     1      51.360   2.446  18.798  0.00  0.00    +0.000 HD
ENDBRANCH  10  17
ENDBRANCH   9  14
ENDBRANCH   7   9
ENDBRANCH   1   7
BRANCH   4  21
ATOM     21  C   UNL     1      47.721   8.553  12.411  0.00  0.00    +0.000 C 
BRANCH  21  22
ATOM     22  N   UNL     1      47.214   7.360  11.786  0.00  0.00    +0.000 N 
ATOM     23  C   UNL     1      45.876   7.220  11.520  0.00  0.00    +0.000 C 
ATOM     24  O   UNL     1      45.071   8.118  11.749  0.00  0.00    +0.000 OA
ATOM     25  H   UNL     1      47.809   6.538  11.812  0.00  0.00    +0.000 HD
BRANCH  23  26
ATOM     26  C   UNL     1      45.460   5.963  10.886  0.00  0.00    +0.000 A 
ATOM     27  C   UNL     1      45.803   5.717   9.563  0.00  0.00    +0.000 A 
ATOM     28  S   UNL     1      45.290   4.193   8.996  0.00  0.00    +0.000 S 
ATOM     29  C   UNL     1      44.542   3.832  10.481  0.00  0.00    +0.000 A 
ATOM     30  N   UNL     1      43.878   2.658  10.661  0.00  0.00    +0.000 NA
ATOM     31  C   UNL     1      43.329   2.530  11.823  0.00  0.00    +0.000 A 
ATOM     32  N   UNL     1      43.389   3.466  12.823  0.00  0.00    +0.000 N 
ATOM     33  C   UNL     1      44.071   4.651  12.695  0.00  0.00    +0.000 A 
ATOM     34  O   UNL     1      44.135   5.452  13.623  0.00  0.00    +0.000 OA
ATOM     35  C   UNL     1      44.697   4.852  11.402  0.00  0.00    +0.000 A 
ATOM     36  H   UNL     1      42.941   3.303  13.713  0.00  0.00    +0.000 HD
ENDBRANCH  23  26
ENDBRANCH  21  22
ENDBRANCH   4  21
TORSDOF 7
ENDMDL
