MODEL 1
REMARK VINA RESULT:    -7.748      0.000      0.000
REMARK INTER + INTRA:         -11.672
REMARK INTER:                 -10.919
REMARK INTRA:                  -0.753
REMARK UNBOUND:                -0.753
REMARK  Name = 
REMARK  8 active torsions:
REMARK  status: ('A' for Active; 'I' for Inactive)
REMARK    1  A    between atoms: C_1  and  O_2
REMARK    2  A    between atoms: O_2  and  C_3
REMARK    3  A    between atoms: C_7  and  C_8
REMARK    4  A    between atoms: N_10  and  C_11
REMARK    5  A    between atoms: C_11  and  C_12
REMARK    6  A    between atoms: C_15  and  C_16
REMARK    7  A    between atoms: C_16  and  N_17
REMARK    8  A    between atoms: C_18  and  C_20
REMARK                            x       y       z     vdW  Elec       q    Type
REMARK                         _______ _______ _______ _____ _____    ______ ____
ROOT
ATOM      1  C   UNL     1      44.761   4.988  11.444  0.00  0.00    +0.000 A 
ATOM      2  C   UNL     1      44.622   6.375  11.298  0.00  0.00    +0.000 A 
ATOM      3  C   UNL     1      45.487   7.254  11.960  0.00  0.00    +0.000 A 
ATOM      4  C   UNL     1      46.522   6.764  12.768  0.00  0.00    +0.000 A 
ATOM      5  C   UNL     1      46.657   5.378  12.919  0.00  0.00    +0.000 A 
ATOM      6  C   UNL     1      45.793   4.499  12.256  0.00  0.00    +0.000 A 
ENDROOT
BRANCH   1   7
ATOM      7  C   UNL     1      43.844   4.040  10.710  0.00  0.00    +0.000 C 
BRANCH   7  10
ATOM      8  C   UNL     1      45.197   3.823   8.668  0.00  0.00    +0.000 C 
ATOM      9  O   UNL     1      45.137   5.019   8.412  0.00  0.00    +0.000 OA
ATOM     10  N   UNL     1      44.579   3.243   9.756  0.00  0.00    +0.000 N 
ATOM     11  H   UNL     1      44.847   2.310  10.037  0.00  0.00    +0.000 HD
BRANCH   8  16
ATOM     12  C   UNL     1      46.876   0.667   7.416  0.00  0.00    +0.000 A 
ATOM     13  C   UNL     1      47.443   1.114   6.221  0.00  0.00    +0.000 A 
ATOM     14  C   UNL     1      47.308   2.450   5.832  0.00  0.00    +0.000 A 
ATOM     15  C   UNL     1      46.589   3.342   6.628  0.00  0.00    +0.000 A 
ATOM     16  C   UNL     1      46.001   2.899   7.818  0.00  0.00    +0.000 A 
ATOM     17  C   UNL     1      46.168   1.568   8.220  0.00  0.00    +0.000 A 
BRANCH  12  19
ATOM     18  C   UNL     1      46.581  -1.656   6.997  0.00  0.00    +0.000 C 
ATOM     19  O   UNL     1      46.938  -0.612   7.897  0.00  0.00    +0.000 OA
ENDBRANCH  12  19
ENDBRANCH   8  16
ENDBRANCH   7  10
ENDBRANCH   1   7
BRANCH   4  20
ATOM     20  C   UNL     1      47.454   7.705  13.490  0.00  0.00    +0.000 C 
BRANCH  20  21
ATOM     21  N   UNL     1      47.755   7.234  14.818  0.00  0.00    +0.000 N 
ATOM     22  C   UNL     1      49.041   6.935  15.191  0.00  0.00    +0.000 C 
ATOM     23  O   UNL     1      49.993   7.106  14.434  0.00  0.00    +0.000 OA
ATOM     24  H   UNL     1      46.979   6.872  15.365  0.00  0.00    +0.000 HD
BRANCH  22  25
ATOM     25  C   UNL     1      49.236   6.454  16.566  0.00  0.00    +0.000 A 
ATOM     26  C   UNL     1      49.942   7.233  17.473  0.00  0.00    +0.000 A 
ATOM     27  S   UNL     1      50.037   6.551  19.035  0.00  0.00    +0.000 S 
ATOM     28  C   UNL     1      49.184   5.165  18.539  0.00  0.00    +0.000 A 
ATOM     29  N   UNL     1      48.941   4.147  19.408  0.00  0.00    +0.000 NA
ATOM     30  C   UNL     1      48.316   3.142  18.891  0.00  0.00    +0.000 A 
ATOM     31  N   UNL     1      47.907   3.067  17.584  0.00  0.00    +0.000 N 
ATOM     32  C   UNL     1      48.103   4.083  16.679  0.00  0.00    +0.000 A 
ATOM     33  O   UNL     1      47.685   4.002  15.529  0.00  0.00    +0.000 OA
ATOM     34  C   UNL     1      48.815   5.230  17.207  0.00  0.00    +0.000 A 
ATOM     35  H   UNL     1      47.413   2.256  17.243  0.00  0.00    +0.000 HD
ENDBRANCH  22  25
ENDBRANCH  20  21
ENDBRANCH   4  20
TORSDOF 7
ENDMDL
MODEL 2
REMARK VINA RESULT:    -7.725      1.961      2.633
REMARK INTER + INTRA:         -11.640
REMARK INTER:                 -10.632
REMARK INTRA:                  -1.008
REMARK UNBOUND:                -0.753
REMARK  Name = 
REMARK  8 active torsions:
REMARK  status: ('A' for Active; 'I' for Inactive)
REMARK    1  A    between atoms: C_1  and  O_2
REMARK    2  A    between atoms: O_2  and  C_3
REMARK    3  A    between atoms: C_7  and  C_8
REMARK    4  A    between atoms: N_10  and  C_11
REMARK    5  A    between atoms: C_11  and  C_12
REMARK    6  A    between atoms: C_15  and  C_16
REMARK    7  A    between atoms: C_16  and  N_17
REMARK    8  A    between atoms: C_18  and  C_20
REMARK                            x       y       z     vdW  Elec       q    Type
REMARK                         _______ _______ _______ _____ _____    ______ ____
ROOT
ATOM      1  C   UNL     1      45.206   5.484  11.558  0.00  0.00    +0.000 A 
ATOM      2  C   UNL     1      45.678   6.794  11.399  0.00  0.00    +0.000 A 
ATOM      3  C   UNL     1      46.704   7.288  12.213  0.00  0.00    +0.000 A 
ATOM      4  C   UNL     1      47.292   6.476  13.192  0.00  0.00    +0.000 A 
ATOM      5  C   UNL     1      46.816   5.169  13.356  0.00  0.00    +0.000 A 
ATOM      6  C   UNL     1      45.791   4.675  12.541  0.00  0.00    +0.000 A 
ENDROOT
BRANCH   1   7
ATOM      7  C   UNL     1      44.117   4.944  10.664  0.00  0.00    +0.000 C 
BRANCH   7  10
ATOM      8  C   UNL     1      45.428   4.129   8.750  0.00  0.00    +0.000 C 
ATOM      9  O   UNL     1      45.750   5.256   8.396  0.00  0.00    +0.000 OA
ATOM     10  N   UNL     1      44.613   3.872   9.833  0.00  0.00    +0.000 N 
ATOM     11  H   UNL     1      44.568   2.934  10.205  0.00  0.00    +0.000 HD
BRANCH   8  16
ATOM     12  C   UNL     1      46.982   1.962   6.061  0.00  0.00    +0.000 A 
ATOM     13  C   UNL     1      46.993   0.714   6.686  0.00  0.00    +0.000 A 
ATOM     14  C   UNL     1      46.468   0.566   7.974  0.00  0.00    +0.000 A 
ATOM     15  C   UNL     1      45.945   1.669   8.649  0.00  0.00    +0.000 A 
ATOM     16  C   UNL     1      45.947   2.927   8.037  0.00  0.00    +0.000 A 
ATOM     17  C   UNL     1      46.443   3.064   6.734  0.00  0.00    +0.000 A 
BRANCH  12  19
ATOM     18  C   UNL     1      47.048   1.366   3.758  0.00  0.00    +0.000 C 
ATOM     19  O   UNL     1      47.468   2.229   4.810  0.00  0.00    +0.000 OA
ENDBRANCH  12  19
ENDBRANCH   8  16
ENDBRANCH   7  10
ENDBRANCH   1   7
BRANCH   4  20
ATOM     20  C   UNL     1      48.394   7.003  14.077  0.00  0.00    +0.000 C 
BRANCH  20  21
ATOM     21  N   UNL     1      48.181   6.643  15.456  0.00  0.00    +0.000 N 
ATOM     22  C   UNL     1      49.228   6.282  16.266  0.00  0.00    +0.000 C 
ATOM     23  O   UNL     1      50.390   6.302  15.871  0.00  0.00    +0.000 OA
ATOM     24  H   UNL     1      47.232   6.400  15.727  0.00  0.00    +0.000 HD
BRANCH  22  25
ATOM     25  C   UNL     1      48.898   5.925  17.653  0.00  0.00    +0.000 A 
ATOM     26  C   UNL     1      49.109   4.627  18.098  0.00  0.00    +0.000 A 
ATOM     27  S   UNL     1      48.719   4.395  19.743  0.00  0.00    +0.000 S 
ATOM     28  C   UNL     1      48.203   6.007  19.904  0.00  0.00    +0.000 A 
ATOM     29  N   UNL     1      47.709   6.468  21.085  0.00  0.00    +0.000 NA
ATOM     30  C   UNL     1      47.321   7.700  21.057  0.00  0.00    +0.000 A 
ATOM     31  N   UNL     1      47.389   8.513  19.956  0.00  0.00    +0.000 N 
ATOM     32  C   UNL     1      47.908   8.102  18.752  0.00  0.00    +0.000 A 
ATOM     33  O   UNL     1      47.995   8.868  17.799  0.00  0.00    +0.000 OA
ATOM     34  C   UNL     1      48.345   6.719  18.726  0.00  0.00    +0.000 A 
ATOM     35  H   UNL     1      47.078   9.472  20.002  0.00  0.00    +0.000 HD
ENDBRANCH  22  25
ENDBRANCH  20  21
ENDBRANCH   4  20
TORSDOF 7
ENDMDL
MODEL 3
REMARK VINA RESULT:    -7.522      1.978      3.529
REMARK INTER + INTRA:         -11.353
REMARK INTER:                 -10.124
REMARK INTRA:                  -1.229
REMARK UNBOUND:                -0.753
REMARK  Name = 
REMARK  8 active torsions:
REMARK  status: ('A' for Active; 'I' for Inactive)
REMARK    1  A    between atoms: C_1  and  O_2
REMARK    2  A    between atoms: O_2  and  C_3
REMARK    3  A    between atoms: C_7  and  C_8
REMARK    4  A    between atoms: N_10  and  C_11
REMARK    5  A    between atoms: C_11  and  C_12
REMARK    6  A    between atoms: C_15  and  C_16
REMARK    7  A    between atoms: C_16  and  N_17
REMARK    8  A    between atoms: C_18  and  C_20
REMARK                            x       y       z     vdW  Elec       q    Type
REMARK                         _______ _______ _______ _____ _____    ______ ____
ROOT
ATOM      1  C   UNL     1      44.718   4.528  11.431  0.00  0.00    +0.000 A 
ATOM      2  C   UNL     1      45.029   5.776  11.989  0.00  0.00    +0.000 A 
ATOM      3  C   UNL     1      45.791   5.866  13.159  0.00  0.00    +0.000 A 
ATOM      4  C   UNL     1      46.275   4.710  13.787  0.00  0.00    +0.000 A 
ATOM      5  C   UNL     1      45.959   3.463  13.234  0.00  0.00    +0.000 A 
ATOM      6  C   UNL     1      45.197   3.373  12.063  0.00  0.00    +0.000 A 
ENDROOT
BRANCH   1   7
ATOM      7  C   UNL     1      43.917   4.432  10.156  0.00  0.00    +0.000 C 
BRANCH   7  10
ATOM      8  C   UNL     1      45.569   4.014   8.383  0.00  0.00    +0.000 C 
ATOM      9  O   UNL     1      45.958   5.175   8.370  0.00  0.00    +0.000 OA
ATOM     10  N   UNL     1      44.560   3.556   9.205  0.00  0.00    +0.000 N 
ATOM     11  H   UNL     1      44.441   2.561   9.333  0.00  0.00    +0.000 HD
BRANCH   8  16
ATOM     12  C   UNL     1      46.937   0.684   7.206  0.00  0.00    +0.000 A 
ATOM     13  C   UNL     1      47.348   1.000   5.909  0.00  0.00    +0.000 A 
ATOM     14  C   UNL     1      47.209   2.303   5.423  0.00  0.00    +0.000 A 
ATOM     15  C   UNL     1      46.643   3.294   6.225  0.00  0.00    +0.000 A 
ATOM     16  C   UNL     1      46.211   2.983   7.519  0.00  0.00    +0.000 A 
ATOM     17  C   UNL     1      46.383   1.684   8.013  0.00  0.00    +0.000 A 
BRANCH  12  19
ATOM     18  C   UNL     1      46.633  -1.666   6.989  0.00  0.00    +0.000 C 
ATOM     19  O   UNL     1      47.018  -0.551   7.787  0.00  0.00    +0.000 OA
ENDBRANCH  12  19
ENDBRANCH   8  16
ENDBRANCH   7  10
ENDBRANCH   1   7
BRANCH   4  20
ATOM     20  C   UNL     1      47.092   4.799  15.052  0.00  0.00    +0.000 C 
BRANCH  20  21
ATOM     21  N   UNL     1      48.057   5.867  14.984  0.00  0.00    +0.000 N 
ATOM     22  C   UNL     1      48.595   6.412  16.123  0.00  0.00    +0.000 C 
ATOM     23  O   UNL     1      48.322   5.980  17.240  0.00  0.00    +0.000 OA
ATOM     24  H   UNL     1      48.115   6.380  14.109  0.00  0.00    +0.000 HD
BRANCH  22  25
ATOM     25  C   UNL     1      49.564   7.502  15.941  0.00  0.00    +0.000 A 
ATOM     26  C   UNL     1      50.824   7.405  16.514  0.00  0.00    +0.000 A 
ATOM     27  S   UNL     1      51.839   8.732  16.168  0.00  0.00    +0.000 S 
ATOM     28  C   UNL     1      50.611   9.509  15.284  0.00  0.00    +0.000 A 
ATOM     29  N   UNL     1      50.819  10.733  14.727  0.00  0.00    +0.000 NA
ATOM     30  C   UNL     1      49.792  11.222  14.115  0.00  0.00    +0.000 A 
ATOM     31  N   UNL     1      48.578  10.594  14.007  0.00  0.00    +0.000 N 
ATOM     32  C   UNL     1      48.331   9.346  14.526  0.00  0.00    +0.000 A 
ATOM     33  O   UNL     1      47.247   8.794  14.373  0.00  0.00    +0.000 OA
ATOM     34  C   UNL     1      49.450   8.758  15.237  0.00  0.00    +0.000 A 
ATOM     35  H   UNL     1      47.815  11.027  13.505  0.00  0.00    +0.000 HD
ENDBRANCH  22  25
ENDBRANCH  20  21
ENDBRANCH   4  20
TORSDOF 7
ENDMDL
MODEL 4
REMARK VINA RESULT:    -7.336      1.973      3.179
REMARK INTER + INTRA:         -11.091
REMARK INTER:                  -9.984
REMARK INTRA:                  -1.107
REMARK UNBOUND:                -0.753
REMARK  Name = 
REMARK  8 active torsions:
REMARK  status: ('A' for Active; 'I' for Inactive)
REMARK    1  A    between atoms: C_1  and  O_2
REMARK    2  A    between atoms: O_2  and  C_3
REMARK    3  A    between atoms: C_7  and  C_8
REMARK    4  A    between atoms: N_10  and  C_11
REMARK    5  A    between atoms: C_11  and  C_12
REMARK    6  A    between atoms: C_15  and  C_16
REMARK    7  A    between atoms: C_16  and  N_17
REMARK    8  A    between atoms: C_18  and  C_20
REMARK                            x       y       z     vdW  Elec       q    Type
REMARK                         _______ _______ _______ _____ _____    ______ ____
ROOT
ATOM      1  C   UNL     1      45.347   4.683  11.900  0.00  0.00    +0.000 A 
ATOM      2  C   UNL     1      45.809   5.787  12.629  0.00  0.00    +0.000 A 
ATOM      3  C   UNL     1      46.534   5.610  13.813  0.00  0.00    +0.000 A 
ATOM      4  C   UNL     1      46.830   4.323  14.283  0.00  0.00    +0.000 A 
ATOM      5  C   UNL     1      46.363   3.219  13.558  0.00  0.00    +0.000 A 
ATOM      6  C   UNL     1      45.638   3.397  12.374  0.00  0.00    +0.000 A 
ENDROOT
BRANCH   1   7
ATOM      7  C   UNL     1      44.585   4.875  10.612  0.00  0.00    +0.000 C 
BRANCH   7  10
ATOM      8  C   UNL     1      45.850   4.325   8.575  0.00  0.00    +0.000 C 
ATOM      9  O   UNL     1      46.234   5.477   8.414  0.00  0.00    +0.000 OA
ATOM     10  N   UNL     1      45.022   3.933   9.607  0.00  0.00    +0.000 N 
ATOM     11  H   UNL     1      44.927   2.950   9.816  0.00  0.00    +0.000 HD
BRANCH   8  16
ATOM     12  C   UNL     1      46.739   0.871   7.300  0.00  0.00    +0.000 A 
ATOM     13  C   UNL     1      47.079   1.147   5.975  0.00  0.00    +0.000 A 
ATOM     14  C   UNL     1      47.049   2.461   5.498  0.00  0.00    +0.000 A 
ATOM     15  C   UNL     1      46.663   3.504   6.340  0.00  0.00    +0.000 A 
ATOM     16  C   UNL     1      46.302   3.235   7.665  0.00  0.00    +0.000 A 
ATOM     17  C   UNL     1      46.366   1.921   8.147  0.00  0.00    +0.000 A 
BRANCH  12  19
ATOM     18  C   UNL     1      46.711  -1.488   6.996  0.00  0.00    +0.000 C 
ATOM     19  O   UNL     1      46.728  -0.369   7.877  0.00  0.00    +0.000 OA
ENDBRANCH  12  19
ENDBRANCH   8  16
ENDBRANCH   7  10
ENDBRANCH   1   7
BRANCH   4  20
ATOM     20  C   UNL     1      47.606   4.123  15.560  0.00  0.00    +0.000 C 
BRANCH  20  21
ATOM     21  N   UNL     1      47.532   5.284  16.411  0.00  0.00    +0.000 N 
ATOM     22  C   UNL     1      48.663   5.843  16.952  0.00  0.00    +0.000 C 
ATOM     23  O   UNL     1      49.785   5.414  16.694  0.00  0.00    +0.000 OA
ATOM     24  H   UNL     1      46.625   5.503  16.813  0.00  0.00    +0.000 HD
BRANCH  22  25
ATOM     25  C   UNL     1      48.473   7.020  17.811  0.00  0.00    +0.000 A 
ATOM     26  C   UNL     1      48.328   6.854  19.182  0.00  0.00    +0.000 A 
ATOM     27  S   UNL     1      48.164   8.322  20.036  0.00  0.00    +0.000 S 
ATOM     28  C   UNL     1      48.227   9.228  18.598  0.00  0.00    +0.000 A 
ATOM     29  N   UNL     1      48.111  10.583  18.621  0.00  0.00    +0.000 NA
ATOM     30  C   UNL     1      48.140  11.141  17.456  0.00  0.00    +0.000 A 
ATOM     31  N   UNL     1      48.279  10.464  16.272  0.00  0.00    +0.000 N 
ATOM     32  C   UNL     1      48.430   9.101  16.202  0.00  0.00    +0.000 A 
ATOM     33  O   UNL     1      48.597   8.531  15.129  0.00  0.00    +0.000 OA
ATOM     34  C   UNL     1      48.390   8.424  17.484  0.00  0.00    +0.000 A 
ATOM     35  H   UNL     1      48.304  10.961  15.393  0.00  0.00    +0.000 HD
ENDBRANCH  22  25
ENDBRANCH  20  21
ENDBRANCH   4  20
TORSDOF 7
ENDMDL
MODEL 5
REMARK VINA RESULT:    -7.249      2.093      2.460
REMARK INTER + INTRA:         -10.969
REMARK INTER:                  -9.899
REMARK INTRA:                  -1.070
REMARK UNBOUND:                -0.753
REMARK  Name = 
REMARK  8 active torsions:
REMARK  status: ('A' for Active; 'I' for Inactive)
REMARK    1  A    between atoms: C_1  and  O_2
REMARK    2  A    between atoms: O_2  and  C_3
REMARK    3  A    between atoms: C_7  and  C_8
REMARK    4  A    between atoms: N_10  and  C_11
REMARK    5  A    between atoms: C_11  and  C_12
REMARK    6  A    between atoms: C_15  and  C_16
REMARK    7  A    between atoms: C_16  and  N_17
REMARK    8  A    between atoms: C_18  and  C_20
REMARK                            x       y       z     vdW  Elec       q    Type
REMARK                         _______ _______ _______ _____ _____    ______ ____
ROOT
ATOM      1  C   UNL     1      46.086   6.702  12.605  0.00  0.00    +0.000 A 
ATOM      2  C   UNL     1      46.169   8.045  13.000  0.00  0.00    +0.000 A 
ATOM      3  C   UNL     1      47.144   8.462  13.914  0.00  0.00    +0.000 A 
ATOM      4  C   UNL     1      48.069   7.549  14.438  0.00  0.00    +0.000 A 
ATOM      5  C   UNL     1      47.981   6.206  14.049  0.00  0.00    +0.000 A 
ATOM      6  C   UNL     1      47.007   5.789  13.134  0.00  0.00    +0.000 A 
ENDROOT
BRANCH   1   7
ATOM      7  C   UNL     1      45.051   6.258  11.601  0.00  0.00    +0.000 C 
BRANCH   7  10
ATOM      8  C   UNL     1      44.813   4.605   9.796  0.00  0.00    +0.000 C 
ATOM      9  O   UNL     1      43.590   4.655   9.811  0.00  0.00    +0.000 OA
ATOM     10  N   UNL     1      45.618   5.333  10.647  0.00  0.00    +0.000 N 
ATOM     11  H   UNL     1      46.602   5.422  10.440  0.00  0.00    +0.000 HD
BRANCH   8  16
ATOM     12  C   UNL     1      46.211   1.555   8.037  0.00  0.00    +0.000 A 
ATOM     13  C   UNL     1      46.807   2.135   6.916  0.00  0.00    +0.000 A 
ATOM     14  C   UNL     1      46.783   3.522   6.741  0.00  0.00    +0.000 A 
ATOM     15  C   UNL     1      46.147   4.335   7.680  0.00  0.00    +0.000 A 
ATOM     16  C   UNL     1      45.531   3.762   8.797  0.00  0.00    +0.000 A 
ATOM     17  C   UNL     1      45.586   2.375   8.985  0.00  0.00    +0.000 A 
BRANCH  12  19
ATOM     18  C   UNL     1      46.704  -0.661   7.327  0.00  0.00    +0.000 C 
ATOM     19  O   UNL     1      46.167   0.216   8.312  0.00  0.00    +0.000 OA
ENDBRANCH  12  19
ENDBRANCH   8  16
ENDBRANCH   7  10
ENDBRANCH   1   7
BRANCH   4  20
ATOM     20  C   UNL     1      49.117   7.989  15.428  0.00  0.00    +0.000 C 
BRANCH  20  21
ATOM     21  N   UNL     1      49.966   6.893  15.821  0.00  0.00    +0.000 N 
ATOM     22  C   UNL     1      50.540   6.850  17.067  0.00  0.00    +0.000 C 
ATOM     23  O   UNL     1      50.315   7.709  17.915  0.00  0.00    +0.000 OA
ATOM     24  H   UNL     1      50.342   6.313  15.078  0.00  0.00    +0.000 HD
BRANCH  22  25
ATOM     25  C   UNL     1      51.395   5.692  17.362  0.00  0.00    +0.000 A 
ATOM     26  C   UNL     1      52.735   5.886  17.668  0.00  0.00    +0.000 A 
ATOM     27  S   UNL     1      53.572   4.443  18.029  0.00  0.00    +0.000 S 
ATOM     28  C   UNL     1      52.186   3.502  17.735  0.00  0.00    +0.000 A 
ATOM     29  N   UNL     1      52.227   2.147  17.841  0.00  0.00    +0.000 NA
ATOM     30  C   UNL     1      51.114   1.556  17.555  0.00  0.00    +0.000 A 
ATOM     31  N   UNL     1      49.964   2.200  17.180  0.00  0.00    +0.000 N 
ATOM     32  C   UNL     1      49.867   3.567  17.089  0.00  0.00    +0.000 A 
ATOM     33  O   UNL     1      48.810   4.114  16.793  0.00  0.00    +0.000 OA
ATOM     34  C   UNL     1      51.095   4.279  17.386  0.00  0.00    +0.000 A 
ATOM     35  H   UNL     1      49.123   1.679  16.979  0.00  0.00    +0.000 HD
ENDBRANCH  22  25
ENDBRANCH  20  21
ENDBRANCH   4  20
TORSDOF 7
ENDMDL
MODEL 6
REMARK VINA RESULT:    -7.228      1.163      1.600
REMARK INTER + INTRA:         -10.938
REMARK INTER:                  -9.918
REMARK INTRA:                  -1.021
REMARK UNBOUND:                -0.753
REMARK  Name = 
REMARK  8 active torsions:
REMARK  status: ('A' for Active; 'I' for Inactive)
REMARK    1  A    between atoms: C_1  and  O_2
REMARK    2  A    between atoms: O_2  and  C_3
REMARK    3  A    between atoms: C_7  and  C_8
REMARK    4  A    between atoms: N_10  and  C_11
REMARK    5  A    between atoms: C_11  and  C_12
REMARK    6  A    between atoms: C_15  and  C_16
REMARK    7  A    between atoms: C_16  and  N_17
REMARK    8  A    between atoms: C_18  and  C_20
REMARK                            x       y       z     vdW  Elec       q    Type
REMARK                         _______ _______ _______ _____ _____    ______ ____
ROOT
ATOM      1  C   UNL     1      45.291   5.520  11.535  0.00  0.00    +0.000 A 
ATOM      2  C   UNL     1      45.647   6.848  11.262  0.00  0.00    +0.000 A 
ATOM      3  C   UNL     1      46.698   7.462  11.952  0.00  0.00    +0.000 A 
ATOM      4  C   UNL     1      47.429   6.756  12.917  0.00  0.00    +0.000 A 
ATOM      5  C   UNL     1      47.069   5.431  13.194  0.00  0.00    +0.000 A 
ATOM      6  C   UNL     1      46.019   4.816  12.503  0.00  0.00    +0.000 A 
ENDROOT
BRANCH   1   7
ATOM      7  C   UNL     1      44.174   4.850  10.773  0.00  0.00    +0.000 C 
BRANCH   7  10
ATOM      8  C   UNL     1      45.380   4.048   8.785  0.00  0.00    +0.000 C 
ATOM      9  O   UNL     1      45.584   5.180   8.362  0.00  0.00    +0.000 OA
ATOM     10  N   UNL     1      44.680   3.781   9.944  0.00  0.00    +0.000 N 
ATOM     11  H   UNL     1      44.739   2.861  10.354  0.00  0.00    +0.000 HD
BRANCH   8  16
ATOM     12  C   UNL     1      47.044   1.920   6.131  0.00  0.00    +0.000 A 
ATOM     13  C   UNL     1      47.030   0.664   6.739  0.00  0.00    +0.000 A 
ATOM     14  C   UNL     1      46.454   0.497   8.001  0.00  0.00    +0.000 A 
ATOM     15  C   UNL     1      45.903   1.590   8.670  0.00  0.00    +0.000 A 
ATOM     16  C   UNL     1      45.928   2.857   8.077  0.00  0.00    +0.000 A 
ATOM     17  C   UNL     1      46.477   3.013   6.798  0.00  0.00    +0.000 A 
BRANCH  12  19
ATOM     18  C   UNL     1      47.235   1.334   3.833  0.00  0.00    +0.000 C 
ATOM     19  O   UNL     1      47.580   2.205   4.905  0.00  0.00    +0.000 OA
ENDBRANCH  12  19
ENDBRANCH   8  16
ENDBRANCH   7  10
ENDBRANCH   1   7
BRANCH   4  20
ATOM     20  C   UNL     1      48.559   7.413  13.669  0.00  0.00    +0.000 C 
BRANCH  20  21
ATOM     21  N   UNL     1      48.504   7.108  15.076  0.00  0.00    +0.000 N 
ATOM     22  C   UNL     1      49.627   7.175  15.863  0.00  0.00    +0.000 C 
ATOM     23  O   UNL     1      50.709   7.549  15.417  0.00  0.00    +0.000 OA
ATOM     24  H   UNL     1      47.697   6.585  15.403  0.00  0.00    +0.000 HD
BRANCH  22  25
ATOM     25  C   UNL     1      49.462   6.835  17.283  0.00  0.00    +0.000 A 
ATOM     26  C   UNL     1      49.743   7.786  18.255  0.00  0.00    +0.000 A 
ATOM     27  S   UNL     1      49.455   7.245  19.847  0.00  0.00    +0.000 S 
ATOM     28  C   UNL     1      48.997   5.702  19.297  0.00  0.00    +0.000 A 
ATOM     29  N   UNL     1      48.648   4.723  20.174  0.00  0.00    +0.000 NA
ATOM     30  C   UNL     1      48.358   3.591  19.623  0.00  0.00    +0.000 A 
ATOM     31  N   UNL     1      48.379   3.354  18.273  0.00  0.00    +0.000 N 
ATOM     32  C   UNL     1      48.695   4.319  17.348  0.00  0.00    +0.000 A 
ATOM     33  O   UNL     1      48.661   4.086  16.144  0.00  0.00    +0.000 OA
ATOM     34  C   UNL     1      49.044   5.607  17.917  0.00  0.00    +0.000 A 
ATOM     35  H   UNL     1      48.131   2.447  17.904  0.00  0.00    +0.000 HD
ENDBRANCH  22  25
ENDBRANCH  20  21
ENDBRANCH   4  20
TORSDOF 7
ENDMDL
MODEL 7
REMARK VINA RESULT:    -7.041      5.774      8.302
REMARK INTER + INTRA:         -10.675
REMARK INTER:                  -9.623
REMARK INTRA:                  -1.051
REMARK UNBOUND:                -0.753
REMARK  Name = 
REMARK  8 active torsions:
REMARK  status: ('A' for Active; 'I' for Inactive)
REMARK    1  A    between atoms: C_1  and  O_2
REMARK    2  A    between atoms: O_2  and  C_3
REMARK    3  A    between atoms: C_7  and  C_8
REMARK    4  A    between atoms: N_10  and  C_11
REMARK    5  A    between atoms: C_11  and  C_12
REMARK    6  A    between atoms: C_15  and  C_16
REMARK    7  A    between atoms: C_16  and  N_17
REMARK    8  A    between atoms: C_18  and  C_20
REMARK                            x       y       z     vdW  Elec       q    Type
REMARK                         _______ _______ _______ _____ _____    ______ ____
ROOT
ATOM      1  C   UNL     1      49.153   7.142  13.689  0.00  0.00    +0.000 A 
ATOM      2  C   UNL     1      50.259   7.729  14.319  0.00  0.00    +0.000 A 
ATOM      3  C   UNL     1      51.222   8.421  13.575  0.00  0.00    +0.000 A 
ATOM      4  C   UNL     1      51.088   8.558  12.187  0.00  0.00    +0.000 A 
ATOM      5  C   UNL     1      49.986   7.966  11.556  0.00  0.00    +0.000 A 
ATOM      6  C   UNL     1      49.023   7.275  12.301  0.00  0.00    +0.000 A 
ENDROOT
BRANCH   1   7
ATOM      7  C   UNL     1      48.103   6.417  14.495  0.00  0.00    +0.000 C 
BRANCH   7  10
ATOM      8  C   UNL     1      46.364   4.874  13.693  0.00  0.00    +0.000 C 
ATOM      9  O   UNL     1      46.806   3.927  14.331  0.00  0.00    +0.000 OA
ATOM     10  N   UNL     1      46.940   6.128  13.689  0.00  0.00    +0.000 N 
ATOM     11  H   UNL     1      46.412   6.912  13.333  0.00  0.00    +0.000 HD
BRANCH   8  16
ATOM     12  C   UNL     1      43.819   3.513  11.240  0.00  0.00    +0.000 A 
ATOM     13  C   UNL     1      42.761   4.406  11.420  0.00  0.00    +0.000 A 
ATOM     14  C   UNL     1      42.881   5.471  12.317  0.00  0.00    +0.000 A 
ATOM     15  C   UNL     1      44.054   5.639  13.053  0.00  0.00    +0.000 A 
ATOM     16  C   UNL     1      45.113   4.739  12.893  0.00  0.00    +0.000 A 
ATOM     17  C   UNL     1      45.001   3.693  11.969  0.00  0.00    +0.000 A 
BRANCH  12  19
ATOM     18  C   UNL     1      44.826   2.403   9.393  0.00  0.00    +0.000 C 
ATOM     19  O   UNL     1      43.817   2.436  10.397  0.00  0.00    +0.000 OA
ENDBRANCH  12  19
ENDBRANCH   8  16
ENDBRANCH   7  10
ENDBRANCH   1   7
BRANCH   4  20
ATOM     20  C   UNL     1      52.124   9.297  11.377  0.00  0.00    +0.000 C 
BRANCH  20  21
ATOM     21  N   UNL     1      52.341   8.670  10.098  0.00  0.00    +0.000 N 
ATOM     22  C   UNL     1      53.449   8.960   9.343  0.00  0.00    +0.000 C 
ATOM     23  O   UNL     1      54.327   9.720   9.744  0.00  0.00    +0.000 OA
ATOM     24  H   UNL     1      51.537   8.233   9.657  0.00  0.00    +0.000 HD
BRANCH  22  25
ATOM     25  C   UNL     1      53.568   8.270   8.050  0.00  0.00    +0.000 A 
ATOM     26  C   UNL     1      53.580   9.009   6.875  0.00  0.00    +0.000 A 
ATOM     27  S   UNL     1      53.771   8.060   5.470  0.00  0.00    +0.000 S 
ATOM     28  C   UNL     1      53.790   6.622   6.380  0.00  0.00    +0.000 A 
ATOM     29  N   UNL     1      53.899   5.411   5.769  0.00  0.00    +0.000 NA
ATOM     30  C   UNL     1      53.864   4.403   6.575  0.00  0.00    +0.000 A 
ATOM     31  N   UNL     1      53.734   4.498   7.937  0.00  0.00    +0.000 N 
ATOM     32  C   UNL     1      53.651   5.698   8.599  0.00  0.00    +0.000 A 
ATOM     33  O   UNL     1      53.581   5.749   9.822  0.00  0.00    +0.000 OA
ATOM     34  C   UNL     1      53.672   6.864   7.737  0.00  0.00    +0.000 A 
ATOM     35  H   UNL     1      53.723   3.669   8.514  0.00  0.00    +0.000 HD
ENDBRANCH  22  25
ENDBRANCH  20  21
ENDBRANCH   4  20
TORSDOF 7
ENDMDL
MODEL 8
REMARK VINA RESULT:    -6.936      2.801      4.726
REMARK INTER + INTRA:         -10.528
REMARK INTER:                  -9.488
REMARK INTRA:                  -1.040
REMARK UNBOUND:                -0.753
REMARK  Name = 
REMARK  8 active torsions:
REMARK  status: ('A' for Active; 'I' for Inactive)
REMARK    1  A    between atoms: C_1  and  O_2
REMARK    2  A    between atoms: O_2  and  C_3
REMARK    3  A    between atoms: C_7  and  C_8
REMARK    4  A    between atoms: N_10  and  C_11
REMARK    5  A    between atoms: C_11  and  C_12
REMARK    6  A    between atoms: C_15  and  C_16
REMARK    7  A    between atoms: C_16  and  N_17
REMARK    8  A    between atoms: C_18  and  C_20
REMARK                            x       y       z     vdW  Elec       q    Type
REMARK                         _______ _______ _______ _____ _____    ______ ____
ROOT
ATOM      1  C   UNL     1      48.242   7.384  14.167  0.00  0.00    +0.000 A 
ATOM      2  C   UNL     1      48.108   6.093  14.695  0.00  0.00    +0.000 A 
ATOM      3  C   UNL     1      48.340   5.848  16.053  0.00  0.00    +0.000 A 
ATOM      4  C   UNL     1      48.693   6.894  16.917  0.00  0.00    +0.000 A 
ATOM      5  C   UNL     1      48.834   8.184  16.388  0.00  0.00    +0.000 A 
ATOM      6  C   UNL     1      48.601   8.428  15.029  0.00  0.00    +0.000 A 
ENDROOT
BRANCH   1   7
ATOM      7  C   UNL     1      47.967   7.651  12.707  0.00  0.00    +0.000 C 
BRANCH   7  10
ATOM      8  C   UNL     1      45.958   6.625  11.728  0.00  0.00    +0.000 C 
ATOM      9  O   UNL     1      45.266   7.616  11.925  0.00  0.00    +0.000 OA
ATOM     10  N   UNL     1      47.285   6.535  12.095  0.00  0.00    +0.000 N 
ATOM     11  H   UNL     1      47.854   5.795  11.710  0.00  0.00    +0.000 HD
BRANCH   8  16
ATOM     12  C   UNL     1      45.145   4.171   8.960  0.00  0.00    +0.000 A 
ATOM     13  C   UNL     1      44.446   3.188   9.662  0.00  0.00    +0.000 A 
ATOM     14  C   UNL     1      44.211   3.332  11.032  0.00  0.00    +0.000 A 
ATOM     15  C   UNL     1      44.688   4.453  11.711  0.00  0.00    +0.000 A 
ATOM     16  C   UNL     1      45.405   5.435  11.020  0.00  0.00    +0.000 A 
ATOM     17  C   UNL     1      45.610   5.303   9.641  0.00  0.00    +0.000 A 
BRANCH  12  19
ATOM     18  C   UNL     1      46.616   3.437   7.240  0.00  0.00    +0.000 C 
ATOM     19  O   UNL     1      45.438   4.139   7.624  0.00  0.00    +0.000 OA
ENDBRANCH  12  19
ENDBRANCH   8  16
ENDBRANCH   7  10
ENDBRANCH   1   7
BRANCH   4  20
ATOM     20  C   UNL     1      48.952   6.638  18.380  0.00  0.00    +0.000 C 
BRANCH  20  21
ATOM     21  N   UNL     1      49.918   5.586  18.570  0.00  0.00    +0.000 N 
ATOM     22  C   UNL     1      51.262   5.821  18.424  0.00  0.00    +0.000 C 
ATOM     23  O   UNL     1      51.702   6.942  18.180  0.00  0.00    +0.000 OA
ATOM     24  H   UNL     1      49.572   4.632  18.540  0.00  0.00    +0.000 HD
BRANCH  22  25
ATOM     25  C   UNL     1      52.160   4.677  18.631  0.00  0.00    +0.000 A 
ATOM     26  C   UNL     1      53.347   4.851  19.330  0.00  0.00    +0.000 A 
ATOM     27  S   UNL     1      54.248   3.415  19.521  0.00  0.00    +0.000 S 
ATOM     28  C   UNL     1      53.111   2.519  18.628  0.00  0.00    +0.000 A 
ATOM     29  N   UNL     1      53.300   1.194  18.388  0.00  0.00    +0.000 NA
ATOM     30  C   UNL     1      52.378   0.646  17.667  0.00  0.00    +0.000 A 
ATOM     31  N   UNL     1      51.282   1.304  17.172  0.00  0.00    +0.000 N 
ATOM     32  C   UNL     1      51.034   2.633  17.414  0.00  0.00    +0.000 A 
ATOM     33  O   UNL     1      50.021   3.181  16.993  0.00  0.00    +0.000 OA
ATOM     34  C   UNL     1      52.049   3.300  18.208  0.00  0.00    +0.000 A 
ATOM     35  H   UNL     1      50.591   0.815  16.622  0.00  0.00    +0.000 HD
ENDBRANCH  22  25
ENDBRANCH  20  21
ENDBRANCH   4  20
TORSDOF 7
ENDMDL
