MODEL 1
REMARK VINA RESULT:    -6.850      0.000      0.000
REMARK INTER + INTRA:         -10.235
REMARK INTER:                  -9.252
REMARK INTRA:                  -0.983
REMARK UNBOUND:                -0.983
REMARK  Name = 
REMARK  8 active torsions:
REMARK  status: ('A' for Active; 'I' for Inactive)
REMARK    1  A    between atoms: C_1  and  O_2
REMARK    2  A    between atoms: O_2  and  C_3
REMARK    3  A    between atoms: C_6  and  O_7
REMARK    4  A    between atoms: O_7  and  C_8
REMARK    5  A    between atoms: C_9  and  N_10
REMARK    6  A    between atoms: N_10  and  C_11
REMARK    7  A    between atoms: C_11  and  C_12
REMARK    8  A    between atoms: C_16  and  N_17
REMARK                            x       y       z     vdW  Elec       q    Type
REMARK                         _______ _______ _______ _____ _____    ______ ____
ROOT
ATOM      1  C   UNL     1      45.543   6.387  11.934  0.00  0.00    +0.000 C 
ATOM      2  C   UNL     1      46.561   5.385  12.461  0.00  0.00    +0.000 C 
ATOM      3  C   UNL     1      45.342   5.663  13.265  0.00  0.00    +0.000 C 
ENDROOT
BRANCH   1   4
ATOM      4  C   UNL     1      45.817   7.877  12.108  0.00  0.00    +0.000 A 
ATOM      5  C   UNL     1      47.122   8.357  12.311  0.00  0.00    +0.000 A 
ATOM      6  C   UNL     1      47.432   9.694  12.081  0.00  0.00    +0.000 A 
ATOM      7  C   UNL     1      46.441  10.564  11.625  0.00  0.00    +0.000 A 
ATOM      8  C   UNL     1      45.114  10.141  11.486  0.00  0.00    +0.000 A 
ATOM      9  C   UNL     1      44.815   8.818  11.822  0.00  0.00    +0.000 A 
BRANCH   8  10
ATOM     10  N   UNL     1      44.136  10.937  10.934  0.00  0.00    +0.000 N 
ATOM     11  C   UNL     1      42.828  11.100  11.567  0.00  0.00    +0.000 C 
ATOM     12  C   UNL     1      41.713  10.610  10.624  0.00  0.00    +0.000 C 
ATOM     13  N   UNL     1      41.772  11.222   9.277  0.00  0.00    +0.000 NA
ATOM     14  C   UNL     1      43.117  10.973   8.700  0.00  0.00    +0.000 C 
ATOM     15  C   UNL     1      44.281  11.482   9.583  0.00  0.00    +0.000 C 
ATOM     16  H   UNL     1      41.673  12.231   9.392  0.00  0.00    +0.000 HD
ENDBRANCH   8  10
ENDBRANCH   1   4
BRANCH   1  17
ATOM     17  N   UNL     1      44.653   6.016  10.833  0.00  0.00    +0.000 N 
ATOM     18  H   UNL     1      44.068   6.734  10.408  0.00  0.00    +0.000 HD
BRANCH  17  23
ATOM     19  C   UNL     1      45.988   3.832   8.091  0.00  0.00    +0.000 A 
ATOM     20  C   UNL     1      45.322   2.642   8.378  0.00  0.00    +0.000 A 
ATOM     21  C   UNL     1      44.420   2.579   9.447  0.00  0.00    +0.000 A 
ATOM     22  C   UNL     1      44.173   3.709  10.233  0.00  0.00    +0.000 A 
ATOM     23  C   UNL     1      44.840   4.924   9.951  0.00  0.00    +0.000 A 
ATOM     24  C   UNL     1      45.745   4.961   8.881  0.00  0.00    +0.000 A 
BRANCH  19  26
ATOM     25  C   UNL     1      47.601   2.869   6.633  0.00  0.00    +0.000 C 
ATOM     26  O   UNL     1      46.895   4.018   7.083  0.00  0.00    +0.000 OA
ENDBRANCH  19  26
BRANCH  22  27
ATOM     27  O   UNL     1      43.296   3.751  11.293  0.00  0.00    +0.000 OA
ATOM     28  C   UNL     1      43.428   2.746  12.291  0.00  0.00    +0.000 C 
ENDBRANCH  22  27
ENDBRANCH  17  23
ENDBRANCH   1  17
TORSDOF 6
ENDMDL
MODEL 2
REMARK VINA RESULT:    -6.801      2.231      4.198
REMARK INTER + INTRA:         -10.169
REMARK INTER:                  -9.249
REMARK INTRA:                  -0.920
REMARK UNBOUND:                -0.983
REMARK  Name = 
REMARK  8 active torsions:
REMARK  status: ('A' for Active; 'I' for Inactive)
REMARK    1  A    between atoms: C_1  and  O_2
REMARK    2  A    between atoms: O_2  and  C_3
REMARK    3  A    between atoms: C_6  and  O_7
REMARK    4  A    between atoms: O_7  and  C_8
REMARK    5  A    between atoms: C_9  and  N_10
REMARK    6  A    between atoms: N_10  and  C_11
REMARK    7  A    between atoms: C_11  and  C_12
REMARK    8  A    between atoms: C_16  and  N_17
REMARK                            x       y       z     vdW  Elec       q    Type
REMARK                         _______ _______ _______ _____ _____    ______ ____
ROOT
ATOM      1  C   UNL     1      45.128   6.047  11.722  0.00  0.00    +0.000 C 
ATOM      2  C   UNL     1      45.895   5.059  12.593  0.00  0.00    +0.000 C 
ATOM      3  C   UNL     1      44.673   5.704  13.141  0.00  0.00    +0.000 C 
ENDROOT
BRANCH   1   4
ATOM      4  C   UNL     1      45.647   7.475  11.596  0.00  0.00    +0.000 A 
ATOM      5  C   UNL     1      44.764   8.565  11.527  0.00  0.00    +0.000 A 
ATOM      6  C   UNL     1      45.205   9.856  11.804  0.00  0.00    +0.000 A 
ATOM      7  C   UNL     1      46.533  10.067  12.174  0.00  0.00    +0.000 A 
ATOM      8  C   UNL     1      47.459   9.018  12.178  0.00  0.00    +0.000 A 
ATOM      9  C   UNL     1      47.009   7.752  11.797  0.00  0.00    +0.000 A 
BRANCH   8  10
ATOM     10  N   UNL     1      48.746   9.167  12.644  0.00  0.00    +0.000 N 
ATOM     11  C   UNL     1      49.880   9.338  11.735  0.00  0.00    +0.000 C 
ATOM     12  C   UNL     1      50.893   8.192  11.924  0.00  0.00    +0.000 C 
ATOM     13  N   UNL     1      51.316   8.009  13.331  0.00  0.00    +0.000 NA
ATOM     14  C   UNL     1      50.107   7.805  14.168  0.00  0.00    +0.000 C 
ATOM     15  C   UNL     1      49.068   8.945  14.055  0.00  0.00    +0.000 C 
ATOM     16  H   UNL     1      51.755   8.878  13.636  0.00  0.00    +0.000 HD
ENDBRANCH   8  10
ENDBRANCH   1   4
BRANCH   1  17
ATOM     17  N   UNL     1      44.297   5.560  10.621  0.00  0.00    +0.000 N 
ATOM     18  H   UNL     1      43.618   6.191  10.199  0.00  0.00    +0.000 HD
BRANCH  17  23
ATOM     19  C   UNL     1      45.938   3.580   7.890  0.00  0.00    +0.000 A 
ATOM     20  C   UNL     1      45.417   2.315   8.156  0.00  0.00    +0.000 A 
ATOM     21  C   UNL     1      44.511   2.133   9.207  0.00  0.00    +0.000 A 
ATOM     22  C   UNL     1      44.113   3.217   9.996  0.00  0.00    +0.000 A 
ATOM     23  C   UNL     1      44.632   4.506   9.735  0.00  0.00    +0.000 A 
ATOM     24  C   UNL     1      45.545   4.664   8.683  0.00  0.00    +0.000 A 
BRANCH  19  26
ATOM     25  C   UNL     1      46.975   2.939   5.849  0.00  0.00    +0.000 C 
ATOM     26  O   UNL     1      46.834   3.885   6.900  0.00  0.00    +0.000 OA
ENDBRANCH  19  26
BRANCH  22  27
ATOM     27  O   UNL     1      43.218   3.142  11.039  0.00  0.00    +0.000 OA
ATOM     28  C   UNL     1      43.585   2.344  12.158  0.00  0.00    +0.000 C 
ENDBRANCH  22  27
ENDBRANCH  17  23
ENDBRANCH   1  17
TORSDOF 6
ENDMDL
MODEL 3
REMARK VINA RESULT:    -6.420      3.339      6.894
REMARK INTER + INTRA:          -9.655
REMARK INTER:                  -8.385
REMARK INTRA:                  -1.270
REMARK UNBOUND:                -0.983
REMARK  Name = 
REMARK  8 active torsions:
REMARK  status: ('A' for Active; 'I' for Inactive)
REMARK    1  A    between atoms: C_1  and  O_2
REMARK    2  A    between atoms: O_2  and  C_3
REMARK    3  A    between atoms: C_6  and  O_7
REMARK    4  A    between atoms: O_7  and  C_8
REMARK    5  A    between atoms: C_9  and  N_10
REMARK    6  A    between atoms: N_10  and  C_11
REMARK    7  A    between atoms: C_11  and  C_12
REMARK    8  A    between atoms: C_16  and  N_17
REMARK                            x       y       z     vdW  Elec       q    Type
REMARK                         _______ _______ _______ _____ _____    ______ ____
ROOT
ATOM      1  C   UNL     1      46.689   4.687  13.596  0.00  0.00    +0.000 C 
ATOM      2  C   UNL     1      46.735   4.622  15.118  0.00  0.00    +0.000 C 
ATOM      3  C   UNL     1      47.267   3.478  14.331  0.00  0.00    +0.000 C 
ENDROOT
BRANCH   1   4
ATOM      4  C   UNL     1      45.378   4.374  12.884  0.00  0.00    +0.000 A 
ATOM      5  C   UNL     1      44.172   4.972  13.286  0.00  0.00    +0.000 A 
ATOM      6  C   UNL     1      43.075   5.007  12.430  0.00  0.00    +0.000 A 
ATOM      7  C   UNL     1      43.180   4.459  11.151  0.00  0.00    +0.000 A 
ATOM      8  C   UNL     1      44.338   3.787  10.744  0.00  0.00    +0.000 A 
ATOM      9  C   UNL     1      45.385   3.681  11.663  0.00  0.00    +0.000 A 
BRANCH   8  10
ATOM     10  N   UNL     1      44.519   3.334   9.457  0.00  0.00    +0.000 N 
ATOM     11  C   UNL     1      44.616   1.907   9.149  0.00  0.00    +0.000 C 
ATOM     12  C   UNL     1      45.979   1.593   8.502  0.00  0.00    +0.000 C 
ATOM     13  N   UNL     1      46.286   2.449   7.333  0.00  0.00    +0.000 NA
ATOM     14  C   UNL     1      46.201   3.871   7.750  0.00  0.00    +0.000 C 
ATOM     15  C   UNL     1      44.838   4.261   8.369  0.00  0.00    +0.000 C 
ATOM     16  H   UNL     1      45.557   2.291   6.636  0.00  0.00    +0.000 HD
ENDBRANCH   8  10
ENDBRANCH   1   4
BRANCH   1  17
ATOM     17  N   UNL     1      47.633   5.540  12.872  0.00  0.00    +0.000 N 
ATOM     18  H   UNL     1      48.099   5.169  12.046  0.00  0.00    +0.000 HD
BRANCH  17  23
ATOM     19  C   UNL     1      46.583   9.098  12.318  0.00  0.00    +0.000 A 
ATOM     20  C   UNL     1      47.554   9.761  13.065  0.00  0.00    +0.000 A 
ATOM     21  C   UNL     1      48.560   9.035  13.716  0.00  0.00    +0.000 A 
ATOM     22  C   UNL     1      48.605   7.641  13.617  0.00  0.00    +0.000 A 
ATOM     23  C   UNL     1      47.626   6.956  12.859  0.00  0.00    +0.000 A 
ATOM     24  C   UNL     1      46.624   7.702  12.224  0.00  0.00    +0.000 A 
BRANCH  19  26
ATOM     25  C   UNL     1      44.459   8.855  11.276  0.00  0.00    +0.000 C 
ATOM     26  O   UNL     1      45.548   9.691  11.644  0.00  0.00    +0.000 OA
ENDBRANCH  19  26
BRANCH  22  27
ATOM     27  O   UNL     1      49.559   6.842  14.206  0.00  0.00    +0.000 OA
ATOM     28  C   UNL     1      49.639   6.860  15.626  0.00  0.00    +0.000 C 
ENDBRANCH  22  27
ENDBRANCH  17  23
ENDBRANCH   1  17
TORSDOF 6
ENDMDL
MODEL 4
REMARK VINA RESULT:    -6.138      2.956      6.195
REMARK INTER + INTRA:          -9.274
REMARK INTER:                  -8.600
REMARK INTRA:                  -0.674
REMARK UNBOUND:                -0.983
REMARK  Name = 
REMARK  8 active torsions:
REMARK  status: ('A' for Active; 'I' for Inactive)
REMARK    1  A    between atoms: C_1  and  O_2
REMARK    2  A    between atoms: O_2  and  C_3
REMARK    3  A    between atoms: C_6  and  O_7
REMARK    4  A    between atoms: O_7  and  C_8
REMARK    5  A    between atoms: C_9  and  N_10
REMARK    6  A    between atoms: N_10  and  C_11
REMARK    7  A    between atoms: C_11  and  C_12
REMARK    8  A    between atoms: C_16  and  N_17
REMARK                            x       y       z     vdW  Elec       q    Type
REMARK                         _______ _______ _______ _____ _____    ______ ____
ROOT
ATOM      1  C   UNL     1      45.737   6.755  11.334  0.00  0.00    +0.000 C 
ATOM      2  C   UNL     1      44.479   7.107  12.117  0.00  0.00    +0.000 C 
ATOM      3  C   UNL     1      45.185   8.180  11.368  0.00  0.00    +0.000 C 
ENDROOT
BRANCH   1   4
ATOM      4  C   UNL     1      47.057   6.615  12.085  0.00  0.00    +0.000 A 
ATOM      5  C   UNL     1      48.171   7.403  11.751  0.00  0.00    +0.000 A 
ATOM      6  C   UNL     1      49.221   7.568  12.649  0.00  0.00    +0.000 A 
ATOM      7  C   UNL     1      49.158   6.960  13.903  0.00  0.00    +0.000 A 
ATOM      8  C   UNL     1      48.104   6.105  14.242  0.00  0.00    +0.000 A 
ATOM      9  C   UNL     1      47.115   5.880  13.281  0.00  0.00    +0.000 A 
BRANCH   8  10
ATOM     10  N   UNL     1      47.952   5.580  15.505  0.00  0.00    +0.000 N 
ATOM     11  C   UNL     1      48.722   6.078  16.644  0.00  0.00    +0.000 C 
ATOM     12  C   UNL     1      49.580   4.947  17.244  0.00  0.00    +0.000 C 
ATOM     13  N   UNL     1      48.802   3.731  17.573  0.00  0.00    +0.000 NA
ATOM     14  C   UNL     1      48.088   3.278  16.352  0.00  0.00    +0.000 C 
ATOM     15  C   UNL     1      47.175   4.358  15.725  0.00  0.00    +0.000 C 
ATOM     16  H   UNL     1      48.094   3.994  18.259  0.00  0.00    +0.000 HD
ENDBRANCH   8  10
ENDBRANCH   1   4
BRANCH   1  17
ATOM     17  N   UNL     1      45.633   6.030  10.067  0.00  0.00    +0.000 N 
ATOM     18  H   UNL     1      46.208   6.326   9.281  0.00  0.00    +0.000 HD
BRANCH  17  23
ATOM     19  C   UNL     1      43.934   2.735  10.639  0.00  0.00    +0.000 A 
ATOM     20  C   UNL     1      44.246   2.087   9.446  0.00  0.00    +0.000 A 
ATOM     21  C   UNL     1      45.036   2.726   8.482  0.00  0.00    +0.000 A 
ATOM     22  C   UNL     1      45.525   4.016   8.709  0.00  0.00    +0.000 A 
ATOM     23  C   UNL     1      45.217   4.684   9.917  0.00  0.00    +0.000 A 
ATOM     24  C   UNL     1      44.419   4.028  10.863  0.00  0.00    +0.000 A 
BRANCH  19  26
ATOM     25  C   UNL     1      43.260   2.868  12.915  0.00  0.00    +0.000 C 
ATOM     26  O   UNL     1      43.169   2.222  11.652  0.00  0.00    +0.000 OA
ENDBRANCH  19  26
BRANCH  22  27
ATOM     27  O   UNL     1      46.318   4.720   7.831  0.00  0.00    +0.000 OA
ATOM     28  C   UNL     1      47.033   3.974   6.854  0.00  0.00    +0.000 C 
ENDBRANCH  22  27
ENDBRANCH  17  23
ENDBRANCH   1  17
TORSDOF 6
ENDMDL
MODEL 5
REMARK VINA RESULT:    -6.127      1.637      2.688
REMARK INTER + INTRA:          -9.258
REMARK INTER:                  -8.395
REMARK INTRA:                  -0.863
REMARK UNBOUND:                -0.983
REMARK  Name = 
REMARK  8 active torsions:
REMARK  status: ('A' for Active; 'I' for Inactive)
REMARK    1  A    between atoms: C_1  and  O_2
REMARK    2  A    between atoms: O_2  and  C_3
REMARK    3  A    between atoms: C_6  and  O_7
REMARK    4  A    between atoms: O_7  and  C_8
REMARK    5  A    between atoms: C_9  and  N_10
REMARK    6  A    between atoms: N_10  and  C_11
REMARK    7  A    between atoms: C_11  and  C_12
REMARK    8  A    between atoms: C_16  and  N_17
REMARK                            x       y       z     vdW  Elec       q    Type
REMARK                         _______ _______ _______ _____ _____    ______ ____
ROOT
ATOM      1  C   UNL     1      46.495   7.850  12.709  0.00  0.00    +0.000 C 
ATOM      2  C   UNL     1      47.857   7.317  12.282  0.00  0.00    +0.000 C 
ATOM      3  C   UNL     1      47.708   7.909  13.638  0.00  0.00    +0.000 C 
ENDROOT
BRANCH   1   4
ATOM      4  C   UNL     1      46.057   9.227  12.221  0.00  0.00    +0.000 A 
ATOM      5  C   UNL     1      46.990  10.257  12.020  0.00  0.00    +0.000 A 
ATOM      6  C   UNL     1      46.676  11.356  11.225  0.00  0.00    +0.000 A 
ATOM      7  C   UNL     1      45.427  11.425  10.605  0.00  0.00    +0.000 A 
ATOM      8  C   UNL     1      44.445  10.458  10.846  0.00  0.00    +0.000 A 
ATOM      9  C   UNL     1      44.756   9.421  11.728  0.00  0.00    +0.000 A 
BRANCH   8  10
ATOM     10  N   UNL     1      43.248  10.433  10.168  0.00  0.00    +0.000 N 
ATOM     11  C   UNL     1      42.948  11.385   9.098  0.00  0.00    +0.000 C 
ATOM     12  C   UNL     1      41.706  12.222   9.460  0.00  0.00    +0.000 C 
ATOM     13  N   UNL     1      40.532  11.400   9.833  0.00  0.00    +0.000 NA
ATOM     14  C   UNL     1      40.919  10.497  10.946  0.00  0.00    +0.000 C 
ATOM     15  C   UNL     1      42.137   9.597  10.628  0.00  0.00    +0.000 C 
ATOM     16  H   UNL     1      40.300  10.813   9.031  0.00  0.00    +0.000 HD
ENDBRANCH   8  10
ENDBRANCH   1   4
BRANCH   1  17
ATOM     17  N   UNL     1      45.425   6.919  13.069  0.00  0.00    +0.000 N 
ATOM     18  H   UNL     1      44.588   7.281  13.522  0.00  0.00    +0.000 HD
BRANCH  17  23
ATOM     19  C   UNL     1      44.567   4.324  10.500  0.00  0.00    +0.000 A 
ATOM     20  C   UNL     1      44.894   3.166  11.202  0.00  0.00    +0.000 A 
ATOM     21  C   UNL     1      45.362   3.247  12.519  0.00  0.00    +0.000 A 
ATOM     22  C   UNL     1      45.499   4.490  13.146  0.00  0.00    +0.000 A 
ATOM     23  C   UNL     1      45.169   5.673  12.446  0.00  0.00    +0.000 A 
ATOM     24  C   UNL     1      44.710   5.568  11.126  0.00  0.00    +0.000 A 
BRANCH  19  26
ATOM     25  C   UNL     1      44.904   3.738   8.220  0.00  0.00    +0.000 C 
ATOM     26  O   UNL     1      44.109   4.377   9.211  0.00  0.00    +0.000 OA
ENDBRANCH  19  26
BRANCH  22  27
ATOM     27  O   UNL     1      45.936   4.672  14.439  0.00  0.00    +0.000 OA
ATOM     28  C   UNL     1      47.229   4.179  14.768  0.00  0.00    +0.000 C 
ENDBRANCH  22  27
ENDBRANCH  17  23
ENDBRANCH   1  17
TORSDOF 6
ENDMDL
MODEL 6
REMARK VINA RESULT:    -5.971      4.280      7.350
REMARK INTER + INTRA:          -9.048
REMARK INTER:                  -8.454
REMARK INTRA:                  -0.595
REMARK UNBOUND:                -0.983
REMARK  Name = 
REMARK  8 active torsions:
REMARK  status: ('A' for Active; 'I' for Inactive)
REMARK    1  A    between atoms: C_1  and  O_2
REMARK    2  A    between atoms: O_2  and  C_3
REMARK    3  A    between atoms: C_6  and  O_7
REMARK    4  A    between atoms: O_7  and  C_8
REMARK    5  A    between atoms: C_9  and  N_10
REMARK    6  A    between atoms: N_10  and  C_11
REMARK    7  A    between atoms: C_11  and  C_12
REMARK    8  A    between atoms: C_16  and  N_17
REMARK                            x       y       z     vdW  Elec       q    Type
REMARK                         _______ _______ _______ _____ _____    ______ ____
ROOT
ATOM      1  C   UNL     1      47.918   7.743  13.122  0.00  0.00    +0.000 C 
ATOM      2  C   UNL     1      48.467   8.790  12.161  0.00  0.00    +0.000 C 
ATOM      3  C   UNL     1      48.321   7.388  11.691  0.00  0.00    +0.000 C 
ENDROOT
BRANCH   1   4
ATOM      4  C   UNL     1      48.851   7.140  14.166  0.00  0.00    +0.000 A 
ATOM      5  C   UNL     1      50.142   7.655  14.371  0.00  0.00    +0.000 A 
ATOM      6  C   UNL     1      50.837   7.387  15.547  0.00  0.00    +0.000 A 
ATOM      7  C   UNL     1      50.236   6.616  16.543  0.00  0.00    +0.000 A 
ATOM      8  C   UNL     1      48.985   6.022  16.343  0.00  0.00    +0.000 A 
ATOM      9  C   UNL     1      48.357   6.226  15.112  0.00  0.00    +0.000 A 
BRANCH   8  10
ATOM     10  N   UNL     1      48.315   5.351  17.340  0.00  0.00    +0.000 N 
ATOM     11  C   UNL     1      48.570   5.620  18.756  0.00  0.00    +0.000 C 
ATOM     12  C   UNL     1      49.073   4.346  19.460  0.00  0.00    +0.000 C 
ATOM     13  N   UNL     1      48.190   3.174  19.255  0.00  0.00    +0.000 NA
ATOM     14  C   UNL     1      48.021   2.955  17.797  0.00  0.00    +0.000 C 
ATOM     15  C   UNL     1      47.478   4.189  17.037  0.00  0.00    +0.000 C 
ATOM     16  H   UNL     1      47.273   3.410  19.636  0.00  0.00    +0.000 HD
ENDBRANCH   8  10
ENDBRANCH   1   4
BRANCH   1  17
ATOM     17  N   UNL     1      46.489   7.717  13.438  0.00  0.00    +0.000 N 
ATOM     18  H   UNL     1      46.063   8.536  13.868  0.00  0.00    +0.000 HD
BRANCH  17  23
ATOM     19  C   UNL     1      44.233   4.848  12.569  0.00  0.00    +0.000 A 
ATOM     20  C   UNL     1      43.415   5.457  11.620  0.00  0.00    +0.000 A 
ATOM     21  C   UNL     1      43.632   6.791  11.254  0.00  0.00    +0.000 A 
ATOM     22  C   UNL     1      44.675   7.523  11.829  0.00  0.00    +0.000 A 
ATOM     23  C   UNL     1      45.515   6.916  12.792  0.00  0.00    +0.000 A 
ATOM     24  C   UNL     1      45.274   5.583  13.149  0.00  0.00    +0.000 A 
BRANCH  19  26
ATOM     25  C   UNL     1      43.485   2.632  12.144  0.00  0.00    +0.000 C 
ATOM     26  O   UNL     1      44.119   3.559  13.015  0.00  0.00    +0.000 OA
ENDBRANCH  19  26
BRANCH  22  27
ATOM     27  O   UNL     1      44.977   8.831  11.525  0.00  0.00    +0.000 OA
ATOM     28  C   UNL     1      43.956   9.613  10.918  0.00  0.00    +0.000 C 
ENDBRANCH  22  27
ENDBRANCH  17  23
ENDBRANCH   1  17
TORSDOF 6
ENDMDL
MODEL 7
REMARK VINA RESULT:    -5.944      4.518      6.492
REMARK INTER + INTRA:          -9.012
REMARK INTER:                  -7.802
REMARK INTRA:                  -1.211
REMARK UNBOUND:                -0.983
REMARK  Name = 
REMARK  8 active torsions:
REMARK  status: ('A' for Active; 'I' for Inactive)
REMARK    1  A    between atoms: C_1  and  O_2
REMARK    2  A    between atoms: O_2  and  C_3
REMARK    3  A    between atoms: C_6  and  O_7
REMARK    4  A    between atoms: O_7  and  C_8
REMARK    5  A    between atoms: C_9  and  N_10
REMARK    6  A    between atoms: N_10  and  C_11
REMARK    7  A    between atoms: C_11  and  C_12
REMARK    8  A    between atoms: C_16  and  N_17
REMARK                            x       y       z     vdW  Elec       q    Type
REMARK                         _______ _______ _______ _____ _____    ______ ____
ROOT
ATOM      1  C   UNL     1      49.440   7.798  16.068  0.00  0.00    +0.000 C 
ATOM      2  C   UNL     1      50.921   7.708  16.415  0.00  0.00    +0.000 C 
ATOM      3  C   UNL     1      50.194   8.976  16.685  0.00  0.00    +0.000 C 
ENDROOT
BRANCH   1   4
ATOM      4  C   UNL     1      49.036   8.048  14.620  0.00  0.00    +0.000 A 
ATOM      5  C   UNL     1      49.912   7.759  13.560  0.00  0.00    +0.000 A 
ATOM      6  C   UNL     1      49.433   7.611  12.262  0.00  0.00    +0.000 A 
ATOM      7  C   UNL     1      48.066   7.730  12.013  0.00  0.00    +0.000 A 
ATOM      8  C   UNL     1      47.174   8.095  13.027  0.00  0.00    +0.000 A 
ATOM      9  C   UNL     1      47.699   8.336  14.299  0.00  0.00    +0.000 A 
BRANCH   8  10
ATOM     10  N   UNL     1      45.810   8.112  12.844  0.00  0.00    +0.000 N 
ATOM     11  C   UNL     1      45.024   6.879  12.788  0.00  0.00    +0.000 C 
ATOM     12  C   UNL     1      44.310   6.763  11.428  0.00  0.00    +0.000 C 
ATOM     13  N   UNL     1      43.512   7.961  11.079  0.00  0.00    +0.000 NA
ATOM     14  C   UNL     1      44.397   9.151  11.124  0.00  0.00    +0.000 C 
ATOM     15  C   UNL     1      45.113   9.348  12.482  0.00  0.00    +0.000 C 
ATOM     16  H   UNL     1      42.803   8.080  11.804  0.00  0.00    +0.000 HD
ENDBRANCH   8  10
ENDBRANCH   1   4
BRANCH   1  17
ATOM     17  N   UNL     1      48.450   7.127  16.911  0.00  0.00    +0.000 N 
ATOM     18  H   UNL     1      47.621   7.641  17.203  0.00  0.00    +0.000 HD
BRANCH  17  23
ATOM     19  C   UNL     1      47.791   3.569  15.922  0.00  0.00    +0.000 A 
ATOM     20  C   UNL     1      48.030   2.927  17.135  0.00  0.00    +0.000 A 
ATOM     21  C   UNL     1      48.375   3.672  18.270  0.00  0.00    +0.000 A 
ATOM     22  C   UNL     1      48.474   5.065  18.201  0.00  0.00    +0.000 A 
ATOM     23  C   UNL     1      48.231   5.728  16.975  0.00  0.00    +0.000 A 
ATOM     24  C   UNL     1      47.896   4.962  15.851  0.00  0.00    +0.000 A 
BRANCH  19  26
ATOM     25  C   UNL     1      46.903   3.779  13.726  0.00  0.00    +0.000 C 
ATOM     26  O   UNL     1      47.456   2.955  14.745  0.00  0.00    +0.000 OA
ENDBRANCH  19  26
BRANCH  22  27
ATOM     27  O   UNL     1      48.791   5.883  19.261  0.00  0.00    +0.000 OA
ATOM     28  C   UNL     1      48.119   5.648  20.492  0.00  0.00    +0.000 C 
ENDBRANCH  22  27
ENDBRANCH  17  23
ENDBRANCH   1  17
TORSDOF 6
ENDMDL
MODEL 8
REMARK VINA RESULT:    -5.717      4.070      7.366
REMARK INTER + INTRA:          -8.705
REMARK INTER:                  -7.826
REMARK INTRA:                  -0.879
REMARK UNBOUND:                -0.983
REMARK  Name = 
REMARK  8 active torsions:
REMARK  status: ('A' for Active; 'I' for Inactive)
REMARK    1  A    between atoms: C_1  and  O_2
REMARK    2  A    between atoms: O_2  and  C_3
REMARK    3  A    between atoms: C_6  and  O_7
REMARK    4  A    between atoms: O_7  and  C_8
REMARK    5  A    between atoms: C_9  and  N_10
REMARK    6  A    between atoms: N_10  and  C_11
REMARK    7  A    between atoms: C_11  and  C_12
REMARK    8  A    between atoms: C_16  and  N_17
REMARK                            x       y       z     vdW  Elec       q    Type
REMARK                         _______ _______ _______ _____ _____    ______ ____
ROOT
ATOM      1  C   UNL     1      48.843   8.288  12.957  0.00  0.00    +0.000 C 
ATOM      2  C   UNL     1      49.839   7.699  11.967  0.00  0.00    +0.000 C 
ATOM      3  C   UNL     1      49.422   9.117  11.811  0.00  0.00    +0.000 C 
ENDROOT
BRANCH   1   4
ATOM      4  C   UNL     1      47.359   7.987  12.778  0.00  0.00    +0.000 A 
ATOM      5  C   UNL     1      46.423   9.021  12.608  0.00  0.00    +0.000 A 
ATOM      6  C   UNL     1      45.168   8.762  12.064  0.00  0.00    +0.000 A 
ATOM      7  C   UNL     1      44.843   7.465  11.664  0.00  0.00    +0.000 A 
ATOM      8  C   UNL     1      45.719   6.397  11.889  0.00  0.00    +0.000 A 
ATOM      9  C   UNL     1      46.929   6.673  12.530  0.00  0.00    +0.000 A 
BRANCH   8  10
ATOM     10  N   UNL     1      45.481   5.130  11.409  0.00  0.00    +0.000 N 
ATOM     11  C   UNL     1      45.245   4.876   9.987  0.00  0.00    +0.000 C 
ATOM     12  C   UNL     1      43.851   4.253   9.780  0.00  0.00    +0.000 C 
ATOM     13  N   UNL     1      43.613   3.055  10.618  0.00  0.00    +0.000 NA
ATOM     14  C   UNL     1      43.838   3.417  12.040  0.00  0.00    +0.000 C 
ATOM     15  C   UNL     1      45.239   4.010  12.321  0.00  0.00    +0.000 C 
ATOM     16  H   UNL     1      44.316   2.359  10.366  0.00  0.00    +0.000 HD
ENDBRANCH   8  10
ENDBRANCH   1   4
BRANCH   1  17
ATOM     17  N   UNL     1      49.275   8.632  14.313  0.00  0.00    +0.000 N 
ATOM     18  H   UNL     1      49.484   9.604  14.532  0.00  0.00    +0.000 HD
BRANCH  17  23
ATOM     19  C   UNL     1      48.889   5.813  16.757  0.00  0.00    +0.000 A 
ATOM     20  C   UNL     1      48.582   6.529  17.913  0.00  0.00    +0.000 A 
ATOM     21  C   UNL     1      48.474   7.925  17.869  0.00  0.00    +0.000 A 
ATOM     22  C   UNL     1      48.666   8.613  16.667  0.00  0.00    +0.000 A 
ATOM     23  C   UNL     1      48.976   7.898  15.487  0.00  0.00    +0.000 A 
ATOM     24  C   UNL     1      49.087   6.503  15.556  0.00  0.00    +0.000 A 
BRANCH  19  26
ATOM     25  C   UNL     1      47.850   3.676  16.830  0.00  0.00    +0.000 C 
ATOM     26  O   UNL     1      49.029   4.454  16.672  0.00  0.00    +0.000 OA
ENDBRANCH  19  26
BRANCH  22  27
ATOM     27  O   UNL     1      48.567   9.978  16.520  0.00  0.00    +0.000 OA
ATOM     28  C   UNL     1      48.020  10.715  17.607  0.00  0.00    +0.000 C 
ENDBRANCH  22  27
ENDBRANCH  17  23
ENDBRANCH   1  17
TORSDOF 6
ENDMDL
MODEL 9
REMARK VINA RESULT:    -5.660      4.282      7.636
REMARK INTER + INTRA:          -8.628
REMARK INTER:                  -7.719
REMARK INTRA:                  -0.909
REMARK UNBOUND:                -0.983
REMARK  Name = 
REMARK  8 active torsions:
REMARK  status: ('A' for Active; 'I' for Inactive)
REMARK    1  A    between atoms: C_1  and  O_2
REMARK    2  A    between atoms: O_2  and  C_3
REMARK    3  A    between atoms: C_6  and  O_7
REMARK    4  A    between atoms: O_7  and  C_8
REMARK    5  A    between atoms: C_9  and  N_10
REMARK    6  A    between atoms: N_10  and  C_11
REMARK    7  A    between atoms: C_11  and  C_12
REMARK    8  A    between atoms: C_16  and  N_17
REMARK                            x       y       z     vdW  Elec       q    Type
REMARK                         _______ _______ _______ _____ _____    ______ ____
ROOT
ATOM      1  C   UNL     1      48.819   8.132  12.891  0.00  0.00    +0.000 C 
ATOM      2  C   UNL     1      49.823   7.564  11.896  0.00  0.00    +0.000 C 
ATOM      3  C   UNL     1      49.372   8.972  11.740  0.00  0.00    +0.000 C 
ENDROOT
BRANCH   1   4
ATOM      4  C   UNL     1      47.341   7.796  12.721  0.00  0.00    +0.000 A 
ATOM      5  C   UNL     1      46.386   8.804  12.509  0.00  0.00    +0.000 A 
ATOM      6  C   UNL     1      45.138   8.501  11.973  0.00  0.00    +0.000 A 
ATOM      7  C   UNL     1      44.839   7.183  11.624  0.00  0.00    +0.000 A 
ATOM      8  C   UNL     1      45.734   6.142  11.892  0.00  0.00    +0.000 A 
ATOM      9  C   UNL     1      46.937   6.465  12.524  0.00  0.00    +0.000 A 
BRANCH   8  10
ATOM     10  N   UNL     1      45.522   4.852  11.462  0.00  0.00    +0.000 N 
ATOM     11  C   UNL     1      45.209   4.548  10.065  0.00  0.00    +0.000 C 
ATOM     12  C   UNL     1      43.833   3.862   9.963  0.00  0.00    +0.000 C 
ATOM     13  N   UNL     1      43.700   2.680  10.845  0.00  0.00    +0.000 NA
ATOM     14  C   UNL     1      43.996   3.092  12.240  0.00  0.00    +0.000 C 
ATOM     15  C   UNL     1      45.385   3.751  12.416  0.00  0.00    +0.000 C 
ATOM     16  H   UNL     1      44.414   2.006  10.568  0.00  0.00    +0.000 HD
ENDBRANCH   8  10
ENDBRANCH   1   4
BRANCH   1  17
ATOM     17  N   UNL     1      49.250   8.490  14.243  0.00  0.00    +0.000 N 
ATOM     18  H   UNL     1      48.931   9.368  14.647  0.00  0.00    +0.000 HD
BRANCH  17  23
ATOM     19  C   UNL     1      49.214   5.659  16.705  0.00  0.00    +0.000 A 
ATOM     20  C   UNL     1      50.551   5.656  17.096  0.00  0.00    +0.000 A 
ATOM     21  C   UNL     1      51.441   6.602  16.572  0.00  0.00    +0.000 A 
ATOM     22  C   UNL     1      50.998   7.562  15.658  0.00  0.00    +0.000 A 
ATOM     23  C   UNL     1      49.642   7.578  15.254  0.00  0.00    +0.000 A 
ATOM     24  C   UNL     1      48.771   6.617  15.785  0.00  0.00    +0.000 A 
BRANCH  19  26
ATOM     25  C   UNL     1      47.541   5.147  18.315  0.00  0.00    +0.000 C 
ATOM     26  O   UNL     1      48.252   4.787  17.137  0.00  0.00    +0.000 OA
ENDBRANCH  19  26
BRANCH  22  27
ATOM     27  O   UNL     1      51.790   8.539  15.099  0.00  0.00    +0.000 OA
ATOM     28  C   UNL     1      52.869   8.114  14.277  0.00  0.00    +0.000 C 
ENDBRANCH  22  27
ENDBRANCH  17  23
ENDBRANCH   1  17
TORSDOF 6
ENDMDL
