MODEL 1
REMARK VINA RESULT:    -7.931      0.000      0.000
REMARK INTER + INTRA:         -13.009
REMARK INTER:                 -11.873
REMARK INTRA:                  -1.137
REMARK UNBOUND:                -1.137
REMARK  Name = 
REMARK  10 active torsions:
REMARK  status: ('A' for Active; 'I' for Inactive)
REMARK    1  A    between atoms: C_1  and  O_2
REMARK    2  A    between atoms: O_2  and  C_3
REMARK    3  A    between atoms: C_7  and  C_8
REMARK    4  A    between atoms: C_8  and  C_9
REMARK    5  A    between atoms: C_9  and  C_10
REMARK    6  A    between atoms: C_10  and  C_11
REMARK    7  A    between atoms: C_14  and  C_15
REMARK    8  A    between atoms: C_15  and  N_16
REMARK    9  A    between atoms: C_17  and  C_19
REMARK   10  A    between atoms: C_26  and  O_27
REMARK                            x       y       z     vdW  Elec       q    Type
REMARK                         _______ _______ _______ _____ _____    ______ ____
ROOT
ATOM      1  C   UNL     1      45.512   3.438   8.213  0.00  0.00    +0.000 A 
ATOM      2  C   UNL     1      45.763   4.712   8.741  0.00  0.00    +0.000 A 
ATOM      3  C   UNL     1      45.408   5.021  10.059  0.00  0.00    +0.000 A 
ATOM      4  C   UNL     1      44.811   4.058  10.881  0.00  0.00    +0.000 A 
ATOM      5  C   UNL     1      44.535   2.793  10.343  0.00  0.00    +0.000 A 
ATOM      6  C   UNL     1      44.890   2.484   9.026  0.00  0.00    +0.000 A 
ENDROOT
BRANCH   1   7
ATOM      7  C   UNL     1      45.952   3.089   6.810  0.00  0.00    +0.000 C 
BRANCH   7   8
ATOM      8  C   UNL     1      46.872   1.866   6.794  0.00  0.00    +0.000 C 
BRANCH   8   9
ATOM      9  C   UNL     1      47.746   1.831   5.538  0.00  0.00    +0.000 C 
BRANCH   9  14
ATOM     10  C   UNL     1      46.723  -1.070   3.531  0.00  0.00    +0.000 A 
ATOM     11  C   UNL     1      45.859  -0.564   2.576  0.00  0.00    +0.000 A 
ATOM     12  C   UNL     1      45.609   0.804   2.577  0.00  0.00    +0.000 A 
ATOM     13  C   UNL     1      46.226   1.610   3.530  0.00  0.00    +0.000 A 
ATOM     14  C   UNL     1      47.087   1.019   4.452  0.00  0.00    +0.000 A 
ATOM     15  N   UNL     1      47.344  -0.310   4.459  0.00  0.00    +0.000 NA
BRANCH  10  17
ATOM     16  C   UNL     1      46.519  -3.057   4.732  0.00  0.00    +0.000 C 
ATOM     17  O   UNL     1      46.935  -2.434   3.519  0.00  0.00    +0.000 OA
ENDBRANCH  10  17
ENDBRANCH   9  14
ENDBRANCH   8   9
ENDBRANCH   7   8
ENDBRANCH   1   7
BRANCH   4  18
ATOM     18  C   UNL     1      44.459   4.378  12.312  0.00  0.00    +0.000 C 
BRANCH  18  19
ATOM     19  N   UNL     1      45.526   5.088  12.970  0.00  0.00    +0.000 N 
ATOM     20  C   UNL     1      46.483   4.429  13.700  0.00  0.00    +0.000 C 
ATOM     21  O   UNL     1      46.599   3.207  13.695  0.00  0.00    +0.000 OA
ATOM     22  H   UNL     1      45.414   6.086  13.087  0.00  0.00    +0.000 HD
BRANCH  20  23
ATOM     23  C   UNL     1      47.398   5.289  14.451  0.00  0.00    +0.000 A 
ATOM     24  C   UNL     1      48.089   6.314  13.822  0.00  0.00    +0.000 A 
ATOM     25  S   UNL     1      49.048   7.232  14.895  0.00  0.00    +0.000 S 
ATOM     26  C   UNL     1      48.616   6.244  16.209  0.00  0.00    +0.000 A 
ATOM     27  N   UNL     1      49.109   6.485  17.437  0.00  0.00    +0.000 NA
ATOM     28  C   UNL     1      48.692   5.599  18.345  0.00  0.00    +0.000 A 
ATOM     29  N   UNL     1      47.882   4.547  18.149  0.00  0.00    +0.000 NA
ATOM     30  C   UNL     1      47.427   4.368  16.908  0.00  0.00    +0.000 A 
ATOM     31  C   UNL     1      47.749   5.222  15.854  0.00  0.00    +0.000 A 
BRANCH  30  32
ATOM     32  O   UNL     1      46.609   3.286  16.768  0.00  0.00    +0.000 OA
ATOM     33  H   UNL     1      46.161   3.280  17.634  0.00  0.00    +0.000 HD
ENDBRANCH  30  32
ENDBRANCH  20  23
ENDBRANCH  18  19
ENDBRANCH   4  18
TORSDOF 9
ENDMDL
MODEL 2
REMARK VINA RESULT:    -7.851      3.206      4.299
REMARK INTER + INTRA:         -12.890
REMARK INTER:                 -12.196
REMARK INTRA:                  -0.693
REMARK UNBOUND:                -1.137
REMARK  Name = 
REMARK  10 active torsions:
REMARK  status: ('A' for Active; 'I' for Inactive)
REMARK    1  A    between atoms: C_1  and  O_2
REMARK    2  A    between atoms: O_2  and  C_3
REMARK    3  A    between atoms: C_7  and  C_8
REMARK    4  A    between atoms: C_8  and  C_9
REMARK    5  A    between atoms: C_9  and  C_10
REMARK    6  A    between atoms: C_10  and  C_11
REMARK    7  A    between atoms: C_14  and  C_15
REMARK    8  A    between atoms: C_15  and  N_16
REMARK    9  A    between atoms: C_17  and  C_19
REMARK   10  A    between atoms: C_26  and  O_27
REMARK                            x       y       z     vdW  Elec       q    Type
REMARK                         _______ _______ _______ _____ _____    ______ ____
ROOT
ATOM      1  C   UNL     1      46.226   2.024   7.802  0.00  0.00    +0.000 A 
ATOM      2  C   UNL     1      46.369   3.409   7.638  0.00  0.00    +0.000 A 
ATOM      3  C   UNL     1      45.602   4.300   8.397  0.00  0.00    +0.000 A 
ATOM      4  C   UNL     1      44.691   3.825   9.349  0.00  0.00    +0.000 A 
ATOM      5  C   UNL     1      44.529   2.440   9.491  0.00  0.00    +0.000 A 
ATOM      6  C   UNL     1      45.295   1.549   8.732  0.00  0.00    +0.000 A 
ENDROOT
BRANCH   1   7
ATOM      7  C   UNL     1      47.098   1.067   7.024  0.00  0.00    +0.000 C 
BRANCH   7   8
ATOM      8  C   UNL     1      47.821   1.770   5.873  0.00  0.00    +0.000 C 
BRANCH   8   9
ATOM      9  C   UNL     1      46.848   2.213   4.778  0.00  0.00    +0.000 C 
BRANCH   9  14
ATOM     10  C   UNL     1      46.902  -1.142   3.286  0.00  0.00    +0.000 A 
ATOM     11  C   UNL     1      45.954  -1.106   2.279  0.00  0.00    +0.000 A 
ATOM     12  C   UNL     1      45.270   0.085   2.063  0.00  0.00    +0.000 A 
ATOM     13  C   UNL     1      45.556   1.190   2.861  0.00  0.00    +0.000 A 
ATOM     14  C   UNL     1      46.530   1.069   3.850  0.00  0.00    +0.000 A 
ATOM     15  N   UNL     1      47.207  -0.084   4.067  0.00  0.00    +0.000 NA
BRANCH  10  17
ATOM     16  C   UNL     1      46.657  -3.373   3.917  0.00  0.00    +0.000 C 
ATOM     17  O   UNL     1      47.548  -2.344   3.490  0.00  0.00    +0.000 OA
ENDBRANCH  10  17
ENDBRANCH   9  14
ENDBRANCH   8   9
ENDBRANCH   7   8
ENDBRANCH   1   7
BRANCH   4  18
ATOM     18  C   UNL     1      43.889   4.784  10.192  0.00  0.00    +0.000 C 
BRANCH  18  19
ATOM     19  N   UNL     1      44.669   5.937  10.563  0.00  0.00    +0.000 N 
ATOM     20  C   UNL     1      44.960   6.215  11.875  0.00  0.00    +0.000 C 
ATOM     21  O   UNL     1      44.737   5.424  12.787  0.00  0.00    +0.000 OA
ATOM     22  H   UNL     1      44.783   6.661   9.866  0.00  0.00    +0.000 HD
BRANCH  20  23
ATOM     23  C   UNL     1      45.607   7.506  12.111  0.00  0.00    +0.000 A 
ATOM     24  C   UNL     1      46.819   7.581  12.783  0.00  0.00    +0.000 A 
ATOM     25  S   UNL     1      47.425   9.173  12.890  0.00  0.00    +0.000 S 
ATOM     26  C   UNL     1      46.057   9.804  12.104  0.00  0.00    +0.000 A 
ATOM     27  N   UNL     1      45.943  11.126  11.884  0.00  0.00    +0.000 NA
ATOM     28  C   UNL     1      44.795  11.454  11.282  0.00  0.00    +0.000 A 
ATOM     29  N   UNL     1      43.804  10.630  10.911  0.00  0.00    +0.000 NA
ATOM     30  C   UNL     1      43.984   9.331  11.155  0.00  0.00    +0.000 A 
ATOM     31  C   UNL     1      45.137   8.827  11.752  0.00  0.00    +0.000 A 
BRANCH  30  32
ATOM     32  O   UNL     1      42.945   8.543  10.756  0.00  0.00    +0.000 OA
ATOM     33  H   UNL     1      42.451   9.162  10.187  0.00  0.00    +0.000 HD
ENDBRANCH  30  32
ENDBRANCH  20  23
ENDBRANCH  18  19
ENDBRANCH   4  18
TORSDOF 9
ENDMDL
MODEL 3
REMARK VINA RESULT:    -7.802      2.089      2.616
REMARK INTER + INTRA:         -12.816
REMARK INTER:                 -12.072
REMARK INTRA:                  -0.744
REMARK UNBOUND:                -1.137
REMARK  Name = 
REMARK  10 active torsions:
REMARK  status: ('A' for Active; 'I' for Inactive)
REMARK    1  A    between atoms: C_1  and  O_2
REMARK    2  A    between atoms: O_2  and  C_3
REMARK    3  A    between atoms: C_7  and  C_8
REMARK    4  A    between atoms: C_8  and  C_9
REMARK    5  A    between atoms: C_9  and  C_10
REMARK    6  A    between atoms: C_10  and  C_11
REMARK    7  A    between atoms: C_14  and  C_15
REMARK    8  A    between atoms: C_15  and  N_16
REMARK    9  A    between atoms: C_17  and  C_19
REMARK   10  A    between atoms: C_26  and  O_27
REMARK                            x       y       z     vdW  Elec       q    Type
REMARK                         _______ _______ _______ _____ _____    ______ ____
ROOT
ATOM      1  C   UNL     1      46.250   1.881   7.697  0.00  0.00    +0.000 A 
ATOM      2  C   UNL     1      46.347   3.263   7.479  0.00  0.00    +0.000 A 
ATOM      3  C   UNL     1      45.561   4.158   8.214  0.00  0.00    +0.000 A 
ATOM      4  C   UNL     1      44.677   3.693   9.194  0.00  0.00    +0.000 A 
ATOM      5  C   UNL     1      44.560   2.310   9.391  0.00  0.00    +0.000 A 
ATOM      6  C   UNL     1      45.345   1.415   8.657  0.00  0.00    +0.000 A 
ENDROOT
BRANCH   1   7
ATOM      7  C   UNL     1      47.142   0.922   6.945  0.00  0.00    +0.000 C 
BRANCH   7   8
ATOM      8  C   UNL     1      47.824   1.602   5.755  0.00  0.00    +0.000 C 
BRANCH   8   9
ATOM      9  C   UNL     1      46.813   2.026   4.688  0.00  0.00    +0.000 C 
BRANCH   9  14
ATOM     10  C   UNL     1      47.005  -1.279   3.097  0.00  0.00    +0.000 A 
ATOM     11  C   UNL     1      45.982  -1.292   2.165  0.00  0.00    +0.000 A 
ATOM     12  C   UNL     1      45.196  -0.153   2.037  0.00  0.00    +0.000 A 
ATOM     13  C   UNL     1      45.458   0.952   2.844  0.00  0.00    +0.000 A 
ATOM     14  C   UNL     1      46.512   0.883   3.752  0.00  0.00    +0.000 A 
ATOM     15  N   UNL     1      47.288  -0.219   3.884  0.00  0.00    +0.000 NA
BRANCH  10  17
ATOM     16  C   UNL     1      46.984  -3.530   3.699  0.00  0.00    +0.000 C 
ATOM     17  O   UNL     1      47.754  -2.431   3.216  0.00  0.00    +0.000 OA
ENDBRANCH  10  17
ENDBRANCH   9  14
ENDBRANCH   8   9
ENDBRANCH   7   8
ENDBRANCH   1   7
BRANCH   4  18
ATOM     18  C   UNL     1      43.855   4.658  10.011  0.00  0.00    +0.000 C 
BRANCH  18  19
ATOM     19  N   UNL     1      44.667   5.725  10.537  0.00  0.00    +0.000 N 
ATOM     20  C   UNL     1      45.088   5.730  11.843  0.00  0.00    +0.000 C 
ATOM     21  O   UNL     1      44.958   4.762  12.588  0.00  0.00    +0.000 OA
ATOM     22  H   UNL     1      44.711   6.581   9.999  0.00  0.00    +0.000 HD
BRANCH  20  23
ATOM     23  C   UNL     1      45.754   6.957  12.280  0.00  0.00    +0.000 A 
ATOM     24  C   UNL     1      45.312   8.200  11.848  0.00  0.00    +0.000 A 
ATOM     25  S   UNL     1      46.189   9.496  12.529  0.00  0.00    +0.000 S 
ATOM     26  C   UNL     1      47.219   8.430  13.362  0.00  0.00    +0.000 A 
ATOM     27  N   UNL     1      48.213   8.903  14.135  0.00  0.00    +0.000 NA
ATOM     28  C   UNL     1      48.943   7.932  14.692  0.00  0.00    +0.000 A 
ATOM     29  N   UNL     1      48.787   6.608  14.546  0.00  0.00    +0.000 NA
ATOM     30  C   UNL     1      47.780   6.207  13.769  0.00  0.00    +0.000 A 
ATOM     31  C   UNL     1      46.912   7.096  13.138  0.00  0.00    +0.000 A 
BRANCH  30  32
ATOM     32  O   UNL     1      47.669   4.852  13.660  0.00  0.00    +0.000 OA
ATOM     33  H   UNL     1      48.289   4.560  14.353  0.00  0.00    +0.000 HD
ENDBRANCH  30  32
ENDBRANCH  20  23
ENDBRANCH  18  19
ENDBRANCH   4  18
TORSDOF 9
ENDMDL
MODEL 4
REMARK VINA RESULT:    -7.598      2.270      4.026
REMARK INTER + INTRA:         -12.510
REMARK INTER:                 -11.524
REMARK INTRA:                  -0.986
REMARK UNBOUND:                -1.137
REMARK  Name = 
REMARK  10 active torsions:
REMARK  status: ('A' for Active; 'I' for Inactive)
REMARK    1  A    between atoms: C_1  and  O_2
REMARK    2  A    between atoms: O_2  and  C_3
REMARK    3  A    between atoms: C_7  and  C_8
REMARK    4  A    between atoms: C_8  and  C_9
REMARK    5  A    between atoms: C_9  and  C_10
REMARK    6  A    between atoms: C_10  and  C_11
REMARK    7  A    between atoms: C_14  and  C_15
REMARK    8  A    between atoms: C_15  and  N_16
REMARK    9  A    between atoms: C_17  and  C_19
REMARK   10  A    between atoms: C_26  and  O_27
REMARK                            x       y       z     vdW  Elec       q    Type
REMARK                         _______ _______ _______ _____ _____    ______ ____
ROOT
ATOM      1  C   UNL     1      44.843   5.710  11.138  0.00  0.00    +0.000 A 
ATOM      2  C   UNL     1      46.212   5.876  10.884  0.00  0.00    +0.000 A 
ATOM      3  C   UNL     1      46.976   6.768  11.644  0.00  0.00    +0.000 A 
ATOM      4  C   UNL     1      46.391   7.500  12.686  0.00  0.00    +0.000 A 
ATOM      5  C   UNL     1      45.017   7.354  12.920  0.00  0.00    +0.000 A 
ATOM      6  C   UNL     1      44.253   6.463  12.160  0.00  0.00    +0.000 A 
ENDROOT
BRANCH   1   7
ATOM      7  C   UNL     1      44.035   4.702  10.355  0.00  0.00    +0.000 C 
BRANCH   7   8
ATOM      8  C   UNL     1      44.403   3.266  10.735  0.00  0.00    +0.000 C 
BRANCH   8   9
ATOM      9  C   UNL     1      44.302   2.319   9.537  0.00  0.00    +0.000 C 
BRANCH   9  14
ATOM     10  C   UNL     1      47.009   1.770   7.116  0.00  0.00    +0.000 A 
ATOM     11  C   UNL     1      47.313   3.026   6.621  0.00  0.00    +0.000 A 
ATOM     12  C   UNL     1      46.606   4.116   7.118  0.00  0.00    +0.000 A 
ATOM     13  C   UNL     1      45.624   3.910   8.083  0.00  0.00    +0.000 A 
ATOM     14  C   UNL     1      45.386   2.612   8.531  0.00  0.00    +0.000 A 
ATOM     15  N   UNL     1      46.070   1.543   8.060  0.00  0.00    +0.000 NA
BRANCH  10  17
ATOM     16  C   UNL     1      47.306   0.395   5.258  0.00  0.00    +0.000 C 
ATOM     17  O   UNL     1      47.712   0.706   6.589  0.00  0.00    +0.000 OA
ENDBRANCH  10  17
ENDBRANCH   9  14
ENDBRANCH   8   9
ENDBRANCH   7   8
ENDBRANCH   1   7
BRANCH   4  18
ATOM     18  C   UNL     1      47.220   8.436  13.529  0.00  0.00    +0.000 C 
BRANCH  18  19
ATOM     19  N   UNL     1      47.702   7.783  14.720  0.00  0.00    +0.000 N 
ATOM     20  C   UNL     1      48.933   7.178  14.758  0.00  0.00    +0.000 C 
ATOM     21  O   UNL     1      49.764   7.303  13.862  0.00  0.00    +0.000 OA
ATOM     22  H   UNL     1      47.022   7.568  15.437  0.00  0.00    +0.000 HD
BRANCH  20  23
ATOM     23  C   UNL     1      49.214   6.409  15.971  0.00  0.00    +0.000 A 
ATOM     24  C   UNL     1      50.320   6.699  16.757  0.00  0.00    +0.000 A 
ATOM     25  S   UNL     1      50.420   5.725  18.155  0.00  0.00    +0.000 S 
ATOM     26  C   UNL     1      49.030   4.853  17.712  0.00  0.00    +0.000 A 
ATOM     27  N   UNL     1      48.572   3.854  18.487  0.00  0.00    +0.000 NA
ATOM     28  C   UNL     1      47.491   3.257  17.978  0.00  0.00    +0.000 A 
ATOM     29  N   UNL     1      46.867   3.542  16.826  0.00  0.00    +0.000 NA
ATOM     30  C   UNL     1      47.371   4.547  16.107  0.00  0.00    +0.000 A 
ATOM     31  C   UNL     1      48.480   5.286  16.515  0.00  0.00    +0.000 A 
BRANCH  30  32
ATOM     32  O   UNL     1      46.696   4.792  14.948  0.00  0.00    +0.000 OA
ATOM     33  H   UNL     1      47.053   5.667  14.707  0.00  0.00    +0.000 HD
ENDBRANCH  30  32
ENDBRANCH  20  23
ENDBRANCH  18  19
ENDBRANCH   4  18
TORSDOF 9
ENDMDL
MODEL 5
REMARK VINA RESULT:    -7.480      4.203     10.264
REMARK INTER + INTRA:         -12.333
REMARK INTER:                 -10.602
REMARK INTRA:                  -1.732
REMARK UNBOUND:                -1.137
REMARK  Name = 
REMARK  10 active torsions:
REMARK  status: ('A' for Active; 'I' for Inactive)
REMARK    1  A    between atoms: C_1  and  O_2
REMARK    2  A    between atoms: O_2  and  C_3
REMARK    3  A    between atoms: C_7  and  C_8
REMARK    4  A    between atoms: C_8  and  C_9
REMARK    5  A    between atoms: C_9  and  C_10
REMARK    6  A    between atoms: C_10  and  C_11
REMARK    7  A    between atoms: C_14  and  C_15
REMARK    8  A    between atoms: C_15  and  N_16
REMARK    9  A    between atoms: C_17  and  C_19
REMARK   10  A    between atoms: C_26  and  O_27
REMARK                            x       y       z     vdW  Elec       q    Type
REMARK                         _______ _______ _______ _____ _____    ______ ____
ROOT
ATOM      1  C   UNL     1      48.952   7.966  16.278  0.00  0.00    +0.000 A 
ATOM      2  C   UNL     1      48.133   8.983  15.768  0.00  0.00    +0.000 A 
ATOM      3  C   UNL     1      47.738   8.976  14.425  0.00  0.00    +0.000 A 
ATOM      4  C   UNL     1      48.140   7.942  13.569  0.00  0.00    +0.000 A 
ATOM      5  C   UNL     1      48.982   6.942  14.074  0.00  0.00    +0.000 A 
ATOM      6  C   UNL     1      49.377   6.950  15.415  0.00  0.00    +0.000 A 
ENDROOT
BRANCH   1   7
ATOM      7  C   UNL     1      49.326   7.946  17.741  0.00  0.00    +0.000 C 
BRANCH   7   8
ATOM      8  C   UNL     1      50.387   6.883  18.038  0.00  0.00    +0.000 C 
BRANCH   8   9
ATOM      9  C   UNL     1      49.845   5.782  18.952  0.00  0.00    +0.000 C 
BRANCH   9  14
ATOM     10  C   UNL     1      49.602   2.691  16.984  0.00  0.00    +0.000 A 
ATOM     11  C   UNL     1      48.250   2.522  16.739  0.00  0.00    +0.000 A 
ATOM     12  C   UNL     1      47.370   3.480  17.230  0.00  0.00    +0.000 A 
ATOM     13  C   UNL     1      47.871   4.564  17.946  0.00  0.00    +0.000 A 
ATOM     14  C   UNL     1      49.247   4.660  18.142  0.00  0.00    +0.000 A 
ATOM     15  N   UNL     1      50.116   3.737  17.666  0.00  0.00    +0.000 NA
BRANCH  10  17
ATOM     16  C   UNL     1      51.511   1.423  17.409  0.00  0.00    +0.000 C 
ATOM     17  O   UNL     1      50.449   1.713  16.503  0.00  0.00    +0.000 OA
ENDBRANCH  10  17
ENDBRANCH   9  14
ENDBRANCH   8   9
ENDBRANCH   7   8
ENDBRANCH   1   7
BRANCH   4  18
ATOM     18  C   UNL     1      47.687   7.914  12.131  0.00  0.00    +0.000 C 
BRANCH  18  19
ATOM     19  N   UNL     1      46.955   6.709  11.834  0.00  0.00    +0.000 N 
ATOM     20  C   UNL     1      45.583   6.688  11.822  0.00  0.00    +0.000 C 
ATOM     21  O   UNL     1      44.902   7.707  11.882  0.00  0.00    +0.000 OA
ATOM     22  H   UNL     1      47.464   5.836  11.880  0.00  0.00    +0.000 HD
BRANCH  20  23
ATOM     23  C   UNL     1      44.981   5.362  11.678  0.00  0.00    +0.000 A 
ATOM     24  C   UNL     1      44.372   4.736  12.756  0.00  0.00    +0.000 A 
ATOM     25  S   UNL     1      43.679   3.230  12.350  0.00  0.00    +0.000 S 
ATOM     26  C   UNL     1      44.231   3.348  10.747  0.00  0.00    +0.000 A 
ATOM     27  N   UNL     1      43.979   2.367   9.862  0.00  0.00    +0.000 NA
ATOM     28  C   UNL     1      44.508   2.605   8.659  0.00  0.00    +0.000 A 
ATOM     29  N   UNL     1      45.235   3.669   8.283  0.00  0.00    +0.000 NA
ATOM     30  C   UNL     1      45.444   4.606   9.208  0.00  0.00    +0.000 A 
ATOM     31  C   UNL     1      44.936   4.517  10.503  0.00  0.00    +0.000 A 
BRANCH  30  32
ATOM     32  O   UNL     1      46.186   5.663   8.769  0.00  0.00    +0.000 OA
ATOM     33  H   UNL     1      47.066   5.429   9.119  0.00  0.00    +0.000 HD
ENDBRANCH  30  32
ENDBRANCH  20  23
ENDBRANCH  18  19
ENDBRANCH   4  18
TORSDOF 9
ENDMDL
MODEL 6
REMARK VINA RESULT:    -7.478      2.999      4.992
REMARK INTER + INTRA:         -12.331
REMARK INTER:                 -10.742
REMARK INTRA:                  -1.590
REMARK UNBOUND:                -1.137
REMARK  Name = 
REMARK  10 active torsions:
REMARK  status: ('A' for Active; 'I' for Inactive)
REMARK    1  A    between atoms: C_1  and  O_2
REMARK    2  A    between atoms: O_2  and  C_3
REMARK    3  A    between atoms: C_7  and  C_8
REMARK    4  A    between atoms: C_8  and  C_9
REMARK    5  A    between atoms: C_9  and  C_10
REMARK    6  A    between atoms: C_10  and  C_11
REMARK    7  A    between atoms: C_14  and  C_15
REMARK    8  A    between atoms: C_15  and  N_16
REMARK    9  A    between atoms: C_17  and  C_19
REMARK   10  A    between atoms: C_26  and  O_27
REMARK                            x       y       z     vdW  Elec       q    Type
REMARK                         _______ _______ _______ _____ _____    ______ ____
ROOT
ATOM      1  C   UNL     1      44.765   5.395  12.831  0.00  0.00    +0.000 A 
ATOM      2  C   UNL     1      45.768   4.743  13.560  0.00  0.00    +0.000 A 
ATOM      3  C   UNL     1      47.075   5.244  13.583  0.00  0.00    +0.000 A 
ATOM      4  C   UNL     1      47.401   6.418  12.892  0.00  0.00    +0.000 A 
ATOM      5  C   UNL     1      46.403   7.053  12.140  0.00  0.00    +0.000 A 
ATOM      6  C   UNL     1      45.097   6.552  12.117  0.00  0.00    +0.000 A 
ENDROOT
BRANCH   1   7
ATOM      7  C   UNL     1      43.343   4.885  12.857  0.00  0.00    +0.000 C 
BRANCH   7   8
ATOM      8  C   UNL     1      42.903   4.369  11.485  0.00  0.00    +0.000 C 
BRANCH   8   9
ATOM      9  C   UNL     1      43.501   2.994  11.178  0.00  0.00    +0.000 C 
BRANCH   9  14
ATOM     10  C   UNL     1      45.789   1.928   8.510  0.00  0.00    +0.000 A 
ATOM     11  C   UNL     1      46.053   3.073   7.780  0.00  0.00    +0.000 A 
ATOM     12  C   UNL     1      45.466   4.264   8.192  0.00  0.00    +0.000 A 
ATOM     13  C   UNL     1      44.636   4.265   9.310  0.00  0.00    +0.000 A 
ATOM     14  C   UNL     1      44.428   3.068   9.991  0.00  0.00    +0.000 A 
ATOM     15  N   UNL     1      44.998   1.902   9.604  0.00  0.00    +0.000 NA
BRANCH  10  17
ATOM     16  C   UNL     1      47.370   0.992   7.076  0.00  0.00    +0.000 C 
ATOM     17  O   UNL     1      46.369   0.758   8.065  0.00  0.00    +0.000 OA
ENDBRANCH  10  17
ENDBRANCH   9  14
ENDBRANCH   8   9
ENDBRANCH   7   8
ENDBRANCH   1   7
BRANCH   4  18
ATOM     18  C   UNL     1      48.799   6.979  12.943  0.00  0.00    +0.000 C 
BRANCH  18  19
ATOM     19  N   UNL     1      49.323   6.963  14.285  0.00  0.00    +0.000 N 
ATOM     20  C   UNL     1      48.939   7.896  15.216  0.00  0.00    +0.000 C 
ATOM     21  O   UNL     1      48.011   8.678  15.030  0.00  0.00    +0.000 OA
ATOM     22  H   UNL     1      50.154   6.411  14.451  0.00  0.00    +0.000 HD
BRANCH  20  23
ATOM     23  C   UNL     1      49.680   7.862  16.477  0.00  0.00    +0.000 A 
ATOM     24  C   UNL     1      50.337   8.991  16.947  0.00  0.00    +0.000 A 
ATOM     25  S   UNL     1      51.082   8.748  18.463  0.00  0.00    +0.000 S 
ATOM     26  C   UNL     1      50.602   7.118  18.497  0.00  0.00    +0.000 A 
ATOM     27  N   UNL     1      50.932   6.328  19.535  0.00  0.00    +0.000 NA
ATOM     28  C   UNL     1      50.503   5.072  19.388  0.00  0.00    +0.000 A 
ATOM     29  N   UNL     1      49.822   4.558  18.352  0.00  0.00    +0.000 NA
ATOM     30  C   UNL     1      49.525   5.396  17.358  0.00  0.00    +0.000 A 
ATOM     31  C   UNL     1      49.879   6.744  17.374  0.00  0.00    +0.000 A 
BRANCH  30  32
ATOM     32  O   UNL     1      48.832   4.819  16.335  0.00  0.00    +0.000 OA
ATOM     33  H   UNL     1      47.922   5.096  16.548  0.00  0.00    +0.000 HD
ENDBRANCH  30  32
ENDBRANCH  20  23
ENDBRANCH  18  19
ENDBRANCH   4  18
TORSDOF 9
ENDMDL
MODEL 7
REMARK VINA RESULT:    -7.223      2.871      4.125
REMARK INTER + INTRA:         -11.949
REMARK INTER:                 -10.932
REMARK INTRA:                  -1.017
REMARK UNBOUND:                -1.137
REMARK  Name = 
REMARK  10 active torsions:
REMARK  status: ('A' for Active; 'I' for Inactive)
REMARK    1  A    between atoms: C_1  and  O_2
REMARK    2  A    between atoms: O_2  and  C_3
REMARK    3  A    between atoms: C_7  and  C_8
REMARK    4  A    between atoms: C_8  and  C_9
REMARK    5  A    between atoms: C_9  and  C_10
REMARK    6  A    between atoms: C_10  and  C_11
REMARK    7  A    between atoms: C_14  and  C_15
REMARK    8  A    between atoms: C_15  and  N_16
REMARK    9  A    between atoms: C_17  and  C_19
REMARK   10  A    between atoms: C_26  and  O_27
REMARK                            x       y       z     vdW  Elec       q    Type
REMARK                         _______ _______ _______ _____ _____    ______ ____
ROOT
ATOM      1  C   UNL     1      44.742   4.834  11.488  0.00  0.00    +0.000 A 
ATOM      2  C   UNL     1      45.258   6.096  11.162  0.00  0.00    +0.000 A 
ATOM      3  C   UNL     1      46.313   6.648  11.897  0.00  0.00    +0.000 A 
ATOM      4  C   UNL     1      46.885   5.942  12.963  0.00  0.00    +0.000 A 
ATOM      5  C   UNL     1      46.349   4.693  13.307  0.00  0.00    +0.000 A 
ATOM      6  C   UNL     1      45.295   4.142  12.572  0.00  0.00    +0.000 A 
ENDROOT
BRANCH   1   7
ATOM      7  C   UNL     1      43.645   4.216  10.655  0.00  0.00    +0.000 C 
BRANCH   7   8
ATOM      8  C   UNL     1      44.202   3.217   9.638  0.00  0.00    +0.000 C 
BRANCH   8   9
ATOM      9  C   UNL     1      44.787   3.922   8.412  0.00  0.00    +0.000 C 
BRANCH   9  14
ATOM     10  C   UNL     1      46.817   0.974   7.590  0.00  0.00    +0.000 A 
ATOM     11  C   UNL     1      47.592   1.358   6.510  0.00  0.00    +0.000 A 
ATOM     12  C   UNL     1      47.457   2.657   6.034  0.00  0.00    +0.000 A 
ATOM     13  C   UNL     1      46.554   3.520   6.650  0.00  0.00    +0.000 A 
ATOM     14  C   UNL     1      45.816   3.053   7.736  0.00  0.00    +0.000 A 
ATOM     15  N   UNL     1      45.942   1.792   8.213  0.00  0.00    +0.000 NA
BRANCH  10  17
ATOM     16  C   UNL     1      46.581  -1.276   7.029  0.00  0.00    +0.000 C 
ATOM     17  O   UNL     1      46.957  -0.327   8.026  0.00  0.00    +0.000 OA
ENDBRANCH  10  17
ENDBRANCH   9  14
ENDBRANCH   8   9
ENDBRANCH   7   8
ENDBRANCH   1   7
BRANCH   4  18
ATOM     18  C   UNL     1      48.045   6.520  13.735  0.00  0.00    +0.000 C 
BRANCH  18  19
ATOM     19  N   UNL     1      47.934   6.232  15.142  0.00  0.00    +0.000 N 
ATOM     20  C   UNL     1      48.973   6.471  16.007  0.00  0.00    +0.000 C 
ATOM     21  O   UNL     1      49.977   7.099  15.683  0.00  0.00    +0.000 OA
ATOM     22  H   UNL     1      47.177   5.627  15.433  0.00  0.00    +0.000 HD
BRANCH  20  23
ATOM     23  C   UNL     1      48.780   5.969  17.368  0.00  0.00    +0.000 A 
ATOM     24  C   UNL     1      49.062   4.648  17.686  0.00  0.00    +0.000 A 
ATOM     25  S   UNL     1      48.829   4.294  19.339  0.00  0.00    +0.000 S 
ATOM     26  C   UNL     1      48.286   5.874  19.655  0.00  0.00    +0.000 A 
ATOM     27  N   UNL     1      47.913   6.234  20.897  0.00  0.00    +0.000 NA
ATOM     28  C   UNL     1      47.487   7.499  20.963  0.00  0.00    +0.000 A 
ATOM     29  N   UNL     1      47.394   8.383  19.958  0.00  0.00    +0.000 NA
ATOM     30  C   UNL     1      47.784   7.962  18.754  0.00  0.00    +0.000 A 
ATOM     31  C   UNL     1      48.278   6.679  18.526  0.00  0.00    +0.000 A 
BRANCH  30  32
ATOM     32  O   UNL     1      47.668   8.902  17.774  0.00  0.00    +0.000 OA
ATOM     33  H   UNL     1      48.160   8.474  17.048  0.00  0.00    +0.000 HD
ENDBRANCH  30  32
ENDBRANCH  20  23
ENDBRANCH  18  19
ENDBRANCH   4  18
TORSDOF 9
ENDMDL
MODEL 8
REMARK VINA RESULT:    -7.103      3.073      5.059
REMARK INTER + INTRA:         -11.769
REMARK INTER:                 -10.552
REMARK INTRA:                  -1.217
REMARK UNBOUND:                -1.137
REMARK  Name = 
REMARK  10 active torsions:
REMARK  status: ('A' for Active; 'I' for Inactive)
REMARK    1  A    between atoms: C_1  and  O_2
REMARK    2  A    between atoms: O_2  and  C_3
REMARK    3  A    between atoms: C_7  and  C_8
REMARK    4  A    between atoms: C_8  and  C_9
REMARK    5  A    between atoms: C_9  and  C_10
REMARK    6  A    between atoms: C_10  and  C_11
REMARK    7  A    between atoms: C_14  and  C_15
REMARK    8  A    between atoms: C_15  and  N_16
REMARK    9  A    between atoms: C_17  and  C_19
REMARK   10  A    between atoms: C_26  and  O_27
REMARK                            x       y       z     vdW  Elec       q    Type
REMARK                         _______ _______ _______ _____ _____    ______ ____
ROOT
ATOM      1  C   UNL     1      44.539   5.419  12.359  0.00  0.00    +0.000 A 
ATOM      2  C   UNL     1      44.878   6.775  12.256  0.00  0.00    +0.000 A 
ATOM      3  C   UNL     1      46.066   7.259  12.815  0.00  0.00    +0.000 A 
ATOM      4  C   UNL     1      46.948   6.393  13.473  0.00  0.00    +0.000 A 
ATOM      5  C   UNL     1      46.594   5.043  13.601  0.00  0.00    +0.000 A 
ATOM      6  C   UNL     1      45.406   4.560  13.042  0.00  0.00    +0.000 A 
ENDROOT
BRANCH   1   7
ATOM      7  C   UNL     1      43.285   4.891  11.703  0.00  0.00    +0.000 C 
BRANCH   7   8
ATOM      8  C   UNL     1      43.606   3.842  10.635  0.00  0.00    +0.000 C 
BRANCH   8   9
ATOM      9  C   UNL     1      44.238   4.473   9.392  0.00  0.00    +0.000 C 
BRANCH   9  14
ATOM     10  C   UNL     1      46.341   2.997   6.768  0.00  0.00    +0.000 A 
ATOM     11  C   UNL     1      46.593   1.704   7.190  0.00  0.00    +0.000 A 
ATOM     12  C   UNL     1      46.032   1.284   8.391  0.00  0.00    +0.000 A 
ATOM     13  C   UNL     1      45.245   2.170   9.123  0.00  0.00    +0.000 A 
ATOM     14  C   UNL     1      45.037   3.453   8.622  0.00  0.00    +0.000 A 
ATOM     15  N   UNL     1      45.574   3.873   7.452  0.00  0.00    +0.000 NA
BRANCH  10  17
ATOM     16  C   UNL     1      47.633   2.327   4.947  0.00  0.00    +0.000 C 
ATOM     17  O   UNL     1      46.929   3.392   5.584  0.00  0.00    +0.000 OA
ENDBRANCH  10  17
ENDBRANCH   9  14
ENDBRANCH   8   9
ENDBRANCH   7   8
ENDBRANCH   1   7
BRANCH   4  18
ATOM     18  C   UNL     1      48.246   6.905  14.046  0.00  0.00    +0.000 C 
BRANCH  18  19
ATOM     19  N   UNL     1      48.110   7.238  15.441  0.00  0.00    +0.000 N 
ATOM     20  C   UNL     1      48.928   6.684  16.393  0.00  0.00    +0.000 C 
ATOM     21  O   UNL     1      49.924   6.024  16.112  0.00  0.00    +0.000 OA
ATOM     22  H   UNL     1      47.250   7.688  15.727  0.00  0.00    +0.000 HD
BRANCH  20  23
ATOM     23  C   UNL     1      48.561   6.979  17.779  0.00  0.00    +0.000 A 
ATOM     24  C   UNL     1      48.591   5.987  18.749  0.00  0.00    +0.000 A 
ATOM     25  S   UNL     1      48.190   6.562  20.305  0.00  0.00    +0.000 S 
ATOM     26  C   UNL     1      47.905   8.129  19.711  0.00  0.00    +0.000 A 
ATOM     27  N   UNL     1      47.516   9.115  20.539  0.00  0.00    +0.000 NA
ATOM     28  C   UNL     1      47.309  10.272  19.904  0.00  0.00    +0.000 A 
ATOM     29  N   UNL     1      47.436  10.518  18.592  0.00  0.00    +0.000 NA
ATOM     30  C   UNL     1      47.828   9.497  17.828  0.00  0.00    +0.000 A 
ATOM     31  C   UNL     1      48.110   8.233  18.343  0.00  0.00    +0.000 A 
BRANCH  30  32
ATOM     32  O   UNL     1      47.942   9.806  16.505  0.00  0.00    +0.000 OA
ATOM     33  H   UNL     1      47.760  10.764  16.523  0.00  0.00    +0.000 HD
ENDBRANCH  30  32
ENDBRANCH  20  23
ENDBRANCH  18  19
ENDBRANCH   4  18
TORSDOF 9
ENDMDL
MODEL 9
REMARK VINA RESULT:    -7.082      3.079      5.181
REMARK INTER + INTRA:         -11.737
REMARK INTER:                 -10.976
REMARK INTRA:                  -0.761
REMARK UNBOUND:                -1.137
REMARK  Name = 
REMARK  10 active torsions:
REMARK  status: ('A' for Active; 'I' for Inactive)
REMARK    1  A    between atoms: C_1  and  O_2
REMARK    2  A    between atoms: O_2  and  C_3
REMARK    3  A    between atoms: C_7  and  C_8
REMARK    4  A    between atoms: C_8  and  C_9
REMARK    5  A    between atoms: C_9  and  C_10
REMARK    6  A    between atoms: C_10  and  C_11
REMARK    7  A    between atoms: C_14  and  C_15
REMARK    8  A    between atoms: C_15  and  N_16
REMARK    9  A    between atoms: C_17  and  C_19
REMARK   10  A    between atoms: C_26  and  O_27
REMARK                            x       y       z     vdW  Elec       q    Type
REMARK                         _______ _______ _______ _____ _____    ______ ____
ROOT
ATOM      1  C   UNL     1      44.853   5.182  12.887  0.00  0.00    +0.000 A 
ATOM      2  C   UNL     1      45.837   4.300  13.355  0.00  0.00    +0.000 A 
ATOM      3  C   UNL     1      47.066   4.784  13.820  0.00  0.00    +0.000 A 
ATOM      4  C   UNL     1      47.327   6.160  13.843  0.00  0.00    +0.000 A 
ATOM      5  C   UNL     1      46.353   7.037  13.347  0.00  0.00    +0.000 A 
ATOM      6  C   UNL     1      45.126   6.554  12.883  0.00  0.00    +0.000 A 
ENDROOT
BRANCH   1   7
ATOM      7  C   UNL     1      43.507   4.660  12.442  0.00  0.00    +0.000 C 
BRANCH   7   8
ATOM      8  C   UNL     1      43.251   4.948  10.961  0.00  0.00    +0.000 C 
BRANCH   8   9
ATOM      9  C   UNL     1      44.538   5.326  10.226  0.00  0.00    +0.000 C 
BRANCH   9  14
ATOM     10  C   UNL     1      46.125   3.529   7.443  0.00  0.00    +0.000 A 
ATOM     11  C   UNL     1      46.010   2.188   7.765  0.00  0.00    +0.000 A 
ATOM     12  C   UNL     1      45.364   1.851   8.949  0.00  0.00    +0.000 A 
ATOM     13  C   UNL     1      44.862   2.861   9.765  0.00  0.00    +0.000 A 
ATOM     14  C   UNL     1      45.015   4.186   9.362  0.00  0.00    +0.000 A 
ATOM     15  N   UNL     1      45.638   4.529   8.209  0.00  0.00    +0.000 NA
BRANCH  10  17
ATOM     16  C   UNL     1      46.874   2.717   5.390  0.00  0.00    +0.000 C 
ATOM     17  O   UNL     1      46.790   3.834   6.273  0.00  0.00    +0.000 OA
ENDBRANCH  10  17
ENDBRANCH   9  14
ENDBRANCH   8   9
ENDBRANCH   7   8
ENDBRANCH   1   7
BRANCH   4  18
ATOM     18  C   UNL     1      48.636   6.686  14.376  0.00  0.00    +0.000 C 
BRANCH  18  19
ATOM     19  N   UNL     1      48.519   7.091  15.753  0.00  0.00    +0.000 N 
ATOM     20  C   UNL     1      48.729   6.206  16.781  0.00  0.00    +0.000 C 
ATOM     21  O   UNL     1      49.197   5.085  16.609  0.00  0.00    +0.000 OA
ATOM     22  H   UNL     1      48.041   7.963  15.940  0.00  0.00    +0.000 HD
BRANCH  20  23
ATOM     23  C   UNL     1      48.405   6.711  18.116  0.00  0.00    +0.000 A 
ATOM     24  C   UNL     1      48.079   8.046  18.312  0.00  0.00    +0.000 A 
ATOM     25  S   UNL     1      47.674   8.404  19.930  0.00  0.00    +0.000 S 
ATOM     26  C   UNL     1      47.986   6.806  20.418  0.00  0.00    +0.000 A 
ATOM     27  N   UNL     1      47.838   6.442  21.705  0.00  0.00    +0.000 NA
ATOM     28  C   UNL     1      48.152   5.161  21.920  0.00  0.00    +0.000 A 
ATOM     29  N   UNL     1      48.586   4.265  21.021  0.00  0.00    +0.000 NA
ATOM     30  C   UNL     1      48.707   4.692  19.763  0.00  0.00    +0.000 A 
ATOM     31  C   UNL     1      48.394   5.992  19.372  0.00  0.00    +0.000 A 
BRANCH  30  32
ATOM     32  O   UNL     1      49.151   3.738  18.895  0.00  0.00    +0.000 OA
ATOM     33  H   UNL     1      48.311   3.454  18.488  0.00  0.00    +0.000 HD
ENDBRANCH  30  32
ENDBRANCH  20  23
ENDBRANCH  18  19
ENDBRANCH   4  18
TORSDOF 9
ENDMDL
