MODEL 1
REMARK VINA RESULT:    -8.614      0.000      0.000
REMARK INTER + INTRA:         -11.333
REMARK INTER:                 -11.132
REMARK INTRA:                  -0.201
REMARK UNBOUND:                -0.201
REMARK  Name = 
REMARK  5 active torsions:
REMARK  status: ('A' for Active; 'I' for Inactive)
REMARK    1  A    between atoms: C_2  and  C_18
REMARK    2  A    between atoms: N_3  and  C_4
REMARK    3  A    between atoms: C_4  and  C_5
REMARK    4  A    between atoms: C_8  and  C_9
REMARK    5  A    between atoms: C_9  and  C_10
REMARK                            x       y       z     vdW  Elec       q    Type
REMARK                         _______ _______ _______ _____ _____    ______ ____
ROOT
ATOM      1  O   UNL     1      46.491   3.343  13.723  0.00  0.00    +0.000 OA
ATOM      2  C   UNL     1      46.315   4.514  14.024  0.00  0.00    +0.000 C 
ATOM      3  N   UNL     1      45.123   5.160  13.813  0.00  0.00    +0.000 N 
ATOM      4  H   UNL     1      45.073   6.169  13.902  0.00  0.00    +0.000 HD
ENDROOT
BRANCH   2   5
ATOM      5  C   UNL     1      47.370   5.295  14.682  0.00  0.00    +0.000 A 
ATOM      6  C   UNL     1      48.043   6.289  13.980  0.00  0.00    +0.000 A 
ATOM      7  S   UNL     1      49.197   7.125  14.918  0.00  0.00    +0.000 S 
ATOM      8  C   UNL     1      48.809   6.217  16.300  0.00  0.00    +0.000 A 
ATOM      9  N   UNL     1      49.400   6.470  17.497  0.00  0.00    +0.000 NA
ATOM     10  C   UNL     1      48.988   5.733  18.470  0.00  0.00    +0.000 A 
ATOM     11  N   UNL     1      48.048   4.739  18.351  0.00  0.00    +0.000 N 
ATOM     12  C   UNL     1      47.467   4.405  17.151  0.00  0.00    +0.000 A 
ATOM     13  O   UNL     1      46.706   3.450  17.062  0.00  0.00    +0.000 OA
ATOM     14  C   UNL     1      47.859   5.252  16.040  0.00  0.00    +0.000 A 
ATOM     15  H   UNL     1      47.797   4.167  19.142  0.00  0.00    +0.000 HD
ENDBRANCH   2   5
BRANCH   3  16
ATOM     16  C   UNL     1      44.089   4.523  13.035  0.00  0.00    +0.000 C 
BRANCH  16  17
ATOM     17  C   UNL     1      44.488   4.345  11.592  0.00  0.00    +0.000 A 
ATOM     18  C   UNL     1      44.061   3.225  10.869  0.00  0.00    +0.000 A 
ATOM     19  C   UNL     1      44.393   3.080   9.517  0.00  0.00    +0.000 A 
ATOM     20  C   UNL     1      45.169   4.046   8.863  0.00  0.00    +0.000 A 
ATOM     21  C   UNL     1      45.620   5.150   9.594  0.00  0.00    +0.000 A 
ATOM     22  C   UNL     1      45.294   5.293  10.947  0.00  0.00    +0.000 A 
BRANCH  20  23
ATOM     23  C   UNL     1      45.535   3.889   7.407  0.00  0.00    +0.000 C 
BRANCH  23  24
ATOM     24  C   UNL     1      46.706   2.920   7.115  0.00  0.00    +0.000 C 
ATOM     25  C   UNL     1      46.915   2.726   5.602  0.00  0.00    +0.000 C 
ATOM     26  C   UNL     1      47.700   1.473   5.248  0.00  0.00    +0.000 C 
ATOM     27  O   UNL     1      47.147   0.331   5.894  0.00  0.00    +0.000 OA
ATOM     28  C   UNL     1      47.282   0.430   7.307  0.00  0.00    +0.000 C 
ATOM     29  C   UNL     1      46.447   1.585   7.841  0.00  0.00    +0.000 C 
ENDBRANCH  23  24
ENDBRANCH  20  23
ENDBRANCH  16  17
ENDBRANCH   3  16
TORSDOF 5
ENDMDL
MODEL 2
REMARK VINA RESULT:    -8.493      1.478      1.877
REMARK INTER + INTRA:         -11.177
REMARK INTER:                 -10.342
REMARK INTRA:                  -0.834
REMARK UNBOUND:                -0.201
REMARK  Name = 
REMARK  5 active torsions:
REMARK  status: ('A' for Active; 'I' for Inactive)
REMARK    1  A    between atoms: C_2  and  C_18
REMARK    2  A    between atoms: N_3  and  C_4
REMARK    3  A    between atoms: C_4  and  C_5
REMARK    4  A    between atoms: C_8  and  C_9
REMARK    5  A    between atoms: C_9  and  C_10
REMARK                            x       y       z     vdW  Elec       q    Type
REMARK                         _______ _______ _______ _____ _____    ______ ____
ROOT
ATOM      1  O   UNL     1      48.175   7.278  12.699  0.00  0.00    +0.000 OA
ATOM      2  C   UNL     1      47.546   6.864  13.662  0.00  0.00    +0.000 C 
ATOM      3  N   UNL     1      46.183   6.708  13.641  0.00  0.00    +0.000 N 
ATOM      4  H   UNL     1      45.681   6.541  14.507  0.00  0.00    +0.000 HD
ENDROOT
BRANCH   2   5
ATOM      5  C   UNL     1      48.228   6.456  14.896  0.00  0.00    +0.000 A 
ATOM      6  C   UNL     1      49.205   7.271  15.455  0.00  0.00    +0.000 A 
ATOM      7  S   UNL     1      49.851   6.662  16.912  0.00  0.00    +0.000 S 
ATOM      8  C   UNL     1      48.823   5.311  16.865  0.00  0.00    +0.000 A 
ATOM      9  N   UNL     1      48.816   4.396  17.869  0.00  0.00    +0.000 NA
ATOM     10  C   UNL     1      47.962   3.442  17.726  0.00  0.00    +0.000 A 
ATOM     11  N   UNL     1      47.123   3.302  16.648  0.00  0.00    +0.000 N 
ATOM     12  C   UNL     1      47.135   4.167  15.579  0.00  0.00    +0.000 A 
ATOM     13  O   UNL     1      46.444   3.959  14.591  0.00  0.00    +0.000 OA
ATOM     14  C   UNL     1      48.040   5.291  15.729  0.00  0.00    +0.000 A 
ATOM     15  H   UNL     1      46.505   2.509  16.573  0.00  0.00    +0.000 HD
ENDBRANCH   2   5
BRANCH   3  16
ATOM     16  C   UNL     1      45.417   7.228  12.535  0.00  0.00    +0.000 C 
BRANCH  16  17
ATOM     17  C   UNL     1      45.314   6.243  11.398  0.00  0.00    +0.000 A 
ATOM     18  C   UNL     1      44.338   5.239  11.414  0.00  0.00    +0.000 A 
ATOM     19  C   UNL     1      44.210   4.351  10.340  0.00  0.00    +0.000 A 
ATOM     20  C   UNL     1      45.065   4.440   9.233  0.00  0.00    +0.000 A 
ATOM     21  C   UNL     1      46.059   5.425   9.232  0.00  0.00    +0.000 A 
ATOM     22  C   UNL     1      46.191   6.309  10.308  0.00  0.00    +0.000 A 
BRANCH  20  23
ATOM     23  C   UNL     1      44.936   3.479   8.076  0.00  0.00    +0.000 C 
BRANCH  23  24
ATOM     24  C   UNL     1      46.254   2.813   7.612  0.00  0.00    +0.000 C 
ATOM     25  C   UNL     1      46.480   3.003   6.101  0.00  0.00    +0.000 C 
ATOM     26  C   UNL     1      47.466   2.013   5.501  0.00  0.00    +0.000 C 
ATOM     27  O   UNL     1      47.123   0.679   5.859  0.00  0.00    +0.000 OA
ATOM     28  C   UNL     1      47.250   0.479   7.262  0.00  0.00    +0.000 C 
ATOM     29  C   UNL     1      46.233   1.325   8.013  0.00  0.00    +0.000 C 
ENDBRANCH  23  24
ENDBRANCH  20  23
ENDBRANCH  16  17
ENDBRANCH   3  16
TORSDOF 5
ENDMDL
MODEL 3
REMARK VINA RESULT:    -8.121      2.066      3.184
REMARK INTER + INTRA:         -10.695
REMARK INTER:                 -10.080
REMARK INTRA:                  -0.615
REMARK UNBOUND:                -0.201
REMARK  Name = 
REMARK  5 active torsions:
REMARK  status: ('A' for Active; 'I' for Inactive)
REMARK    1  A    between atoms: C_2  and  C_18
REMARK    2  A    between atoms: N_3  and  C_4
REMARK    3  A    between atoms: C_4  and  C_5
REMARK    4  A    between atoms: C_8  and  C_9
REMARK    5  A    between atoms: C_9  and  C_10
REMARK                            x       y       z     vdW  Elec       q    Type
REMARK                         _______ _______ _______ _____ _____    ______ ____
ROOT
ATOM      1  O   UNL     1      47.325   4.017  14.045  0.00  0.00    +0.000 OA
ATOM      2  C   UNL     1      47.110   5.221  14.046  0.00  0.00    +0.000 C 
ATOM      3  N   UNL     1      45.857   5.747  13.853  0.00  0.00    +0.000 N 
ATOM      4  H   UNL     1      45.749   6.740  13.676  0.00  0.00    +0.000 HD
ENDROOT
BRANCH   2   5
ATOM      5  C   UNL     1      48.187   6.184  14.306  0.00  0.00    +0.000 A 
ATOM      6  C   UNL     1      48.785   6.240  15.560  0.00  0.00    +0.000 A 
ATOM      7  S   UNL     1      50.049   7.381  15.663  0.00  0.00    +0.000 S 
ATOM      8  C   UNL     1      49.866   7.810  14.030  0.00  0.00    +0.000 A 
ATOM      9  N   UNL     1      50.694   8.712  13.442  0.00  0.00    +0.000 NA
ATOM     10  C   UNL     1      50.470   8.918  12.190  0.00  0.00    +0.000 A 
ATOM     11  N   UNL     1      49.466   8.318  11.470  0.00  0.00    +0.000 N 
ATOM     12  C   UNL     1      48.566   7.446  12.034  0.00  0.00    +0.000 A 
ATOM     13  O   UNL     1      47.625   7.004  11.386  0.00  0.00    +0.000 OA
ATOM     14  C   UNL     1      48.821   7.139  13.428  0.00  0.00    +0.000 A 
ATOM     15  H   UNL     1      49.314   8.552  10.501  0.00  0.00    +0.000 HD
ENDBRANCH   2   5
BRANCH   3  16
ATOM     16  C   UNL     1      44.775   4.890  13.436  0.00  0.00    +0.000 C 
BRANCH  16  17
ATOM     17  C   UNL     1      44.841   4.559  11.967  0.00  0.00    +0.000 A 
ATOM     18  C   UNL     1      45.019   5.571  11.017  0.00  0.00    +0.000 A 
ATOM     19  C   UNL     1      45.126   5.262   9.656  0.00  0.00    +0.000 A 
ATOM     20  C   UNL     1      45.046   3.934   9.216  0.00  0.00    +0.000 A 
ATOM     21  C   UNL     1      44.838   2.926  10.163  0.00  0.00    +0.000 A 
ATOM     22  C   UNL     1      44.726   3.235  11.523  0.00  0.00    +0.000 A 
BRANCH  20  23
ATOM     23  C   UNL     1      45.153   3.597   7.748  0.00  0.00    +0.000 C 
BRANCH  23  24
ATOM     24  C   UNL     1      46.455   2.877   7.323  0.00  0.00    +0.000 C 
ATOM     25  C   UNL     1      46.690   2.983   5.805  0.00  0.00    +0.000 C 
ATOM     26  C   UNL     1      47.653   1.940   5.260  0.00  0.00    +0.000 C 
ATOM     27  O   UNL     1      47.275   0.635   5.685  0.00  0.00    +0.000 OA
ATOM     28  C   UNL     1      47.394   0.504   7.097  0.00  0.00    +0.000 C 
ATOM     29  C   UNL     1      46.397   1.412   7.800  0.00  0.00    +0.000 C 
ENDBRANCH  23  24
ENDBRANCH  20  23
ENDBRANCH  16  17
ENDBRANCH   3  16
TORSDOF 5
ENDMDL
MODEL 4
REMARK VINA RESULT:    -7.590      4.183      8.599
REMARK INTER + INTRA:         -10.010
REMARK INTER:                  -8.990
REMARK INTRA:                  -1.019
REMARK UNBOUND:                -0.201
REMARK  Name = 
REMARK  5 active torsions:
REMARK  status: ('A' for Active; 'I' for Inactive)
REMARK    1  A    between atoms: C_2  and  C_18
REMARK    2  A    between atoms: N_3  and  C_4
REMARK    3  A    between atoms: C_4  and  C_5
REMARK    4  A    between atoms: C_8  and  C_9
REMARK    5  A    between atoms: C_9  and  C_10
REMARK                            x       y       z     vdW  Elec       q    Type
REMARK                         _______ _______ _______ _____ _____    ______ ____
ROOT
ATOM      1  O   UNL     1      47.940   6.901  11.837  0.00  0.00    +0.000 OA
ATOM      2  C   UNL     1      47.010   6.907  12.631  0.00  0.00    +0.000 C 
ATOM      3  N   UNL     1      47.126   7.418  13.899  0.00  0.00    +0.000 N 
ATOM      4  H   UNL     1      46.398   7.239  14.583  0.00  0.00    +0.000 HD
ENDROOT
BRANCH   2   5
ATOM      5  C   UNL     1      45.684   6.406  12.250  0.00  0.00    +0.000 A 
ATOM      6  C   UNL     1      44.753   7.263  11.674  0.00  0.00    +0.000 A 
ATOM      7  S   UNL     1      43.289   6.496  11.251  0.00  0.00    +0.000 S 
ATOM      8  C   UNL     1      43.862   4.990  11.787  0.00  0.00    +0.000 A 
ATOM      9  N   UNL     1      43.113   3.864  11.656  0.00  0.00    +0.000 NA
ATOM     10  C   UNL     1      43.681   2.784  12.068  0.00  0.00    +0.000 A 
ATOM     11  N   UNL     1      44.933   2.728  12.631  0.00  0.00    +0.000 N 
ATOM     12  C   UNL     1      45.704   3.847  12.841  0.00  0.00    +0.000 A 
ATOM     13  O   UNL     1      46.773   3.774  13.434  0.00  0.00    +0.000 OA
ATOM     14  C   UNL     1      45.125   5.077  12.334  0.00  0.00    +0.000 A 
ATOM     15  H   UNL     1      45.307   1.858  12.975  0.00  0.00    +0.000 HD
ENDBRANCH   2   5
BRANCH   3  16
ATOM     16  C   UNL     1      48.424   7.785  14.410  0.00  0.00    +0.000 C 
BRANCH  16  17
ATOM     17  C   UNL     1      48.941   6.795  15.423  0.00  0.00    +0.000 A 
ATOM     18  C   UNL     1      48.110   5.780  15.911  0.00  0.00    +0.000 A 
ATOM     19  C   UNL     1      48.600   4.832  16.817  0.00  0.00    +0.000 A 
ATOM     20  C   UNL     1      49.928   4.887  17.263  0.00  0.00    +0.000 A 
ATOM     21  C   UNL     1      50.748   5.921  16.796  0.00  0.00    +0.000 A 
ATOM     22  C   UNL     1      50.257   6.871  15.895  0.00  0.00    +0.000 A 
BRANCH  20  23
ATOM     23  C   UNL     1      50.457   3.871  18.246  0.00  0.00    +0.000 C 
BRANCH  23  24
ATOM     24  C   UNL     1      51.711   3.089  17.785  0.00  0.00    +0.000 C 
ATOM     25  C   UNL     1      51.373   1.624  17.455  0.00  0.00    +0.000 C 
ATOM     26  C   UNL     1      52.581   0.702  17.454  0.00  0.00    +0.000 C 
ATOM     27  O   UNL     1      53.331   0.852  18.655  0.00  0.00    +0.000 OA
ATOM     28  C   UNL     1      53.896   2.155  18.743  0.00  0.00    +0.000 C 
ATOM     29  C   UNL     1      52.800   3.202  18.871  0.00  0.00    +0.000 C 
ENDBRANCH  23  24
ENDBRANCH  20  23
ENDBRANCH  16  17
ENDBRANCH   3  16
TORSDOF 5
ENDMDL
MODEL 5
REMARK VINA RESULT:    -7.518      1.252      1.996
REMARK INTER + INTRA:          -9.916
REMARK INTER:                  -9.505
REMARK INTRA:                  -0.411
REMARK UNBOUND:                -0.201
REMARK  Name = 
REMARK  5 active torsions:
REMARK  status: ('A' for Active; 'I' for Inactive)
REMARK    1  A    between atoms: C_2  and  C_18
REMARK    2  A    between atoms: N_3  and  C_4
REMARK    3  A    between atoms: C_4  and  C_5
REMARK    4  A    between atoms: C_8  and  C_9
REMARK    5  A    between atoms: C_9  and  C_10
REMARK                            x       y       z     vdW  Elec       q    Type
REMARK                         _______ _______ _______ _____ _____    ______ ____
ROOT
ATOM      1  O   UNL     1      47.627   3.999  14.123  0.00  0.00    +0.000 OA
ATOM      2  C   UNL     1      47.285   5.168  14.030  0.00  0.00    +0.000 C 
ATOM      3  N   UNL     1      45.992   5.540  13.757  0.00  0.00    +0.000 N 
ATOM      4  H   UNL     1      45.786   6.501  13.506  0.00  0.00    +0.000 HD
ENDROOT
BRANCH   2   5
ATOM      5  C   UNL     1      48.240   6.259  14.256  0.00  0.00    +0.000 A 
ATOM      6  C   UNL     1      48.684   7.031  13.188  0.00  0.00    +0.000 A 
ATOM      7  S   UNL     1      49.749   8.282  13.645  0.00  0.00    +0.000 S 
ATOM      8  C   UNL     1      49.624   7.861  15.286  0.00  0.00    +0.000 A 
ATOM      9  N   UNL     1      50.252   8.585  16.249  0.00  0.00    +0.000 NA
ATOM     10  C   UNL     1      50.043   8.180  17.454  0.00  0.00    +0.000 A 
ATOM     11  N   UNL     1      49.275   7.091  17.788  0.00  0.00    +0.000 N 
ATOM     12  C   UNL     1      48.670   6.292  16.847  0.00  0.00    +0.000 A 
ATOM     13  O   UNL     1      48.074   5.273  17.174  0.00  0.00    +0.000 OA
ATOM     14  C   UNL     1      48.831   6.749  15.480  0.00  0.00    +0.000 A 
ATOM     15  H   UNL     1      49.183   6.798  18.748  0.00  0.00    +0.000 HD
ENDBRANCH   2   5
BRANCH   3  16
ATOM     16  C   UNL     1      45.025   4.543  13.368  0.00  0.00    +0.000 C 
BRANCH  16  17
ATOM     17  C   UNL     1      44.939   4.386  11.871  0.00  0.00    +0.000 A 
ATOM     18  C   UNL     1      45.557   5.311  11.022  0.00  0.00    +0.000 A 
ATOM     19  C   UNL     1      45.517   5.143   9.633  0.00  0.00    +0.000 A 
ATOM     20  C   UNL     1      44.847   4.052   9.063  0.00  0.00    +0.000 A 
ATOM     21  C   UNL     1      44.204   3.144   9.912  0.00  0.00    +0.000 A 
ATOM     22  C   UNL     1      44.239   3.314  11.300  0.00  0.00    +0.000 A 
BRANCH  20  23
ATOM     23  C   UNL     1      44.794   3.871   7.565  0.00  0.00    +0.000 C 
BRANCH  23  24
ATOM     24  C   UNL     1      45.545   2.634   7.017  0.00  0.00    +0.000 C 
ATOM     25  C   UNL     1      46.145   1.787   8.154  0.00  0.00    +0.000 C 
ATOM     26  C   UNL     1      47.258   0.855   7.702  0.00  0.00    +0.000 C 
ATOM     27  O   UNL     1      48.235   1.565   6.948  0.00  0.00    +0.000 OA
ATOM     28  C   UNL     1      47.684   2.053   5.731  0.00  0.00    +0.000 C 
ATOM     29  C   UNL     1      46.618   3.101   6.013  0.00  0.00    +0.000 C 
ENDBRANCH  23  24
ENDBRANCH  20  23
ENDBRANCH  16  17
ENDBRANCH   3  16
TORSDOF 5
ENDMDL
MODEL 6
REMARK VINA RESULT:    -7.487      3.537      5.061
REMARK INTER + INTRA:          -9.877
REMARK INTER:                  -8.560
REMARK INTRA:                  -1.316
REMARK UNBOUND:                -0.201
REMARK  Name = 
REMARK  5 active torsions:
REMARK  status: ('A' for Active; 'I' for Inactive)
REMARK    1  A    between atoms: C_2  and  C_18
REMARK    2  A    between atoms: N_3  and  C_4
REMARK    3  A    between atoms: C_4  and  C_5
REMARK    4  A    between atoms: C_8  and  C_9
REMARK    5  A    between atoms: C_9  and  C_10
REMARK                            x       y       z     vdW  Elec       q    Type
REMARK                         _______ _______ _______ _____ _____    ______ ____
ROOT
ATOM      1  O   UNL     1      48.428   8.732  16.187  0.00  0.00    +0.000 OA
ATOM      2  C   UNL     1      48.901   7.640  15.907  0.00  0.00    +0.000 C 
ATOM      3  N   UNL     1      49.349   7.330  14.647  0.00  0.00    +0.000 N 
ATOM      4  H   UNL     1      49.559   6.367  14.409  0.00  0.00    +0.000 HD
ENDROOT
BRANCH   2   5
ATOM      5  C   UNL     1      49.065   6.599  16.929  0.00  0.00    +0.000 A 
ATOM      6  C   UNL     1      49.806   6.858  18.076  0.00  0.00    +0.000 A 
ATOM      7  S   UNL     1      49.845   5.553  19.173  0.00  0.00    +0.000 S 
ATOM      8  C   UNL     1      48.845   4.613  18.173  0.00  0.00    +0.000 A 
ATOM      9  N   UNL     1      48.429   3.377  18.554  0.00  0.00    +0.000 NA
ATOM     10  C   UNL     1      47.644   2.789  17.719  0.00  0.00    +0.000 A 
ATOM     11  N   UNL     1      47.252   3.317  16.513  0.00  0.00    +0.000 N 
ATOM     12  C   UNL     1      47.695   4.535  16.056  0.00  0.00    +0.000 A 
ATOM     13  O   UNL     1      47.404   4.933  14.935  0.00  0.00    +0.000 OA
ATOM     14  C   UNL     1      48.532   5.258  16.994  0.00  0.00    +0.000 A 
ATOM     15  H   UNL     1      46.670   2.789  15.882  0.00  0.00    +0.000 HD
ENDBRANCH   2   5
BRANCH   3  16
ATOM     16  C   UNL     1      49.085   8.229  13.550  0.00  0.00    +0.000 C 
BRANCH  16  17
ATOM     17  C   UNL     1      47.767   7.938  12.877  0.00  0.00    +0.000 A 
ATOM     18  C   UNL     1      47.642   6.855  11.999  0.00  0.00    +0.000 A 
ATOM     19  C   UNL     1      46.409   6.555  11.408  0.00  0.00    +0.000 A 
ATOM     20  C   UNL     1      45.279   7.341  11.672  0.00  0.00    +0.000 A 
ATOM     21  C   UNL     1      45.413   8.442  12.526  0.00  0.00    +0.000 A 
ATOM     22  C   UNL     1      46.646   8.744  13.114  0.00  0.00    +0.000 A 
BRANCH  20  23
ATOM     23  C   UNL     1      43.950   7.026  11.030  0.00  0.00    +0.000 C 
BRANCH  23  24
ATOM     24  C   UNL     1      43.300   5.690  11.464  0.00  0.00    +0.000 C 
ATOM     25  C   UNL     1      43.537   5.406  12.959  0.00  0.00    +0.000 C 
ATOM     26  C   UNL     1      43.351   3.947  13.342  0.00  0.00    +0.000 C 
ATOM     27  O   UNL     1      44.102   3.100  12.479  0.00  0.00    +0.000 OA
ATOM     28  C   UNL     1      43.612   3.167  11.145  0.00  0.00    +0.000 C 
ATOM     29  C   UNL     1      43.835   4.556  10.567  0.00  0.00    +0.000 C 
ENDBRANCH  23  24
ENDBRANCH  20  23
ENDBRANCH  16  17
ENDBRANCH   3  16
TORSDOF 5
ENDMDL
MODEL 7
REMARK VINA RESULT:    -7.468      2.399      3.499
REMARK INTER + INTRA:          -9.852
REMARK INTER:                  -9.332
REMARK INTRA:                  -0.520
REMARK UNBOUND:                -0.201
REMARK  Name = 
REMARK  5 active torsions:
REMARK  status: ('A' for Active; 'I' for Inactive)
REMARK    1  A    between atoms: C_2  and  C_18
REMARK    2  A    between atoms: N_3  and  C_4
REMARK    3  A    between atoms: C_4  and  C_5
REMARK    4  A    between atoms: C_8  and  C_9
REMARK    5  A    between atoms: C_9  and  C_10
REMARK                            x       y       z     vdW  Elec       q    Type
REMARK                         _______ _______ _______ _____ _____    ______ ____
ROOT
ATOM      1  O   UNL     1      48.343   4.839  16.207  0.00  0.00    +0.000 OA
ATOM      2  C   UNL     1      48.153   5.778  15.447  0.00  0.00    +0.000 C 
ATOM      3  N   UNL     1      47.145   5.782  14.516  0.00  0.00    +0.000 N 
ATOM      4  H   UNL     1      47.135   6.488  13.788  0.00  0.00    +0.000 HD
ENDROOT
BRANCH   2   5
ATOM      5  C   UNL     1      48.973   6.992  15.522  0.00  0.00    +0.000 A 
ATOM      6  C   UNL     1      49.119   7.663  16.732  0.00  0.00    +0.000 A 
ATOM      7  S   UNL     1      50.147   9.021  16.641  0.00  0.00    +0.000 S 
ATOM      8  C   UNL     1      50.463   8.738  14.996  0.00  0.00    +0.000 A 
ATOM      9  N   UNL     1      51.333   9.516  14.302  0.00  0.00    +0.000 NA
ATOM     10  C   UNL     1      51.509   9.169  13.073  0.00  0.00    +0.000 A 
ATOM     11  N   UNL     1      50.868   8.120  12.461  0.00  0.00    +0.000 N 
ATOM     12  C   UNL     1      49.934   7.343  13.103  0.00  0.00    +0.000 A 
ATOM     13  O   UNL     1      49.310   6.478  12.500  0.00  0.00    +0.000 OA
ATOM     14  C   UNL     1      49.752   7.662  14.506  0.00  0.00    +0.000 A 
ATOM     15  H   UNL     1      51.016   7.924  11.483  0.00  0.00    +0.000 HD
ENDBRANCH   2   5
BRANCH   3  16
ATOM     16  C   UNL     1      46.395   4.576  14.265  0.00  0.00    +0.000 C 
BRANCH  16  17
ATOM     17  C   UNL     1      45.899   4.497  12.843  0.00  0.00    +0.000 A 
ATOM     18  C   UNL     1      45.210   3.364  12.393  0.00  0.00    +0.000 A 
ATOM     19  C   UNL     1      44.709   3.307  11.088  0.00  0.00    +0.000 A 
ATOM     20  C   UNL     1      44.898   4.375  10.201  0.00  0.00    +0.000 A 
ATOM     21  C   UNL     1      45.613   5.494  10.643  0.00  0.00    +0.000 A 
ATOM     22  C   UNL     1      46.118   5.550  11.946  0.00  0.00    +0.000 A 
BRANCH  20  23
ATOM     23  C   UNL     1      44.366   4.313   8.789  0.00  0.00    +0.000 C 
BRANCH  23  24
ATOM     24  C   UNL     1      45.024   3.251   7.875  0.00  0.00    +0.000 C 
ATOM     25  C   UNL     1      45.357   1.965   8.653  0.00  0.00    +0.000 C 
ATOM     26  C   UNL     1      46.395   1.089   7.971  0.00  0.00    +0.000 C 
ATOM     27  O   UNL     1      47.545   1.851   7.619  0.00  0.00    +0.000 OA
ATOM     28  C   UNL     1      47.226   2.829   6.636  0.00  0.00    +0.000 C 
ATOM     29  C   UNL     1      46.271   3.865   7.209  0.00  0.00    +0.000 C 
ENDBRANCH  23  24
ENDBRANCH  20  23
ENDBRANCH  16  17
ENDBRANCH   3  16
TORSDOF 5
ENDMDL
MODEL 8
REMARK VINA RESULT:    -7.364      3.839     10.569
REMARK INTER + INTRA:          -9.718
REMARK INTER:                  -8.676
REMARK INTRA:                  -1.042
REMARK UNBOUND:                -0.201
REMARK  Name = 
REMARK  5 active torsions:
REMARK  status: ('A' for Active; 'I' for Inactive)
REMARK    1  A    between atoms: C_2  and  C_18
REMARK    2  A    between atoms: N_3  and  C_4
REMARK    3  A    between atoms: C_4  and  C_5
REMARK    4  A    between atoms: C_8  and  C_9
REMARK    5  A    between atoms: C_9  and  C_10
REMARK                            x       y       z     vdW  Elec       q    Type
REMARK                         _______ _______ _______ _____ _____    ______ ____
ROOT
ATOM      1  O   UNL     1      48.494   6.128  13.907  0.00  0.00    +0.000 OA
ATOM      2  C   UNL     1      47.369   5.683  14.077  0.00  0.00    +0.000 C 
ATOM      3  N   UNL     1      47.007   5.003  15.213  0.00  0.00    +0.000 N 
ATOM      4  H   UNL     1      46.131   4.493  15.238  0.00  0.00    +0.000 HD
ENDROOT
BRANCH   2   5
ATOM      5  C   UNL     1      46.310   5.895  13.082  0.00  0.00    +0.000 A 
ATOM      6  C   UNL     1      45.974   7.185  12.685  0.00  0.00    +0.000 A 
ATOM      7  S   UNL     1      44.762   7.236  11.487  0.00  0.00    +0.000 S 
ATOM      8  C   UNL     1      44.671   5.541  11.430  0.00  0.00    +0.000 A 
ATOM      9  N   UNL     1      43.852   4.908  10.550  0.00  0.00    +0.000 NA
ATOM     10  C   UNL     1      43.909   3.622  10.586  0.00  0.00    +0.000 A 
ATOM     11  N   UNL     1      44.698   2.901  11.449  0.00  0.00    +0.000 N 
ATOM     12  C   UNL     1      45.496   3.494  12.398  0.00  0.00    +0.000 A 
ATOM     13  O   UNL     1      46.111   2.820  13.216  0.00  0.00    +0.000 OA
ATOM     14  C   UNL     1      45.508   4.943  12.350  0.00  0.00    +0.000 A 
ATOM     15  H   UNL     1      44.667   1.893  11.459  0.00  0.00    +0.000 HD
ENDBRANCH   2   5
BRANCH   3  16
ATOM     16  C   UNL     1      48.016   4.612  16.167  0.00  0.00    +0.000 C 
BRANCH  16  17
ATOM     17  C   UNL     1      48.018   5.495  17.390  0.00  0.00    +0.000 A 
ATOM     18  C   UNL     1      48.891   6.586  17.477  0.00  0.00    +0.000 A 
ATOM     19  C   UNL     1      48.864   7.433  18.590  0.00  0.00    +0.000 A 
ATOM     20  C   UNL     1      47.972   7.200  19.646  0.00  0.00    +0.000 A 
ATOM     21  C   UNL     1      47.120   6.092  19.571  0.00  0.00    +0.000 A 
ATOM     22  C   UNL     1      47.150   5.242  18.460  0.00  0.00    +0.000 A 
BRANCH  20  23
ATOM     23  C   UNL     1      47.945   8.108  20.852  0.00  0.00    +0.000 C 
BRANCH  23  24
ATOM     24  C   UNL     1      47.012   9.337  20.741  0.00  0.00    +0.000 C 
ATOM     25  C   UNL     1      47.763  10.570  20.205  0.00  0.00    +0.000 C 
ATOM     26  C   UNL     1      47.068  11.889  20.505  0.00  0.00    +0.000 C 
ATOM     27  O   UNL     1      46.738  11.982  21.886  0.00  0.00    +0.000 OA
ATOM     28  C   UNL     1      45.776  10.999  22.249  0.00  0.00    +0.000 C 
ATOM     29  C   UNL     1      46.366   9.604  22.115  0.00  0.00    +0.000 C 
ENDBRANCH  23  24
ENDBRANCH  20  23
ENDBRANCH  16  17
ENDBRANCH   3  16
TORSDOF 5
ENDMDL
MODEL 9
REMARK VINA RESULT:    -7.357      2.435      3.892
REMARK INTER + INTRA:          -9.709
REMARK INTER:                  -8.883
REMARK INTRA:                  -0.826
REMARK UNBOUND:                -0.201
REMARK  Name = 
REMARK  5 active torsions:
REMARK  status: ('A' for Active; 'I' for Inactive)
REMARK    1  A    between atoms: C_2  and  C_18
REMARK    2  A    between atoms: N_3  and  C_4
REMARK    3  A    between atoms: C_4  and  C_5
REMARK    4  A    between atoms: C_8  and  C_9
REMARK    5  A    between atoms: C_9  and  C_10
REMARK                            x       y       z     vdW  Elec       q    Type
REMARK                         _______ _______ _______ _____ _____    ______ ____
ROOT
ATOM      1  O   UNL     1      49.872   8.355  15.565  0.00  0.00    +0.000 OA
ATOM      2  C   UNL     1      49.058   7.540  15.975  0.00  0.00    +0.000 C 
ATOM      3  N   UNL     1      48.409   6.662  15.144  0.00  0.00    +0.000 N 
ATOM      4  H   UNL     1      47.614   6.135  15.489  0.00  0.00    +0.000 HD
ENDROOT
BRANCH   2   5
ATOM      5  C   UNL     1      48.761   7.419  17.407  0.00  0.00    +0.000 A 
ATOM      6  C   UNL     1      48.219   8.496  18.101  0.00  0.00    +0.000 A 
ATOM      7  S   UNL     1      47.892   8.157  19.740  0.00  0.00    +0.000 S 
ATOM      8  C   UNL     1      48.426   6.554  19.570  0.00  0.00    +0.000 A 
ATOM      9  N   UNL     1      48.358   5.675  20.605  0.00  0.00    +0.000 NA
ATOM     10  C   UNL     1      48.760   4.482  20.329  0.00  0.00    +0.000 A 
ATOM     11  N   UNL     1      49.254   4.089  19.110  0.00  0.00    +0.000 N 
ATOM     12  C   UNL     1      49.400   4.955  18.052  0.00  0.00    +0.000 A 
ATOM     13  O   UNL     1      49.935   4.595  17.011  0.00  0.00    +0.000 OA
ATOM     14  C   UNL     1      48.901   6.294  18.302  0.00  0.00    +0.000 A 
ATOM     15  H   UNL     1      49.594   3.151  18.968  0.00  0.00    +0.000 HD
ENDBRANCH   2   5
BRANCH   3  16
ATOM     16  C   UNL     1      48.519   6.813  13.713  0.00  0.00    +0.000 C 
BRANCH  16  17
ATOM     17  C   UNL     1      47.285   6.335  12.991  0.00  0.00    +0.000 A 
ATOM     18  C   UNL     1      46.611   7.179  12.101  0.00  0.00    +0.000 A 
ATOM     19  C   UNL     1      45.491   6.724  11.396  0.00  0.00    +0.000 A 
ATOM     20  C   UNL     1      45.015   5.418  11.575  0.00  0.00    +0.000 A 
ATOM     21  C   UNL     1      45.672   4.585  12.488  0.00  0.00    +0.000 A 
ATOM     22  C   UNL     1      46.788   5.042  13.198  0.00  0.00    +0.000 A 
BRANCH  20  23
ATOM     23  C   UNL     1      43.802   4.926  10.822  0.00  0.00    +0.000 C 
BRANCH  23  24
ATOM     24  C   UNL     1      44.100   4.067   9.569  0.00  0.00    +0.000 C 
ATOM     25  C   UNL     1      44.233   2.575   9.925  0.00  0.00    +0.000 C 
ATOM     26  C   UNL     1      44.968   1.758   8.874  0.00  0.00    +0.000 C 
ATOM     27  O   UNL     1      46.206   2.372   8.533  0.00  0.00    +0.000 OA
ATOM     28  C   UNL     1      45.995   3.629   7.901  0.00  0.00    +0.000 C 
ATOM     29  C   UNL     1      45.363   4.613   8.874  0.00  0.00    +0.000 C 
ENDBRANCH  23  24
ENDBRANCH  20  23
ENDBRANCH  16  17
ENDBRANCH   3  16
TORSDOF 5
ENDMDL
