MODEL 1
REMARK VINA RESULT:    -8.252      0.000      0.000
REMARK INTER + INTRA:         -12.911
REMARK INTER:                 -11.629
REMARK INTRA:                  -1.283
REMARK UNBOUND:                -1.283
REMARK  Name = 
REMARK  8 active torsions:
REMARK  status: ('A' for Active; 'I' for Inactive)
REMARK    1  A    between atoms: C_1  and  C_2
REMARK    2  A    between atoms: C_2  and  N_3
REMARK    3  A    between atoms: C_2  and  C_11
REMARK    4  A    between atoms: N_3  and  C_4
REMARK    5  A    between atoms: C_4  and  C_5
REMARK    6  A    between atoms: C_14  and  C_15
REMARK    7  A    between atoms: C_15  and  N_16
REMARK    8  A    between atoms: C_17  and  C_19
REMARK                            x       y       z     vdW  Elec       q    Type
REMARK                         _______ _______ _______ _____ _____    ______ ____
ROOT
ATOM      1  C   UNL     1      44.801   4.840  12.092  0.00  0.00    +0.000 A 
ATOM      2  C   UNL     1      45.334   4.311  13.276  0.00  0.00    +0.000 A 
ATOM      3  C   UNL     1      46.493   4.835  13.855  0.00  0.00    +0.000 A 
ATOM      4  C   UNL     1      47.135   5.939  13.290  0.00  0.00    +0.000 A 
ATOM      5  C   UNL     1      46.664   6.434  12.075  0.00  0.00    +0.000 A 
ATOM      6  C   UNL     1      45.549   5.856  11.465  0.00  0.00    +0.000 A 
ENDROOT
BRANCH   1   8
ATOM      7  C   UNL     1      42.377   5.409  11.475  0.00  0.00    +0.000 C 
ATOM      8  C   UNL     1      43.487   4.337  11.478  0.00  0.00    +0.000 C 
BRANCH   8   9
ATOM      9  N   UNL     1      43.594   3.892  10.066  0.00  0.00    +0.000 NA
ATOM     10  H   UNL     1      44.076   4.615   9.535  0.00  0.00    +0.000 HD
BRANCH   9  11
ATOM     11  C   UNL     1      44.274   2.613   9.893  0.00  0.00    +0.000 C 
BRANCH  11  12
ATOM     12  C   UNL     1      45.582   2.650   9.091  0.00  0.00    +0.000 C 
ATOM     13  C   UNL     1      45.488   3.829   8.098  0.00  0.00    +0.000 C 
ATOM     14  C   UNL     1      46.705   3.909   7.187  0.00  0.00    +0.000 C 
ATOM     15  C   UNL     1      46.929   2.595   6.448  0.00  0.00    +0.000 C 
ATOM     16  C   UNL     1      47.032   1.422   7.416  0.00  0.00    +0.000 C 
ATOM     17  C   UNL     1      45.815   1.336   8.330  0.00  0.00    +0.000 C 
ENDBRANCH  11  12
ENDBRANCH   9  11
ENDBRANCH   8   9
ENDBRANCH   1   8
BRANCH   4  18
ATOM     18  C   UNL     1      48.351   6.538  13.932  0.00  0.00    +0.000 C 
BRANCH  18  19
ATOM     19  N   UNL     1      48.127   6.747  15.338  0.00  0.00    +0.000 N 
ATOM     20  C   UNL     1      49.117   6.508  16.253  0.00  0.00    +0.000 C 
ATOM     21  O   UNL     1      50.237   6.131  15.921  0.00  0.00    +0.000 OA
ATOM     22  H   UNL     1      47.163   6.819  15.647  0.00  0.00    +0.000 HD
BRANCH  20  23
ATOM     23  C   UNL     1      48.785   6.792  17.653  0.00  0.00    +0.000 A 
ATOM     24  C   UNL     1      48.527   8.100  18.041  0.00  0.00    +0.000 A 
ATOM     25  S   UNL     1      48.124   8.253  19.691  0.00  0.00    +0.000 S 
ATOM     26  C   UNL     1      48.314   6.584  19.951  0.00  0.00    +0.000 A 
ATOM     27  N   UNL     1      48.157   6.043  21.187  0.00  0.00    +0.000 NA
ATOM     28  C   UNL     1      48.360   4.770  21.250  0.00  0.00    +0.000 A 
ATOM     29  N   UNL     1      48.715   3.986  20.183  0.00  0.00    +0.000 N 
ATOM     30  C   UNL     1      48.878   4.485  18.909  0.00  0.00    +0.000 A 
ATOM     31  O   UNL     1      49.163   3.750  17.970  0.00  0.00    +0.000 OA
ATOM     32  C   UNL     1      48.671   5.915  18.792  0.00  0.00    +0.000 A 
ATOM     33  H   UNL     1      48.855   2.990  20.291  0.00  0.00    +0.000 HD
ENDBRANCH  20  23
ENDBRANCH  18  19
ENDBRANCH   4  18
TORSDOF 7
ENDMDL
MODEL 2
REMARK VINA RESULT:    -7.828      1.541      2.499
REMARK INTER + INTRA:         -12.314
REMARK INTER:                 -11.111
REMARK INTRA:                  -1.203
REMARK UNBOUND:                -1.283
REMARK  Name = 
REMARK  8 active torsions:
REMARK  status: ('A' for Active; 'I' for Inactive)
REMARK    1  A    between atoms: C_1  and  C_2
REMARK    2  A    between atoms: C_2  and  N_3
REMARK    3  A    between atoms: C_2  and  C_11
REMARK    4  A    between atoms: N_3  and  C_4
REMARK    5  A    between atoms: C_4  and  C_5
REMARK    6  A    between atoms: C_14  and  C_15
REMARK    7  A    between atoms: C_15  and  N_16
REMARK    8  A    between atoms: C_17  and  C_19
REMARK                            x       y       z     vdW  Elec       q    Type
REMARK                         _______ _______ _______ _____ _____    ______ ____
ROOT
ATOM      1  C   UNL     1      45.065   5.048  12.004  0.00  0.00    +0.000 A 
ATOM      2  C   UNL     1      45.490   4.508  13.227  0.00  0.00    +0.000 A 
ATOM      3  C   UNL     1      46.605   5.014  13.901  0.00  0.00    +0.000 A 
ATOM      4  C   UNL     1      47.306   6.110  13.396  0.00  0.00    +0.000 A 
ATOM      5  C   UNL     1      46.945   6.614  12.147  0.00  0.00    +0.000 A 
ATOM      6  C   UNL     1      45.876   6.054  11.445  0.00  0.00    +0.000 A 
ENDROOT
BRANCH   1   8
ATOM      7  C   UNL     1      42.642   5.584  11.354  0.00  0.00    +0.000 C 
ATOM      8  C   UNL     1      43.798   4.566  11.282  0.00  0.00    +0.000 C 
BRANCH   8   9
ATOM      9  N   UNL     1      43.979   4.290   9.835  0.00  0.00    +0.000 NA
ATOM     10  H   UNL     1      44.675   4.936   9.468  0.00  0.00    +0.000 HD
BRANCH   9  11
ATOM     11  C   UNL     1      44.367   2.917   9.533  0.00  0.00    +0.000 C 
BRANCH  11  12
ATOM     12  C   UNL     1      45.146   2.711   8.226  0.00  0.00    +0.000 C 
ATOM     13  C   UNL     1      46.063   1.483   8.416  0.00  0.00    +0.000 C 
ATOM     14  C   UNL     1      46.948   1.235   7.204  0.00  0.00    +0.000 C 
ATOM     15  C   UNL     1      47.766   2.473   6.854  0.00  0.00    +0.000 C 
ATOM     16  C   UNL     1      46.873   3.693   6.655  0.00  0.00    +0.000 C 
ATOM     17  C   UNL     1      45.986   3.947   7.867  0.00  0.00    +0.000 C 
ENDBRANCH  11  12
ENDBRANCH   9  11
ENDBRANCH   8   9
ENDBRANCH   1   8
BRANCH   4  18
ATOM     18  C   UNL     1      48.474   6.690  14.139  0.00  0.00    +0.000 C 
BRANCH  18  19
ATOM     19  N   UNL     1      48.140   6.891  15.523  0.00  0.00    +0.000 N 
ATOM     20  C   UNL     1      48.929   6.383  16.520  0.00  0.00    +0.000 C 
ATOM     21  O   UNL     1      49.959   5.758  16.284  0.00  0.00    +0.000 OA
ATOM     22  H   UNL     1      47.191   7.184  15.733  0.00  0.00    +0.000 HD
BRANCH  20  23
ATOM     23  C   UNL     1      48.510   6.685  17.892  0.00  0.00    +0.000 A 
ATOM     24  C   UNL     1      48.475   5.666  18.835  0.00  0.00    +0.000 A 
ATOM     25  S   UNL     1      48.001   6.190  20.387  0.00  0.00    +0.000 S 
ATOM     26  C   UNL     1      47.794   7.789  19.846  0.00  0.00    +0.000 A 
ATOM     27  N   UNL     1      47.347   8.761  20.683  0.00  0.00    +0.000 NA
ATOM     28  C   UNL     1      47.204   9.921  20.136  0.00  0.00    +0.000 A 
ATOM     29  N   UNL     1      47.464  10.196  18.819  0.00  0.00    +0.000 N 
ATOM     30  C   UNL     1      47.926   9.247  17.933  0.00  0.00    +0.000 A 
ATOM     31  O   UNL     1      48.181   9.536  16.768  0.00  0.00    +0.000 OA
ATOM     32  C   UNL     1      48.091   7.924  18.500  0.00  0.00    +0.000 A 
ATOM     33  H   UNL     1      47.339  11.128  18.446  0.00  0.00    +0.000 HD
ENDBRANCH  20  23
ENDBRANCH  18  19
ENDBRANCH   4  18
TORSDOF 7
ENDMDL
MODEL 3
REMARK VINA RESULT:    -7.703      2.235      2.890
REMARK INTER + INTRA:         -12.139
REMARK INTER:                 -10.814
REMARK INTRA:                  -1.325
REMARK UNBOUND:                -1.283
REMARK  Name = 
REMARK  8 active torsions:
REMARK  status: ('A' for Active; 'I' for Inactive)
REMARK    1  A    between atoms: C_1  and  C_2
REMARK    2  A    between atoms: C_2  and  N_3
REMARK    3  A    between atoms: C_2  and  C_11
REMARK    4  A    between atoms: N_3  and  C_4
REMARK    5  A    between atoms: C_4  and  C_5
REMARK    6  A    between atoms: C_14  and  C_15
REMARK    7  A    between atoms: C_15  and  N_16
REMARK    8  A    between atoms: C_17  and  C_19
REMARK                            x       y       z     vdW  Elec       q    Type
REMARK                         _______ _______ _______ _____ _____    ______ ____
ROOT
ATOM      1  C   UNL     1      45.528   4.643  12.245  0.00  0.00    +0.000 A 
ATOM      2  C   UNL     1      45.736   5.717  11.368  0.00  0.00    +0.000 A 
ATOM      3  C   UNL     1      46.677   6.714  11.643  0.00  0.00    +0.000 A 
ATOM      4  C   UNL     1      47.473   6.645  12.787  0.00  0.00    +0.000 A 
ATOM      5  C   UNL     1      47.231   5.627  13.708  0.00  0.00    +0.000 A 
ATOM      6  C   UNL     1      46.239   4.677  13.461  0.00  0.00    +0.000 A 
ENDROOT
BRANCH   1   8
ATOM      7  C   UNL     1      43.146   3.982  11.559  0.00  0.00    +0.000 C 
ATOM      8  C   UNL     1      44.561   3.492  11.931  0.00  0.00    +0.000 C 
BRANCH   8   9
ATOM      9  N   UNL     1      44.978   2.626  10.800  0.00  0.00    +0.000 NA
ATOM     10  H   UNL     1      44.864   1.653  11.080  0.00  0.00    +0.000 HD
BRANCH   9  11
ATOM     11  C   UNL     1      44.252   2.873   9.559  0.00  0.00    +0.000 C 
BRANCH  11  12
ATOM     12  C   UNL     1      45.047   2.670   8.263  0.00  0.00    +0.000 C 
ATOM     13  C   UNL     1      46.011   1.484   8.485  0.00  0.00    +0.000 C 
ATOM     14  C   UNL     1      46.914   1.245   7.284  0.00  0.00    +0.000 C 
ATOM     15  C   UNL     1      47.686   2.507   6.914  0.00  0.00    +0.000 C 
ATOM     16  C   UNL     1      46.747   3.686   6.683  0.00  0.00    +0.000 C 
ATOM     17  C   UNL     1      45.841   3.930   7.884  0.00  0.00    +0.000 C 
ENDBRANCH  11  12
ENDBRANCH   9  11
ENDBRANCH   8   9
ENDBRANCH   1   8
BRANCH   4  18
ATOM     18  C   UNL     1      48.519   7.686  13.065  0.00  0.00    +0.000 C 
BRANCH  18  19
ATOM     19  N   UNL     1      49.597   7.123  13.832  0.00  0.00    +0.000 N 
ATOM     20  C   UNL     1      49.957   7.657  15.040  0.00  0.00    +0.000 C 
ATOM     21  O   UNL     1      49.369   8.616  15.532  0.00  0.00    +0.000 OA
ATOM     22  H   UNL     1      50.237   6.503  13.347  0.00  0.00    +0.000 HD
BRANCH  20  23
ATOM     23  C   UNL     1      51.044   6.976  15.750  0.00  0.00    +0.000 A 
ATOM     24  C   UNL     1      52.359   7.350  15.505  0.00  0.00    +0.000 A 
ATOM     25  S   UNL     1      53.497   6.486  16.436  0.00  0.00    +0.000 S 
ATOM     26  C   UNL     1      52.277   5.559  17.173  0.00  0.00    +0.000 A 
ATOM     27  N   UNL     1      52.579   4.578  18.062  0.00  0.00    +0.000 NA
ATOM     28  C   UNL     1      51.562   3.931  18.520  0.00  0.00    +0.000 A 
ATOM     29  N   UNL     1      50.261   4.175  18.163  0.00  0.00    +0.000 N 
ATOM     30  C   UNL     1      49.902   5.164  17.273  0.00  0.00    +0.000 A 
ATOM     31  O   UNL     1      48.725   5.377  17.002  0.00  0.00    +0.000 OA
ATOM     32  C   UNL     1      51.015   5.910  16.722  0.00  0.00    +0.000 A 
ATOM     33  H   UNL     1      49.501   3.639  18.562  0.00  0.00    +0.000 HD
ENDBRANCH  20  23
ENDBRANCH  18  19
ENDBRANCH   4  18
TORSDOF 7
ENDMDL
MODEL 4
REMARK VINA RESULT:    -7.458      3.254      8.980
REMARK INTER + INTRA:         -11.793
REMARK INTER:                  -9.869
REMARK INTRA:                  -1.924
REMARK UNBOUND:                -1.283
REMARK  Name = 
REMARK  8 active torsions:
REMARK  status: ('A' for Active; 'I' for Inactive)
REMARK    1  A    between atoms: C_1  and  C_2
REMARK    2  A    between atoms: C_2  and  N_3
REMARK    3  A    between atoms: C_2  and  C_11
REMARK    4  A    between atoms: N_3  and  C_4
REMARK    5  A    between atoms: C_4  and  C_5
REMARK    6  A    between atoms: C_14  and  C_15
REMARK    7  A    between atoms: C_15  and  N_16
REMARK    8  A    between atoms: C_17  and  C_19
REMARK                            x       y       z     vdW  Elec       q    Type
REMARK                         _______ _______ _______ _____ _____    ______ ____
ROOT
ATOM      1  C   UNL     1      48.859   8.143  16.195  0.00  0.00    +0.000 A 
ATOM      2  C   UNL     1      48.142   9.143  15.521  0.00  0.00    +0.000 A 
ATOM      3  C   UNL     1      47.819   9.023  14.166  0.00  0.00    +0.000 A 
ATOM      4  C   UNL     1      48.164   7.876  13.450  0.00  0.00    +0.000 A 
ATOM      5  C   UNL     1      48.940   6.905  14.081  0.00  0.00    +0.000 A 
ATOM      6  C   UNL     1      49.323   7.067  15.414  0.00  0.00    +0.000 A 
ENDROOT
BRANCH   1   8
ATOM      7  C   UNL     1      47.894   8.445  18.552  0.00  0.00    +0.000 C 
ATOM      8  C   UNL     1      49.158   8.211  17.700  0.00  0.00    +0.000 C 
BRANCH   8   9
ATOM      9  N   UNL     1      49.780   6.986  18.262  0.00  0.00    +0.000 NA
ATOM     10  H   UNL     1      50.623   7.255  18.766  0.00  0.00    +0.000 HD
BRANCH   9  11
ATOM     11  C   UNL     1      48.902   6.219  19.139  0.00  0.00    +0.000 C 
BRANCH  11  12
ATOM     12  C   UNL     1      48.670   4.755  18.744  0.00  0.00    +0.000 C 
ATOM     13  C   UNL     1      49.910   4.280  17.956  0.00  0.00    +0.000 C 
ATOM     14  C   UNL     1      49.752   2.857  17.439  0.00  0.00    +0.000 C 
ATOM     15  C   UNL     1      48.488   2.713  16.599  0.00  0.00    +0.000 C 
ATOM     16  C   UNL     1      47.253   3.169  17.367  0.00  0.00    +0.000 C 
ATOM     17  C   UNL     1      47.406   4.594  17.885  0.00  0.00    +0.000 C 
ENDBRANCH  11  12
ENDBRANCH   9  11
ENDBRANCH   8   9
ENDBRANCH   1   8
BRANCH   4  18
ATOM     18  C   UNL     1      47.778   7.719  12.008  0.00  0.00    +0.000 C 
BRANCH  18  19
ATOM     19  N   UNL     1      47.042   6.499  11.815  0.00  0.00    +0.000 N 
ATOM     20  C   UNL     1      45.676   6.479  11.891  0.00  0.00    +0.000 C 
ATOM     21  O   UNL     1      45.019   7.494  12.104  0.00  0.00    +0.000 OA
ATOM     22  H   UNL     1      47.562   5.629  11.881  0.00  0.00    +0.000 HD
BRANCH  20  23
ATOM     23  C   UNL     1      45.033   5.186  11.639  0.00  0.00    +0.000 A 
ATOM     24  C   UNL     1      44.347   4.552  12.666  0.00  0.00    +0.000 A 
ATOM     25  S   UNL     1      43.629   3.078  12.197  0.00  0.00    +0.000 S 
ATOM     26  C   UNL     1      44.237   3.218  10.616  0.00  0.00    +0.000 A 
ATOM     27  N   UNL     1      44.023   2.247   9.691  0.00  0.00    +0.000 NA
ATOM     28  C   UNL     1      44.566   2.465   8.542  0.00  0.00    +0.000 A 
ATOM     29  N   UNL     1      45.314   3.571   8.233  0.00  0.00    +0.000 N 
ATOM     30  C   UNL     1      45.553   4.588   9.133  0.00  0.00    +0.000 A 
ATOM     31  O   UNL     1      46.199   5.580   8.813  0.00  0.00    +0.000 OA
ATOM     32  C   UNL     1      44.971   4.380  10.443  0.00  0.00    +0.000 A 
ATOM     33  H   UNL     1      45.711   3.692   7.311  0.00  0.00    +0.000 HD
ENDBRANCH  20  23
ENDBRANCH  18  19
ENDBRANCH   4  18
TORSDOF 7
ENDMDL
MODEL 5
REMARK VINA RESULT:    -7.447      1.846      2.640
REMARK INTER + INTRA:         -11.777
REMARK INTER:                 -10.771
REMARK INTRA:                  -1.006
REMARK UNBOUND:                -1.283
REMARK  Name = 
REMARK  8 active torsions:
REMARK  status: ('A' for Active; 'I' for Inactive)
REMARK    1  A    between atoms: C_1  and  C_2
REMARK    2  A    between atoms: C_2  and  N_3
REMARK    3  A    between atoms: C_2  and  C_11
REMARK    4  A    between atoms: N_3  and  C_4
REMARK    5  A    between atoms: C_4  and  C_5
REMARK    6  A    between atoms: C_14  and  C_15
REMARK    7  A    between atoms: C_15  and  N_16
REMARK    8  A    between atoms: C_17  and  C_19
REMARK                            x       y       z     vdW  Elec       q    Type
REMARK                         _______ _______ _______ _____ _____    ______ ____
ROOT
ATOM      1  C   UNL     1      44.890   4.974  11.429  0.00  0.00    +0.000 A 
ATOM      2  C   UNL     1      46.247   5.319  11.498  0.00  0.00    +0.000 A 
ATOM      3  C   UNL     1      46.658   6.591  11.908  0.00  0.00    +0.000 A 
ATOM      4  C   UNL     1      45.722   7.548  12.305  0.00  0.00    +0.000 A 
ATOM      5  C   UNL     1      44.367   7.250  12.173  0.00  0.00    +0.000 A 
ATOM      6  C   UNL     1      43.965   6.002  11.693  0.00  0.00    +0.000 A 
ENDROOT
BRANCH   1   8
ATOM      7  C   UNL     1      43.337   3.021  12.024  0.00  0.00    +0.000 C 
ATOM      8  C   UNL     1      44.413   3.561  11.060  0.00  0.00    +0.000 C 
BRANCH   8   9
ATOM      9  N   UNL     1      43.813   3.444   9.708  0.00  0.00    +0.000 NA
ATOM     10  H   UNL     1      42.905   3.905   9.717  0.00  0.00    +0.000 HD
BRANCH   9  11
ATOM     11  C   UNL     1      44.638   3.995   8.639  0.00  0.00    +0.000 C 
BRANCH  11  12
ATOM     12  C   UNL     1      45.295   2.973   7.701  0.00  0.00    +0.000 C 
ATOM     13  C   UNL     1      45.882   1.845   8.577  0.00  0.00    +0.000 C 
ATOM     14  C   UNL     1      46.636   0.811   7.753  0.00  0.00    +0.000 C 
ATOM     15  C   UNL     1      47.725   1.465   6.910  0.00  0.00    +0.000 C 
ATOM     16  C   UNL     1      47.159   2.576   6.032  0.00  0.00    +0.000 C 
ATOM     17  C   UNL     1      46.405   3.615   6.854  0.00  0.00    +0.000 C 
ENDBRANCH  11  12
ENDBRANCH   9  11
ENDBRANCH   8   9
ENDBRANCH   1   8
BRANCH   4  18
ATOM     18  C   UNL     1      46.157   8.899  12.792  0.00  0.00    +0.000 C 
BRANCH  18  19
ATOM     19  N   UNL     1      46.712   8.802  14.115  0.00  0.00    +0.000 N 
ATOM     20  C   UNL     1      48.053   8.971  14.332  0.00  0.00    +0.000 C 
ATOM     21  O   UNL     1      48.834   9.234  13.422  0.00  0.00    +0.000 OA
ATOM     22  H   UNL     1      46.141   8.355  14.826  0.00  0.00    +0.000 HD
BRANCH  20  23
ATOM     23  C   UNL     1      48.498   8.888  15.727  0.00  0.00    +0.000 A 
ATOM     24  C   UNL     1      48.609  10.050  16.479  0.00  0.00    +0.000 A 
ATOM     25  S   UNL     1      49.104   9.774  18.088  0.00  0.00    +0.000 S 
ATOM     26  C   UNL     1      49.220   8.098  17.826  0.00  0.00    +0.000 A 
ATOM     27  N   UNL     1      49.646   7.261  18.807  0.00  0.00    +0.000 NA
ATOM     28  C   UNL     1      49.718   6.020  18.465  0.00  0.00    +0.000 A 
ATOM     29  N   UNL     1      49.406   5.537  17.221  0.00  0.00    +0.000 N 
ATOM     30  C   UNL     1      48.962   6.343  16.195  0.00  0.00    +0.000 A 
ATOM     31  O   UNL     1      48.659   5.873  15.104  0.00  0.00    +0.000 OA
ATOM     32  C   UNL     1      48.877   7.751  16.530  0.00  0.00    +0.000 A 
ATOM     33  H   UNL     1      49.475   4.550  17.012  0.00  0.00    +0.000 HD
ENDBRANCH  20  23
ENDBRANCH  18  19
ENDBRANCH   4  18
TORSDOF 7
ENDMDL
MODEL 6
REMARK VINA RESULT:    -7.124      3.698      9.012
REMARK INTER + INTRA:         -11.322
REMARK INTER:                  -8.874
REMARK INTRA:                  -2.448
REMARK UNBOUND:                -1.283
REMARK  Name = 
REMARK  8 active torsions:
REMARK  status: ('A' for Active; 'I' for Inactive)
REMARK    1  A    between atoms: C_1  and  C_2
REMARK    2  A    between atoms: C_2  and  N_3
REMARK    3  A    between atoms: C_2  and  C_11
REMARK    4  A    between atoms: N_3  and  C_4
REMARK    5  A    between atoms: C_4  and  C_5
REMARK    6  A    between atoms: C_14  and  C_15
REMARK    7  A    between atoms: C_15  and  N_16
REMARK    8  A    between atoms: C_17  and  C_19
REMARK                            x       y       z     vdW  Elec       q    Type
REMARK                         _______ _______ _______ _____ _____    ______ ____
ROOT
ATOM      1  C   UNL     1      50.874   4.578  18.598  0.00  0.00    +0.000 A 
ATOM      2  C   UNL     1      50.751   3.481  17.733  0.00  0.00    +0.000 A 
ATOM      3  C   UNL     1      49.516   3.109  17.195  0.00  0.00    +0.000 A 
ATOM      4  C   UNL     1      48.367   3.853  17.470  0.00  0.00    +0.000 A 
ATOM      5  C   UNL     1      48.454   4.902  18.384  0.00  0.00    +0.000 A 
ATOM      6  C   UNL     1      49.679   5.220  18.974  0.00  0.00    +0.000 A 
ENDROOT
BRANCH   1   8
ATOM      7  C   UNL     1      53.421   4.574  18.286  0.00  0.00    +0.000 C 
ATOM      8  C   UNL     1      52.229   5.057  19.139  0.00  0.00    +0.000 C 
BRANCH   8   9
ATOM      9  N   UNL     1      52.380   6.532  19.210  0.00  0.00    +0.000 NA
ATOM     10  H   UNL     1      53.006   6.755  19.982  0.00  0.00    +0.000 HD
BRANCH   9  11
ATOM     11  C   UNL     1      52.873   7.142  17.981  0.00  0.00    +0.000 C 
BRANCH  11  12
ATOM     12  C   UNL     1      51.817   7.821  17.097  0.00  0.00    +0.000 C 
ATOM     13  C   UNL     1      50.677   8.306  18.019  0.00  0.00    +0.000 C 
ATOM     14  C   UNL     1      49.529   8.924  17.234  0.00  0.00    +0.000 C 
ATOM     15  C   UNL     1      48.999   7.960  16.179  0.00  0.00    +0.000 C 
ATOM     16  C   UNL     1      50.112   7.479  15.255  0.00  0.00    +0.000 C 
ATOM     17  C   UNL     1      51.264   6.857  16.036  0.00  0.00    +0.000 C 
ENDBRANCH  11  12
ENDBRANCH   9  11
ENDBRANCH   8   9
ENDBRANCH   1   8
BRANCH   4  18
ATOM     18  C   UNL     1      47.046   3.489  16.857  0.00  0.00    +0.000 C 
BRANCH  18  19
ATOM     19  N   UNL     1      46.676   4.450  15.853  0.00  0.00    +0.000 N 
ATOM     20  C   UNL     1      46.856   4.185  14.523  0.00  0.00    +0.000 C 
ATOM     21  O   UNL     1      47.317   3.119  14.125  0.00  0.00    +0.000 OA
ATOM     22  H   UNL     1      46.527   5.406  16.159  0.00  0.00    +0.000 HD
BRANCH  20  23
ATOM     23  C   UNL     1      46.406   5.223  13.590  0.00  0.00    +0.000 A 
ATOM     24  C   UNL     1      47.254   6.280  13.283  0.00  0.00    +0.000 A 
ATOM     25  S   UNL     1      46.593   7.378  12.158  0.00  0.00    +0.000 S 
ATOM     26  C   UNL     1      45.140   6.500  12.067  0.00  0.00    +0.000 A 
ATOM     27  N   UNL     1      44.106   6.930  11.300  0.00  0.00    +0.000 NA
ATOM     28  C   UNL     1      43.052   6.187  11.347  0.00  0.00    +0.000 A 
ATOM     29  N   UNL     1      42.937   5.049  12.102  0.00  0.00    +0.000 N 
ATOM     30  C   UNL     1      43.959   4.567  12.890  0.00  0.00    +0.000 A 
ATOM     31  O   UNL     1      43.834   3.527  13.527  0.00  0.00    +0.000 OA
ATOM     32  C   UNL     1      45.161   5.377  12.878  0.00  0.00    +0.000 A 
ATOM     33  H   UNL     1      42.086   4.502  12.095  0.00  0.00    +0.000 HD
ENDBRANCH  20  23
ENDBRANCH  18  19
ENDBRANCH   4  18
TORSDOF 7
ENDMDL
MODEL 7
REMARK VINA RESULT:    -7.117      3.370      5.258
REMARK INTER + INTRA:         -11.312
REMARK INTER:                  -9.836
REMARK INTRA:                  -1.476
REMARK UNBOUND:                -1.283
REMARK  Name = 
REMARK  8 active torsions:
REMARK  status: ('A' for Active; 'I' for Inactive)
REMARK    1  A    between atoms: C_1  and  C_2
REMARK    2  A    between atoms: C_2  and  N_3
REMARK    3  A    between atoms: C_2  and  C_11
REMARK    4  A    between atoms: N_3  and  C_4
REMARK    5  A    between atoms: C_4  and  C_5
REMARK    6  A    between atoms: C_14  and  C_15
REMARK    7  A    between atoms: C_15  and  N_16
REMARK    8  A    between atoms: C_17  and  C_19
REMARK                            x       y       z     vdW  Elec       q    Type
REMARK                         _______ _______ _______ _____ _____    ______ ____
ROOT
ATOM      1  C   UNL     1      47.666   6.192  13.896  0.00  0.00    +0.000 A 
ATOM      2  C   UNL     1      47.113   4.909  13.777  0.00  0.00    +0.000 A 
ATOM      3  C   UNL     1      47.167   3.989  14.829  0.00  0.00    +0.000 A 
ATOM      4  C   UNL     1      47.738   4.340  16.053  0.00  0.00    +0.000 A 
ATOM      5  C   UNL     1      48.357   5.584  16.168  0.00  0.00    +0.000 A 
ATOM      6  C   UNL     1      48.364   6.468  15.087  0.00  0.00    +0.000 A 
ENDROOT
BRANCH   1   8
ATOM      7  C   UNL     1      48.922   7.726  12.268  0.00  0.00    +0.000 C 
ATOM      8  C   UNL     1      47.550   7.249  12.788  0.00  0.00    +0.000 C 
BRANCH   8   9
ATOM      9  N   UNL     1      46.817   6.799  11.579  0.00  0.00    +0.000 NA
ATOM     10  H   UNL     1      46.882   5.784  11.520  0.00  0.00    +0.000 HD
BRANCH   9  11
ATOM     11  C   UNL     1      45.417   7.208  11.543  0.00  0.00    +0.000 C 
BRANCH  11  12
ATOM     12  C   UNL     1      44.386   6.074  11.470  0.00  0.00    +0.000 C 
ATOM     13  C   UNL     1      43.959   5.736  12.916  0.00  0.00    +0.000 C 
ATOM     14  C   UNL     1      42.995   4.560  12.969  0.00  0.00    +0.000 C 
ATOM     15  C   UNL     1      43.580   3.335  12.277  0.00  0.00    +0.000 C 
ATOM     16  C   UNL     1      43.998   3.650  10.845  0.00  0.00    +0.000 C 
ATOM     17  C   UNL     1      44.966   4.826  10.786  0.00  0.00    +0.000 C 
ENDBRANCH  11  12
ENDBRANCH   9  11
ENDBRANCH   8   9
ENDBRANCH   1   8
BRANCH   4  18
ATOM     18  C   UNL     1      47.756   3.376  17.203  0.00  0.00    +0.000 C 
BRANCH  18  19
ATOM     19  N   UNL     1      49.104   3.150  17.649  0.00  0.00    +0.000 N 
ATOM     20  C   UNL     1      49.932   2.287  16.984  0.00  0.00    +0.000 C 
ATOM     21  O   UNL     1      49.575   1.687  15.973  0.00  0.00    +0.000 OA
ATOM     22  H   UNL     1      49.334   3.438  18.595  0.00  0.00    +0.000 HD
BRANCH  20  23
ATOM     23  C   UNL     1      51.296   2.166  17.507  0.00  0.00    +0.000 A 
ATOM     24  C   UNL     1      51.902   0.918  17.552  0.00  0.00    +0.000 A 
ATOM     25  S   UNL     1      53.498   0.957  18.153  0.00  0.00    +0.000 S 
ATOM     26  C   UNL     1      53.423   2.637  18.406  0.00  0.00    +0.000 A 
ATOM     27  N   UNL     1      54.464   3.312  18.956  0.00  0.00    +0.000 NA
ATOM     28  C   UNL     1      54.263   4.576  19.122  0.00  0.00    +0.000 A 
ATOM     29  N   UNL     1      53.103   5.227  18.790  0.00  0.00    +0.000 N 
ATOM     30  C   UNL     1      52.022   4.589  18.222  0.00  0.00    +0.000 A 
ATOM     31  O   UNL     1      51.012   5.209  17.906  0.00  0.00    +0.000 OA
ATOM     32  C   UNL     1      52.199   3.164  18.028  0.00  0.00    +0.000 A 
ATOM     33  H   UNL     1      53.004   6.224  18.937  0.00  0.00    +0.000 HD
ENDBRANCH  20  23
ENDBRANCH  18  19
ENDBRANCH   4  18
TORSDOF 7
ENDMDL
MODEL 8
REMARK VINA RESULT:    -6.937      3.411      8.821
REMARK INTER + INTRA:         -11.059
REMARK INTER:                  -8.414
REMARK INTRA:                  -2.645
REMARK UNBOUND:                -1.283
REMARK  Name = 
REMARK  8 active torsions:
REMARK  status: ('A' for Active; 'I' for Inactive)
REMARK    1  A    between atoms: C_1  and  C_2
REMARK    2  A    between atoms: C_2  and  N_3
REMARK    3  A    between atoms: C_2  and  C_11
REMARK    4  A    between atoms: N_3  and  C_4
REMARK    5  A    between atoms: C_4  and  C_5
REMARK    6  A    between atoms: C_14  and  C_15
REMARK    7  A    between atoms: C_15  and  N_16
REMARK    8  A    between atoms: C_17  and  C_19
REMARK                            x       y       z     vdW  Elec       q    Type
REMARK                         _______ _______ _______ _____ _____    ______ ____
ROOT
ATOM      1  C   UNL     1      49.453   8.091  18.602  0.00  0.00    +0.000 A 
ATOM      2  C   UNL     1      48.391   8.920  18.216  0.00  0.00    +0.000 A 
ATOM      3  C   UNL     1      48.085   9.137  16.869  0.00  0.00    +0.000 A 
ATOM      4  C   UNL     1      48.806   8.493  15.862  0.00  0.00    +0.000 A 
ATOM      5  C   UNL     1      49.911   7.723  16.223  0.00  0.00    +0.000 A 
ATOM      6  C   UNL     1      50.255   7.572  17.567  0.00  0.00    +0.000 A 
ENDROOT
BRANCH   1   8
ATOM      7  C   UNL     1      48.593   8.114  21.019  0.00  0.00    +0.000 C 
ATOM      8  C   UNL     1      49.762   7.771  20.073  0.00  0.00    +0.000 C 
BRANCH   8   9
ATOM      9  N   UNL     1      50.071   6.346  20.344  0.00  0.00    +0.000 NA
ATOM     10  H   UNL     1      50.707   6.299  21.138  0.00  0.00    +0.000 HD
BRANCH   9  11
ATOM     11  C   UNL     1      48.898   5.518  20.600  0.00  0.00    +0.000 C 
BRANCH  11  12
ATOM     12  C   UNL     1      48.483   4.570  19.466  0.00  0.00    +0.000 C 
ATOM     13  C   UNL     1      49.753   4.221  18.660  0.00  0.00    +0.000 C 
ATOM     14  C   UNL     1      49.445   3.347  17.454  0.00  0.00    +0.000 C 
ATOM     15  C   UNL     1      48.395   3.993  16.557  0.00  0.00    +0.000 C 
ATOM     16  C   UNL     1      47.131   4.335  17.337  0.00  0.00    +0.000 C 
ATOM     17  C   UNL     1      47.434   5.213  18.546  0.00  0.00    +0.000 C 
ENDBRANCH  11  12
ENDBRANCH   9  11
ENDBRANCH   8   9
ENDBRANCH   1   8
BRANCH   4  18
ATOM     18  C   UNL     1      48.452   8.682  14.416  0.00  0.00    +0.000 C 
BRANCH  18  19
ATOM     19  N   UNL     1      47.441   7.740  14.019  0.00  0.00    +0.000 N 
ATOM     20  C   UNL     1      47.761   6.628  13.288  0.00  0.00    +0.000 C 
ATOM     21  O   UNL     1      48.916   6.371  12.960  0.00  0.00    +0.000 OA
ATOM     22  H   UNL     1      46.476   8.049  14.066  0.00  0.00    +0.000 HD
BRANCH  20  23
ATOM     23  C   UNL     1      46.653   5.720  12.974  0.00  0.00    +0.000 A 
ATOM     24  C   UNL     1      46.773   4.369  13.271  0.00  0.00    +0.000 A 
ATOM     25  S   UNL     1      45.385   3.460  12.875  0.00  0.00    +0.000 S 
ATOM     26  C   UNL     1      44.590   4.832  12.262  0.00  0.00    +0.000 A 
ATOM     27  N   UNL     1      43.352   4.740  11.712  0.00  0.00    +0.000 NA
ATOM     28  C   UNL     1      42.879   5.851  11.256  0.00  0.00    +0.000 A 
ATOM     29  N   UNL     1      43.539   7.051  11.297  0.00  0.00    +0.000 N 
ATOM     30  C   UNL     1      44.792   7.198  11.851  0.00  0.00    +0.000 A 
ATOM     31  O   UNL     1      45.340   8.294  11.901  0.00  0.00    +0.000 OA
ATOM     32  C   UNL     1      45.370   5.972  12.366  0.00  0.00    +0.000 A 
ATOM     33  H   UNL     1      43.115   7.892  10.929  0.00  0.00    +0.000 HD
ENDBRANCH  20  23
ENDBRANCH  18  19
ENDBRANCH   4  18
TORSDOF 7
ENDMDL
MODEL 9
REMARK VINA RESULT:    -6.873      3.594      9.547
REMARK INTER + INTRA:         -10.968
REMARK INTER:                  -9.411
REMARK INTRA:                  -1.557
REMARK UNBOUND:                -1.283
REMARK  Name = 
REMARK  8 active torsions:
REMARK  status: ('A' for Active; 'I' for Inactive)
REMARK    1  A    between atoms: C_1  and  C_2
REMARK    2  A    between atoms: C_2  and  N_3
REMARK    3  A    between atoms: C_2  and  C_11
REMARK    4  A    between atoms: N_3  and  C_4
REMARK    5  A    between atoms: C_4  and  C_5
REMARK    6  A    between atoms: C_14  and  C_15
REMARK    7  A    between atoms: C_15  and  N_16
REMARK    8  A    between atoms: C_17  and  C_19
REMARK                            x       y       z     vdW  Elec       q    Type
REMARK                         _______ _______ _______ _____ _____    ______ ____
ROOT
ATOM      1  C   UNL     1      50.102   5.625  19.325  0.00  0.00    +0.000 A 
ATOM      2  C   UNL     1      49.307   4.548  19.743  0.00  0.00    +0.000 A 
ATOM      3  C   UNL     1      48.432   3.902  18.865  0.00  0.00    +0.000 A 
ATOM      4  C   UNL     1      48.358   4.284  17.524  0.00  0.00    +0.000 A 
ATOM      5  C   UNL     1      49.085   5.398  17.107  0.00  0.00    +0.000 A 
ATOM      6  C   UNL     1      49.899   6.084  18.009  0.00  0.00    +0.000 A 
ENDROOT
BRANCH   1   8
ATOM      7  C   UNL     1      50.522   6.759  21.588  0.00  0.00    +0.000 C 
ATOM      8  C   UNL     1      51.129   6.302  20.245  0.00  0.00    +0.000 C 
BRANCH   8   9
ATOM      9  N   UNL     1      52.284   5.447  20.617  0.00  0.00    +0.000 NA
ATOM     10  H   UNL     1      51.941   4.662  21.167  0.00  0.00    +0.000 HD
BRANCH   9  11
ATOM     11  C   UNL     1      53.054   4.956  19.480  0.00  0.00    +0.000 C 
BRANCH  11  12
ATOM     12  C   UNL     1      53.008   3.440  19.241  0.00  0.00    +0.000 C 
ATOM     13  C   UNL     1      54.463   2.949  19.075  0.00  0.00    +0.000 C 
ATOM     14  C   UNL     1      54.532   1.464  18.748  0.00  0.00    +0.000 C 
ATOM     15  C   UNL     1      53.704   1.131  17.513  0.00  0.00    +0.000 C 
ATOM     16  C   UNL     1      52.262   1.603  17.665  0.00  0.00    +0.000 C 
ATOM     17  C   UNL     1      52.186   3.090  17.991  0.00  0.00    +0.000 C 
ENDBRANCH  11  12
ENDBRANCH   9  11
ENDBRANCH   8   9
ENDBRANCH   1   8
BRANCH   4  18
ATOM     18  C   UNL     1      47.457   3.563  16.564  0.00  0.00    +0.000 C 
BRANCH  18  19
ATOM     19  N   UNL     1      46.850   4.492  15.650  0.00  0.00    +0.000 N 
ATOM     20  C   UNL     1      46.826   4.245  14.304  0.00  0.00    +0.000 C 
ATOM     21  O   UNL     1      47.297   3.219  13.820  0.00  0.00    +0.000 OA
ATOM     22  H   UNL     1      46.679   5.432  15.991  0.00  0.00    +0.000 HD
BRANCH  20  23
ATOM     23  C   UNL     1      46.146   5.244  13.475  0.00  0.00    +0.000 A 
ATOM     24  C   UNL     1      46.699   6.511  13.340  0.00  0.00    +0.000 A 
ATOM     25  S   UNL     1      45.804   7.539  12.315  0.00  0.00    +0.000 S 
ATOM     26  C   UNL     1      44.629   6.340  12.043  0.00  0.00    +0.000 A 
ATOM     27  N   UNL     1      43.538   6.588  11.274  0.00  0.00    +0.000 NA
ATOM     28  C   UNL     1      42.711   5.602  11.176  0.00  0.00    +0.000 A 
ATOM     29  N   UNL     1      42.875   4.386  11.787  0.00  0.00    +0.000 N 
ATOM     30  C   UNL     1      43.969   4.083  12.569  0.00  0.00    +0.000 A 
ATOM     31  O   UNL     1      44.101   2.973  13.073  0.00  0.00    +0.000 OA
ATOM     32  C   UNL     1      44.920   5.166  12.718  0.00  0.00    +0.000 A 
ATOM     33  H   UNL     1      42.195   3.647  11.668  0.00  0.00    +0.000 HD
ENDBRANCH  20  23
ENDBRANCH  18  19
ENDBRANCH   4  18
TORSDOF 7
ENDMDL
