MODEL 1
REMARK VINA RESULT:    -8.245      0.000      0.000
REMARK INTER + INTRA:         -12.261
REMARK INTER:                 -11.137
REMARK INTRA:                  -1.124
REMARK UNBOUND:                -1.124
REMARK  Name = 
REMARK  6 active torsions:
REMARK  status: ('A' for Active; 'I' for Inactive)
REMARK    1  A    between atoms: C_2  and  C_4
REMARK    2  A    between atoms: C_7  and  N_8
REMARK    3  A    between atoms: N_8  and  C_9
REMARK    4  A    between atoms: C_9  and  C_10
REMARK    5  A    between atoms: C_10  and  C_11
REMARK    6  A    between atoms: C_13  and  C_14
REMARK                            x       y       z     vdW  Elec       q    Type
REMARK                         _______ _______ _______ _____ _____    ______ ____
ROOT
ATOM      1  C   UNL     1      43.818   3.564  11.527  0.00  0.00    +0.000 C 
ENDROOT
BRANCH   1   2
ATOM      2  N   UNL     1      43.720   3.877  10.103  0.00  0.00    +0.000 N 
ATOM      3  H   UNL     1      42.774   3.864   9.730  0.00  0.00    +0.000 HD
BRANCH   2   7
ATOM      4  C   UNL     1      46.646   2.394   7.447  0.00  0.00    +0.000 A 
ATOM      5  C   UNL     1      45.970   1.510   8.286  0.00  0.00    +0.000 A 
ATOM      6  C   UNL     1      44.989   1.986   9.163  0.00  0.00    +0.000 A 
ATOM      7  C   UNL     1      44.639   3.340   9.200  0.00  0.00    +0.000 A 
ATOM      8  C   UNL     1      45.344   4.219   8.363  0.00  0.00    +0.000 A 
ATOM      9  C   UNL     1      46.342   3.757   7.497  0.00  0.00    +0.000 A 
BRANCH   4  11
ATOM     10  N   UNL     1      48.791   2.760   6.359  0.00  0.00    +0.000 N 
ATOM     11  C   UNL     1      47.718   1.930   6.530  0.00  0.00    +0.000 C 
ATOM     12  O   UNL     1      47.665   0.843   5.971  0.00  0.00    +0.000 OA
ATOM     13  H   UNL     1      49.558   2.394   5.810  0.00  0.00    +0.000 HD
ATOM     14  H   UNL     1      48.984   3.531   6.983  0.00  0.00    +0.000 HD
ENDBRANCH   4  11
ENDBRANCH   2   7
ENDBRANCH   1   2
BRANCH   1  15
ATOM     15  C   UNL     1      43.804   4.850  12.351  0.00  0.00    +0.000 C 
BRANCH  15  16
ATOM     16  C   UNL     1      45.189   5.313  12.722  0.00  0.00    +0.000 A 
ATOM     17  C   UNL     1      45.776   4.905  13.932  0.00  0.00    +0.000 A 
ATOM     18  C   UNL     1      47.098   5.254  14.278  0.00  0.00    +0.000 A 
ATOM     19  C   UNL     1      47.802   6.074  13.375  0.00  0.00    +0.000 A 
ATOM     20  C   UNL     1      47.213   6.530  12.193  0.00  0.00    +0.000 A 
ATOM     21  C   UNL     1      45.917   6.147  11.877  0.00  0.00    +0.000 A 
ATOM     22  F   UNL     1      45.368   6.585  10.734  0.00  0.00    +0.000 F 
BRANCH  18  23
ATOM     23  C   UNL     1      47.728   4.745  15.521  0.00  0.00    +0.000 A 
ATOM     24  C   UNL     1      48.587   5.557  16.288  0.00  0.00    +0.000 A 
ATOM     25  C   UNL     1      49.168   5.098  17.473  0.00  0.00    +0.000 A 
ATOM     26  C   UNL     1      48.893   3.815  17.930  0.00  0.00    +0.000 A 
ATOM     27  C   UNL     1      48.050   2.988  17.196  0.00  0.00    +0.000 A 
ATOM     28  C   UNL     1      47.481   3.446  16.002  0.00  0.00    +0.000 A 
ENDBRANCH  18  23
ENDBRANCH  15  16
ENDBRANCH   1  15
TORSDOF 6
ENDMDL
MODEL 2
REMARK VINA RESULT:    -8.172      2.417      4.670
REMARK INTER + INTRA:         -12.163
REMARK INTER:                 -11.084
REMARK INTRA:                  -1.079
REMARK UNBOUND:                -1.124
REMARK  Name = 
REMARK  6 active torsions:
REMARK  status: ('A' for Active; 'I' for Inactive)
REMARK    1  A    between atoms: C_2  and  C_4
REMARK    2  A    between atoms: C_7  and  N_8
REMARK    3  A    between atoms: N_8  and  C_9
REMARK    4  A    between atoms: C_9  and  C_10
REMARK    5  A    between atoms: C_10  and  C_11
REMARK    6  A    between atoms: C_13  and  C_14
REMARK                            x       y       z     vdW  Elec       q    Type
REMARK                         _______ _______ _______ _____ _____    ______ ____
ROOT
ATOM      1  C   UNL     1      43.568   3.129  11.722  0.00  0.00    +0.000 C 
ENDROOT
BRANCH   1   2
ATOM      2  N   UNL     1      43.629   3.729  10.391  0.00  0.00    +0.000 N 
ATOM      3  H   UNL     1      42.728   3.833   9.930  0.00  0.00    +0.000 HD
BRANCH   2   7
ATOM      4  C   UNL     1      46.503   2.433   7.584  0.00  0.00    +0.000 A 
ATOM      5  C   UNL     1      46.218   3.792   7.696  0.00  0.00    +0.000 A 
ATOM      6  C   UNL     1      45.277   4.237   8.630  0.00  0.00    +0.000 A 
ATOM      7  C   UNL     1      44.626   3.346   9.491  0.00  0.00    +0.000 A 
ATOM      8  C   UNL     1      44.911   1.979   9.351  0.00  0.00    +0.000 A 
ATOM      9  C   UNL     1      45.835   1.521   8.405  0.00  0.00    +0.000 A 
BRANCH   4  11
ATOM     10  N   UNL     1      48.603   2.660   6.375  0.00  0.00    +0.000 N 
ATOM     11  C   UNL     1      47.470   1.921   6.580  0.00  0.00    +0.000 C 
ATOM     12  O   UNL     1      47.284   0.871   5.980  0.00  0.00    +0.000 OA
ATOM     13  H   UNL     1      49.298   2.255   5.761  0.00  0.00    +0.000 HD
ATOM     14  H   UNL     1      48.903   3.379   7.017  0.00  0.00    +0.000 HD
ENDBRANCH   4  11
ENDBRANCH   2   7
ENDBRANCH   1   2
BRANCH   1  15
ATOM     15  C   UNL     1      43.547   4.221  12.790  0.00  0.00    +0.000 C 
BRANCH  15  16
ATOM     16  C   UNL     1      44.688   5.194  12.644  0.00  0.00    +0.000 A 
ATOM     17  C   UNL     1      44.451   6.509  12.207  0.00  0.00    +0.000 A 
ATOM     18  C   UNL     1      45.480   7.469  12.131  0.00  0.00    +0.000 A 
ATOM     19  C   UNL     1      46.780   7.046  12.473  0.00  0.00    +0.000 A 
ATOM     20  C   UNL     1      47.039   5.729  12.860  0.00  0.00    +0.000 A 
ATOM     21  C   UNL     1      45.995   4.817  12.943  0.00  0.00    +0.000 A 
ATOM     22  F   UNL     1      46.257   3.559  13.326  0.00  0.00    +0.000 F 
BRANCH  18  23
ATOM     23  C   UNL     1      45.196   8.873  11.745  0.00  0.00    +0.000 A 
ATOM     24  C   UNL     1      46.097   9.912  12.054  0.00  0.00    +0.000 A 
ATOM     25  C   UNL     1      45.852  11.234  11.676  0.00  0.00    +0.000 A 
ATOM     26  C   UNL     1      44.702  11.552  10.964  0.00  0.00    +0.000 A 
ATOM     27  C   UNL     1      43.792  10.551  10.643  0.00  0.00    +0.000 A 
ATOM     28  C   UNL     1      44.033   9.229  11.037  0.00  0.00    +0.000 A 
ENDBRANCH  18  23
ENDBRANCH  15  16
ENDBRANCH   1  15
TORSDOF 6
ENDMDL
MODEL 3
REMARK VINA RESULT:    -7.927      2.162      4.110
REMARK INTER + INTRA:         -11.832
REMARK INTER:                 -10.608
REMARK INTRA:                  -1.224
REMARK UNBOUND:                -1.124
REMARK  Name = 
REMARK  6 active torsions:
REMARK  status: ('A' for Active; 'I' for Inactive)
REMARK    1  A    between atoms: C_2  and  C_4
REMARK    2  A    between atoms: C_7  and  N_8
REMARK    3  A    between atoms: N_8  and  C_9
REMARK    4  A    between atoms: C_9  and  C_10
REMARK    5  A    between atoms: C_10  and  C_11
REMARK    6  A    between atoms: C_13  and  C_14
REMARK                            x       y       z     vdW  Elec       q    Type
REMARK                         _______ _______ _______ _____ _____    ______ ____
ROOT
ATOM      1  C   UNL     1      43.338   5.174  10.953  0.00  0.00    +0.000 C 
ENDROOT
BRANCH   1   2
ATOM      2  N   UNL     1      43.588   3.763  10.671  0.00  0.00    +0.000 N 
ATOM      3  H   UNL     1      43.697   3.177  11.496  0.00  0.00    +0.000 HD
BRANCH   2   7
ATOM      4  C   UNL     1      46.408   2.784   7.687  0.00  0.00    +0.000 A 
ATOM      5  C   UNL     1      45.827   1.767   8.441  0.00  0.00    +0.000 A 
ATOM      6  C   UNL     1      44.881   2.076   9.425  0.00  0.00    +0.000 A 
ATOM      7  C   UNL     1      44.473   3.394   9.656  0.00  0.00    +0.000 A 
ATOM      8  C   UNL     1      45.084   4.407   8.902  0.00  0.00    +0.000 A 
ATOM      9  C   UNL     1      46.047   4.112   7.930  0.00  0.00    +0.000 A 
BRANCH   4  11
ATOM     10  N   UNL     1      47.324   3.149   5.462  0.00  0.00    +0.000 N 
ATOM     11  C   UNL     1      47.442   2.498   6.660  0.00  0.00    +0.000 C 
ATOM     12  O   UNL     1      48.376   1.738   6.876  0.00  0.00    +0.000 OA
ATOM     13  H   UNL     1      48.083   3.021   4.806  0.00  0.00    +0.000 HD
ATOM     14  H   UNL     1      46.726   3.954   5.340  0.00  0.00    +0.000 HD
ENDBRANCH   4  11
ENDBRANCH   2   7
ENDBRANCH   1   2
BRANCH   1  15
ATOM     15  C   UNL     1      43.678   5.487  12.410  0.00  0.00    +0.000 C 
BRANCH  15  16
ATOM     16  C   UNL     1      45.146   5.758  12.615  0.00  0.00    +0.000 A 
ATOM     17  C   UNL     1      45.714   6.969  12.186  0.00  0.00    +0.000 A 
ATOM     18  C   UNL     1      47.065   7.290  12.428  0.00  0.00    +0.000 A 
ATOM     19  C   UNL     1      47.847   6.321  13.087  0.00  0.00    +0.000 A 
ATOM     20  C   UNL     1      47.309   5.090  13.474  0.00  0.00    +0.000 A 
ATOM     21  C   UNL     1      45.968   4.820  13.236  0.00  0.00    +0.000 A 
ATOM     22  F   UNL     1      45.463   3.640  13.622  0.00  0.00    +0.000 F 
BRANCH  18  23
ATOM     23  C   UNL     1      47.625   8.607  12.039  0.00  0.00    +0.000 A 
ATOM     24  C   UNL     1      48.968   8.738  11.632  0.00  0.00    +0.000 A 
ATOM     25  C   UNL     1      49.501   9.969  11.241  0.00  0.00    +0.000 A 
ATOM     26  C   UNL     1      48.699  11.103  11.235  0.00  0.00    +0.000 A 
ATOM     27  C   UNL     1      47.370  11.009  11.633  0.00  0.00    +0.000 A 
ATOM     28  C   UNL     1      46.843   9.777  12.038  0.00  0.00    +0.000 A 
ENDBRANCH  18  23
ENDBRANCH  15  16
ENDBRANCH   1  15
TORSDOF 6
ENDMDL
MODEL 4
REMARK VINA RESULT:    -7.827      3.212      7.803
REMARK INTER + INTRA:         -11.696
REMARK INTER:                 -10.597
REMARK INTRA:                  -1.099
REMARK UNBOUND:                -1.124
REMARK  Name = 
REMARK  6 active torsions:
REMARK  status: ('A' for Active; 'I' for Inactive)
REMARK    1  A    between atoms: C_2  and  C_4
REMARK    2  A    between atoms: C_7  and  N_8
REMARK    3  A    between atoms: N_8  and  C_9
REMARK    4  A    between atoms: C_9  and  C_10
REMARK    5  A    between atoms: C_10  and  C_11
REMARK    6  A    between atoms: C_13  and  C_14
REMARK                            x       y       z     vdW  Elec       q    Type
REMARK                         _______ _______ _______ _____ _____    ______ ____
ROOT
ATOM      1  C   UNL     1      46.779   6.793  11.534  0.00  0.00    +0.000 C 
ENDROOT
BRANCH   1   2
ATOM      2  N   UNL     1      46.841   7.069  12.967  0.00  0.00    +0.000 N 
ATOM      3  H   UNL     1      47.311   7.938  13.212  0.00  0.00    +0.000 HD
BRANCH   2   7
ATOM      4  C   UNL     1      47.700   4.111  15.853  0.00  0.00    +0.000 A 
ATOM      5  C   UNL     1      46.827   3.817  14.807  0.00  0.00    +0.000 A 
ATOM      6  C   UNL     1      46.543   4.783  13.837  0.00  0.00    +0.000 A 
ATOM      7  C   UNL     1      47.144   6.047  13.868  0.00  0.00    +0.000 A 
ATOM      8  C   UNL     1      48.004   6.333  14.939  0.00  0.00    +0.000 A 
ATOM      9  C   UNL     1      48.278   5.381  15.928  0.00  0.00    +0.000 A 
BRANCH   4  11
ATOM     10  N   UNL     1      46.955   2.741  17.721  0.00  0.00    +0.000 N 
ATOM     11  C   UNL     1      47.997   3.122  16.920  0.00  0.00    +0.000 C 
ATOM     12  O   UNL     1      49.113   2.643  17.066  0.00  0.00    +0.000 OA
ATOM     13  H   UNL     1      47.145   1.998  18.381  0.00  0.00    +0.000 HD
ATOM     14  H   UNL     1      45.992   2.918  17.476  0.00  0.00    +0.000 HD
ENDBRANCH   4  11
ENDBRANCH   2   7
ENDBRANCH   1   2
BRANCH   1  15
ATOM     15  C   UNL     1      45.324   6.709  11.077  0.00  0.00    +0.000 C 
BRANCH  15  16
ATOM     16  C   UNL     1      44.931   5.317  10.654  0.00  0.00    +0.000 A 
ATOM     17  C   UNL     1      45.529   4.718   9.533  0.00  0.00    +0.000 A 
ATOM     18  C   UNL     1      45.245   3.390   9.152  0.00  0.00    +0.000 A 
ATOM     19  C   UNL     1      44.294   2.691   9.922  0.00  0.00    +0.000 A 
ATOM     20  C   UNL     1      43.654   3.292  11.009  0.00  0.00    +0.000 A 
ATOM     21  C   UNL     1      43.976   4.594  11.366  0.00  0.00    +0.000 A 
ATOM     22  F   UNL     1      43.361   5.153  12.417  0.00  0.00    +0.000 F 
BRANCH  18  23
ATOM     23  C   UNL     1      45.946   2.749   8.014  0.00  0.00    +0.000 A 
ATOM     24  C   UNL     1      46.226   3.464   6.832  0.00  0.00    +0.000 A 
ATOM     25  C   UNL     1      46.907   2.878   5.762  0.00  0.00    +0.000 A 
ATOM     26  C   UNL     1      47.339   1.561   5.851  0.00  0.00    +0.000 A 
ATOM     27  C   UNL     1      47.079   0.826   7.002  0.00  0.00    +0.000 A 
ATOM     28  C   UNL     1      46.383   1.412   8.067  0.00  0.00    +0.000 A 
ENDBRANCH  18  23
ENDBRANCH  15  16
ENDBRANCH   1  15
TORSDOF 6
ENDMDL
MODEL 5
REMARK VINA RESULT:    -7.521      3.926      7.421
REMARK INTER + INTRA:         -11.284
REMARK INTER:                 -10.472
REMARK INTRA:                  -0.812
REMARK UNBOUND:                -1.124
REMARK  Name = 
REMARK  6 active torsions:
REMARK  status: ('A' for Active; 'I' for Inactive)
REMARK    1  A    between atoms: C_2  and  C_4
REMARK    2  A    between atoms: C_7  and  N_8
REMARK    3  A    between atoms: N_8  and  C_9
REMARK    4  A    between atoms: C_9  and  C_10
REMARK    5  A    between atoms: C_10  and  C_11
REMARK    6  A    between atoms: C_13  and  C_14
REMARK                            x       y       z     vdW  Elec       q    Type
REMARK                         _______ _______ _______ _____ _____    ______ ____
ROOT
ATOM      1  C   UNL     1      45.102   6.668  12.895  0.00  0.00    +0.000 C 
ENDROOT
BRANCH   1   2
ATOM      2  N   UNL     1      45.792   7.934  13.129  0.00  0.00    +0.000 N 
ATOM      3  H   UNL     1      45.225   8.763  12.967  0.00  0.00    +0.000 HD
BRANCH   2   7
ATOM      4  C   UNL     1      49.733   8.303  11.664  0.00  0.00    +0.000 A 
ATOM      5  C   UNL     1      48.880   9.403  11.620  0.00  0.00    +0.000 A 
ATOM      6  C   UNL     1      47.575   9.299  12.114  0.00  0.00    +0.000 A 
ATOM      7  C   UNL     1      47.105   8.113  12.688  0.00  0.00    +0.000 A 
ATOM      8  C   UNL     1      47.971   7.009  12.705  0.00  0.00    +0.000 A 
ATOM      9  C   UNL     1      49.271   7.096  12.195  0.00  0.00    +0.000 A 
BRANCH   4  11
ATOM     10  N   UNL     1      51.814   7.193  11.065  0.00  0.00    +0.000 N 
ATOM     11  C   UNL     1      51.113   8.366  11.118  0.00  0.00    +0.000 C 
ATOM     12  O   UNL     1      51.597   9.410  10.703  0.00  0.00    +0.000 OA
ATOM     13  H   UNL     1      52.714   7.229  10.604  0.00  0.00    +0.000 HD
ATOM     14  H   UNL     1      51.369   6.292  11.160  0.00  0.00    +0.000 HD
ENDBRANCH   4  11
ENDBRANCH   2   7
ENDBRANCH   1   2
BRANCH   1  15
ATOM     15  C   UNL     1      44.615   6.594  11.448  0.00  0.00    +0.000 C 
BRANCH  15  16
ATOM     16  C   UNL     1      44.412   5.177  10.979  0.00  0.00    +0.000 A 
ATOM     17  C   UNL     1      45.102   4.693   9.855  0.00  0.00    +0.000 A 
ATOM     18  C   UNL     1      44.998   3.352   9.432  0.00  0.00    +0.000 A 
ATOM     19  C   UNL     1      44.131   2.514  10.161  0.00  0.00    +0.000 A 
ATOM     20  C   UNL     1      43.399   2.995  11.250  0.00  0.00    +0.000 A 
ATOM     21  C   UNL     1      43.545   4.317  11.649  0.00  0.00    +0.000 A 
ATOM     22  F   UNL     1      42.844   4.761  12.702  0.00  0.00    +0.000 F 
BRANCH  18  23
ATOM     23  C   UNL     1      45.797   2.840   8.292  0.00  0.00    +0.000 A 
ATOM     24  C   UNL     1      46.243   1.504   8.255  0.00  0.00    +0.000 A 
ATOM     25  C   UNL     1      46.977   1.003   7.177  0.00  0.00    +0.000 A 
ATOM     26  C   UNL     1      47.272   1.825   6.096  0.00  0.00    +0.000 A 
ATOM     27  C   UNL     1      46.847   3.149   6.101  0.00  0.00    +0.000 A 
ATOM     28  C   UNL     1      46.125   3.651   7.190  0.00  0.00    +0.000 A 
ENDBRANCH  18  23
ENDBRANCH  15  16
ENDBRANCH   1  15
TORSDOF 6
ENDMDL
MODEL 6
REMARK VINA RESULT:    -6.904      3.667      7.739
REMARK INTER + INTRA:         -10.450
REMARK INTER:                  -9.128
REMARK INTRA:                  -1.321
REMARK UNBOUND:                -1.124
REMARK  Name = 
REMARK  6 active torsions:
REMARK  status: ('A' for Active; 'I' for Inactive)
REMARK    1  A    between atoms: C_2  and  C_4
REMARK    2  A    between atoms: C_7  and  N_8
REMARK    3  A    between atoms: N_8  and  C_9
REMARK    4  A    between atoms: C_9  and  C_10
REMARK    5  A    between atoms: C_10  and  C_11
REMARK    6  A    between atoms: C_13  and  C_14
REMARK                            x       y       z     vdW  Elec       q    Type
REMARK                         _______ _______ _______ _____ _____    ______ ____
ROOT
ATOM      1  C   UNL     1      48.957   7.550  12.727  0.00  0.00    +0.000 C 
ENDROOT
BRANCH   1   2
ATOM      2  N   UNL     1      48.699   7.682  14.159  0.00  0.00    +0.000 N 
ATOM      3  H   UNL     1      49.299   8.349  14.639  0.00  0.00    +0.000 HD
BRANCH   2   7
ATOM      4  C   UNL     1      47.909   4.386  16.674  0.00  0.00    +0.000 A 
ATOM      5  C   UNL     1      47.352   4.424  15.398  0.00  0.00    +0.000 A 
ATOM      6  C   UNL     1      47.615   5.504  14.549  0.00  0.00    +0.000 A 
ATOM      7  C   UNL     1      48.460   6.549  14.938  0.00  0.00    +0.000 A 
ATOM      8  C   UNL     1      48.996   6.505  16.235  0.00  0.00    +0.000 A 
ATOM      9  C   UNL     1      48.721   5.440  17.100  0.00  0.00    +0.000 A 
BRANCH   4  11
ATOM     10  N   UNL     1      48.598   2.961  18.522  0.00  0.00    +0.000 N 
ATOM     11  C   UNL     1      47.623   3.274  17.616  0.00  0.00    +0.000 C 
ATOM     12  O   UNL     1      46.554   2.678  17.608  0.00  0.00    +0.000 OA
ATOM     13  H   UNL     1      48.357   2.269  19.219  0.00  0.00    +0.000 HD
ATOM     14  H   UNL     1      49.371   3.580  18.720  0.00  0.00    +0.000 HD
ENDBRANCH   4  11
ENDBRANCH   2   7
ENDBRANCH   1   2
BRANCH   1  15
ATOM     15  C   UNL     1      47.872   8.270  11.927  0.00  0.00    +0.000 C 
BRANCH  15  16
ATOM     16  C   UNL     1      46.604   7.463  11.819  0.00  0.00    +0.000 A 
ATOM     17  C   UNL     1      46.500   6.422  10.881  0.00  0.00    +0.000 A 
ATOM     18  C   UNL     1      45.360   5.596  10.803  0.00  0.00    +0.000 A 
ATOM     19  C   UNL     1      44.297   5.883  11.682  0.00  0.00    +0.000 A 
ATOM     20  C   UNL     1      44.366   6.947  12.585  0.00  0.00    +0.000 A 
ATOM     21  C   UNL     1      45.514   7.725  12.647  0.00  0.00    +0.000 A 
ATOM     22  F   UNL     1      45.570   8.736  13.525  0.00  0.00    +0.000 F 
BRANCH  18  23
ATOM     23  C   UNL     1      45.302   4.451   9.861  0.00  0.00    +0.000 A 
ATOM     24  C   UNL     1      45.838   4.547   8.562  0.00  0.00    +0.000 A 
ATOM     25  C   UNL     1      45.811   3.469   7.673  0.00  0.00    +0.000 A 
ATOM     26  C   UNL     1      45.256   2.258   8.067  0.00  0.00    +0.000 A 
ATOM     27  C   UNL     1      44.717   2.130   9.342  0.00  0.00    +0.000 A 
ATOM     28  C   UNL     1      44.733   3.217  10.225  0.00  0.00    +0.000 A 
ENDBRANCH  18  23
ENDBRANCH  15  16
ENDBRANCH   1  15
TORSDOF 6
ENDMDL
MODEL 7
REMARK VINA RESULT:    -6.844      3.952      7.630
REMARK INTER + INTRA:         -10.369
REMARK INTER:                  -9.468
REMARK INTRA:                  -0.901
REMARK UNBOUND:                -1.124
REMARK  Name = 
REMARK  6 active torsions:
REMARK  status: ('A' for Active; 'I' for Inactive)
REMARK    1  A    between atoms: C_2  and  C_4
REMARK    2  A    between atoms: C_7  and  N_8
REMARK    3  A    between atoms: N_8  and  C_9
REMARK    4  A    between atoms: C_9  and  C_10
REMARK    5  A    between atoms: C_10  and  C_11
REMARK    6  A    between atoms: C_13  and  C_14
REMARK                            x       y       z     vdW  Elec       q    Type
REMARK                         _______ _______ _______ _____ _____    ______ ____
ROOT
ATOM      1  C   UNL     1      46.474   5.659  13.407  0.00  0.00    +0.000 C 
ENDROOT
BRANCH   1   2
ATOM      2  N   UNL     1      47.035   6.906  13.923  0.00  0.00    +0.000 N 
ATOM      3  H   UNL     1      46.474   7.360  14.640  0.00  0.00    +0.000 HD
BRANCH   2   7
ATOM      4  C   UNL     1      48.763   9.856  11.448  0.00  0.00    +0.000 A 
ATOM      5  C   UNL     1      49.386   8.616  11.574  0.00  0.00    +0.000 A 
ATOM      6  C   UNL     1      48.818   7.625  12.381  0.00  0.00    +0.000 A 
ATOM      7  C   UNL     1      47.607   7.834  13.051  0.00  0.00    +0.000 A 
ATOM      8  C   UNL     1      47.004   9.095  12.928  0.00  0.00    +0.000 A 
ATOM      9  C   UNL     1      47.575  10.102  12.141  0.00  0.00    +0.000 A 
BRANCH   4  11
ATOM     10  N   UNL     1      48.484  11.807  10.021  0.00  0.00    +0.000 N 
ATOM     11  C   UNL     1      49.355  10.944  10.629  0.00  0.00    +0.000 C 
ATOM     12  O   UNL     1      50.565  11.088  10.521  0.00  0.00    +0.000 OA
ATOM     13  H   UNL     1      48.897  12.600   9.546  0.00  0.00    +0.000 HD
ATOM     14  H   UNL     1      47.512  11.871  10.286  0.00  0.00    +0.000 HD
ENDBRANCH   4  11
ENDBRANCH   2   7
ENDBRANCH   1   2
BRANCH   1  15
ATOM     15  C   UNL     1      45.181   5.941  12.642  0.00  0.00    +0.000 C 
BRANCH  15  16
ATOM     16  C   UNL     1      44.704   4.748  11.856  0.00  0.00    +0.000 A 
ATOM     17  C   UNL     1      45.309   4.411  10.634  0.00  0.00    +0.000 A 
ATOM     18  C   UNL     1      44.942   3.259   9.908  0.00  0.00    +0.000 A 
ATOM     19  C   UNL     1      43.902   2.470  10.440  0.00  0.00    +0.000 A 
ATOM     20  C   UNL     1      43.256   2.821  11.628  0.00  0.00    +0.000 A 
ATOM     21  C   UNL     1      43.661   3.952  12.325  0.00  0.00    +0.000 A 
ATOM     22  F   UNL     1      43.039   4.269  13.469  0.00  0.00    +0.000 F 
BRANCH  18  23
ATOM     23  C   UNL     1      45.648   2.877   8.661  0.00  0.00    +0.000 A 
ATOM     24  C   UNL     1      45.920   3.827   7.656  0.00  0.00    +0.000 A 
ATOM     25  C   UNL     1      46.605   3.485   6.487  0.00  0.00    +0.000 A 
ATOM     26  C   UNL     1      47.048   2.182   6.298  0.00  0.00    +0.000 A 
ATOM     27  C   UNL     1      46.795   1.220   7.270  0.00  0.00    +0.000 A 
ATOM     28  C   UNL     1      46.096   1.562   8.433  0.00  0.00    +0.000 A 
ENDBRANCH  18  23
ENDBRANCH  15  16
ENDBRANCH   1  15
TORSDOF 6
ENDMDL
MODEL 8
REMARK VINA RESULT:    -6.667      3.984      8.624
REMARK INTER + INTRA:         -10.130
REMARK INTER:                  -9.431
REMARK INTRA:                  -0.699
REMARK UNBOUND:                -1.124
REMARK  Name = 
REMARK  6 active torsions:
REMARK  status: ('A' for Active; 'I' for Inactive)
REMARK    1  A    between atoms: C_2  and  C_4
REMARK    2  A    between atoms: C_7  and  N_8
REMARK    3  A    between atoms: N_8  and  C_9
REMARK    4  A    between atoms: C_9  and  C_10
REMARK    5  A    between atoms: C_10  and  C_11
REMARK    6  A    between atoms: C_13  and  C_14
REMARK                            x       y       z     vdW  Elec       q    Type
REMARK                         _______ _______ _______ _____ _____    ______ ____
ROOT
ATOM      1  C   UNL     1      46.487   4.335  13.633  0.00  0.00    +0.000 C 
ENDROOT
BRANCH   1   2
ATOM      2  N   UNL     1      46.324   4.370  15.085  0.00  0.00    +0.000 N 
ATOM      3  H   UNL     1      45.638   5.044  15.419  0.00  0.00    +0.000 HD
BRANCH   2   7
ATOM      4  C   UNL     1      49.635   4.384  17.701  0.00  0.00    +0.000 A 
ATOM      5  C   UNL     1      48.811   3.263  17.645  0.00  0.00    +0.000 A 
ATOM      6  C   UNL     1      47.717   3.239  16.773  0.00  0.00    +0.000 A 
ATOM      7  C   UNL     1      47.441   4.314  15.920  0.00  0.00    +0.000 A 
ATOM      8  C   UNL     1      48.269   5.443  16.005  0.00  0.00    +0.000 A 
ATOM      9  C   UNL     1      49.354   5.486  16.889  0.00  0.00    +0.000 A 
BRANCH   4  11
ATOM     10  N   UNL     1      50.514   4.275  19.968  0.00  0.00    +0.000 N 
ATOM     11  C   UNL     1      50.784   4.459  18.640  0.00  0.00    +0.000 C 
ATOM     12  O   UNL     1      51.928   4.647  18.248  0.00  0.00    +0.000 OA
ATOM     13  H   UNL     1      51.313   4.232  20.587  0.00  0.00    +0.000 HD
ATOM     14  H   UNL     1      49.645   3.877  20.293  0.00  0.00    +0.000 HD
ENDBRANCH   4  11
ENDBRANCH   2   7
ENDBRANCH   1   2
BRANCH   1  15
ATOM     15  C   UNL     1      45.567   3.277  13.025  0.00  0.00    +0.000 C 
BRANCH  15  16
ATOM     16  C   UNL     1      45.114   3.638  11.634  0.00  0.00    +0.000 A 
ATOM     17  C   UNL     1      45.771   3.108  10.511  0.00  0.00    +0.000 A 
ATOM     18  C   UNL     1      45.328   3.360   9.196  0.00  0.00    +0.000 A 
ATOM     19  C   UNL     1      44.214   4.209   9.046  0.00  0.00    +0.000 A 
ATOM     20  C   UNL     1      43.581   4.784  10.151  0.00  0.00    +0.000 A 
ATOM     21  C   UNL     1      44.034   4.495  11.432  0.00  0.00    +0.000 A 
ATOM     22  F   UNL     1      43.411   5.046  12.483  0.00  0.00    +0.000 F 
BRANCH  18  23
ATOM     23  C   UNL     1      45.986   2.727   8.028  0.00  0.00    +0.000 A 
ATOM     24  C   UNL     1      46.236   3.455   6.847  0.00  0.00    +0.000 A 
ATOM     25  C   UNL     1      46.876   2.876   5.748  0.00  0.00    +0.000 A 
ATOM     26  C   UNL     1      47.297   1.553   5.806  0.00  0.00    +0.000 A 
ATOM     27  C   UNL     1      47.065   0.806   6.956  0.00  0.00    +0.000 A 
ATOM     28  C   UNL     1      46.410   1.385   8.050  0.00  0.00    +0.000 A 
ENDBRANCH  18  23
ENDBRANCH  15  16
ENDBRANCH   1  15
TORSDOF 6
ENDMDL
MODEL 9
REMARK VINA RESULT:    -6.595      4.006      7.709
REMARK INTER + INTRA:         -10.032
REMARK INTER:                  -8.603
REMARK INTRA:                  -1.429
REMARK UNBOUND:                -1.124
REMARK  Name = 
REMARK  6 active torsions:
REMARK  status: ('A' for Active; 'I' for Inactive)
REMARK    1  A    between atoms: C_2  and  C_4
REMARK    2  A    between atoms: C_7  and  N_8
REMARK    3  A    between atoms: N_8  and  C_9
REMARK    4  A    between atoms: C_9  and  C_10
REMARK    5  A    between atoms: C_10  and  C_11
REMARK    6  A    between atoms: C_13  and  C_14
REMARK                            x       y       z     vdW  Elec       q    Type
REMARK                         _______ _______ _______ _____ _____    ______ ____
ROOT
ATOM      1  C   UNL     1      49.925   7.645  13.385  0.00  0.00    +0.000 C 
ENDROOT
BRANCH   1   2
ATOM      2  N   UNL     1      49.268   7.945  14.656  0.00  0.00    +0.000 N 
ATOM      3  H   UNL     1      49.699   8.696  15.190  0.00  0.00    +0.000 HD
BRANCH   2   7
ATOM      4  C   UNL     1      48.011   4.673  17.007  0.00  0.00    +0.000 A 
ATOM      5  C   UNL     1      48.874   5.619  17.554  0.00  0.00    +0.000 A 
ATOM      6  C   UNL     1      49.289   6.716  16.791  0.00  0.00    +0.000 A 
ATOM      7  C   UNL     1      48.830   6.909  15.483  0.00  0.00    +0.000 A 
ATOM      8  C   UNL     1      47.978   5.935  14.940  0.00  0.00    +0.000 A 
ATOM      9  C   UNL     1      47.574   4.823  15.688  0.00  0.00    +0.000 A 
BRANCH   4  11
ATOM     10  N   UNL     1      48.302   3.162  18.892  0.00  0.00    +0.000 N 
ATOM     11  C   UNL     1      47.578   3.478  17.775  0.00  0.00    +0.000 C 
ATOM     12  O   UNL     1      46.601   2.817  17.448  0.00  0.00    +0.000 OA
ATOM     13  H   UNL     1      47.942   2.406  19.460  0.00  0.00    +0.000 HD
ATOM     14  H   UNL     1      48.942   3.813  19.324  0.00  0.00    +0.000 HD
ENDBRANCH   4  11
ENDBRANCH   2   7
ENDBRANCH   1   2
BRANCH   1  15
ATOM     15  C   UNL     1      49.331   8.505  12.270  0.00  0.00    +0.000 C 
BRANCH  15  16
ATOM     16  C   UNL     1      47.848   8.298  12.109  0.00  0.00    +0.000 A 
ATOM     17  C   UNL     1      47.343   7.050  11.704  0.00  0.00    +0.000 A 
ATOM     18  C   UNL     1      45.959   6.795  11.616  0.00  0.00    +0.000 A 
ATOM     19  C   UNL     1      45.089   7.864  11.911  0.00  0.00    +0.000 A 
ATOM     20  C   UNL     1      45.578   9.124  12.266  0.00  0.00    +0.000 A 
ATOM     21  C   UNL     1      46.947   9.330  12.362  0.00  0.00    +0.000 A 
ATOM     22  F   UNL     1      47.401  10.542  12.713  0.00  0.00    +0.000 F 
BRANCH  18  23
ATOM     23  C   UNL     1      45.445   5.449  11.265  0.00  0.00    +0.000 A 
ATOM     24  C   UNL     1      45.257   4.459  12.251  0.00  0.00    +0.000 A 
ATOM     25  C   UNL     1      44.752   3.195  11.937  0.00  0.00    +0.000 A 
ATOM     26  C   UNL     1      44.408   2.890  10.626  0.00  0.00    +0.000 A 
ATOM     27  C   UNL     1      44.582   3.844   9.628  0.00  0.00    +0.000 A 
ATOM     28  C   UNL     1      45.103   5.104   9.944  0.00  0.00    +0.000 A 
ENDBRANCH  18  23
ENDBRANCH  15  16
ENDBRANCH   1  15
TORSDOF 6
ENDMDL
