MODEL 1
REMARK VINA RESULT:    -7.826      0.000      0.000
REMARK INTER + INTRA:         -12.440
REMARK INTER:                 -11.028
REMARK INTRA:                  -1.412
REMARK UNBOUND:                -1.412
REMARK  Name = 
REMARK  7 active torsions:
REMARK  status: ('A' for Active; 'I' for Inactive)
REMARK    1  A    between atoms: C_2  and  C_4
REMARK    2  A    between atoms: C_9  and  N_10
REMARK    3  A    between atoms: N_10  and  C_11
REMARK    4  A    between atoms: C_11  and  C_12
REMARK    5  A    between atoms: C_15  and  C_16
REMARK    6  A    between atoms: C_16  and  N_17
REMARK    7  A    between atoms: C_18  and  C_20
REMARK                            x       y       z     vdW  Elec       q    Type
REMARK                         _______ _______ _______ _____ _____    ______ ____
ROOT
ATOM      1  C   UNL     1      49.901   6.840  15.871  0.00  0.00    +0.000 A 
ATOM      2  C   UNL     1      50.707   7.593  15.005  0.00  0.00    +0.000 A 
ATOM      3  C   UNL     1      50.240   7.954  13.738  0.00  0.00    +0.000 A 
ATOM      4  C   UNL     1      48.954   7.587  13.320  0.00  0.00    +0.000 A 
ATOM      5  C   UNL     1      48.161   6.811  14.175  0.00  0.00    +0.000 A 
ATOM      6  C   UNL     1      48.624   6.452  15.441  0.00  0.00    +0.000 A 
ENDROOT
BRANCH   1   7
ATOM      7  C   UNL     1      50.388   6.437  17.242  0.00  0.00    +0.000 C 
BRANCH   7   8
ATOM      8  N   UNL     1      49.593   5.315  17.753  0.00  0.00    +0.000 N 
ATOM      9  H   UNL     1      49.346   5.492  18.730  0.00  0.00    +0.000 HD
BRANCH   8  15
ATOM     10  C   UNL     1      49.490   2.905  17.154  0.00  0.00    +0.000 A 
ATOM     11  C   UNL     1      50.115   1.644  17.110  0.00  0.00    +0.000 A 
ATOM     12  C   UNL     1      51.458   1.501  17.456  0.00  0.00    +0.000 A 
ATOM     13  C   UNL     1      52.192   2.620  17.818  0.00  0.00    +0.000 A 
ATOM     14  C   UNL     1      51.570   3.871  17.889  0.00  0.00    +0.000 A 
ATOM     15  C   UNL     1      50.195   4.036  17.632  0.00  0.00    +0.000 A 
BRANCH  10  17
ATOM     16  N   UNL     1      47.098   2.864  17.624  0.00  0.00    +0.000 N 
ATOM     17  C   UNL     1      48.079   2.940  16.675  0.00  0.00    +0.000 C 
ATOM     18  O   UNL     1      47.797   3.095  15.493  0.00  0.00    +0.000 OA
ATOM     19  H   UNL     1      46.159   3.086  17.320  0.00  0.00    +0.000 HD
ATOM     20  H   UNL     1      47.325   3.002  18.604  0.00  0.00    +0.000 HD
ENDBRANCH  10  17
ENDBRANCH   8  15
ENDBRANCH   7   8
ENDBRANCH   1   7
BRANCH   4  21
ATOM     21  C   UNL     1      48.444   7.958  11.951  0.00  0.00    +0.000 C 
BRANCH  21  22
ATOM     22  N   UNL     1      47.658   6.884  11.403  0.00  0.00    +0.000 N 
ATOM     23  C   UNL     1      46.289   6.925  11.373  0.00  0.00    +0.000 C 
ATOM     24  O   UNL     1      45.653   7.897  11.768  0.00  0.00    +0.000 OA
ATOM     25  H   UNL     1      48.128   5.990  11.307  0.00  0.00    +0.000 HD
BRANCH  23  26
ATOM     26  C   UNL     1      45.628   5.761  10.767  0.00  0.00    +0.000 A 
ATOM     27  C   UNL     1      45.772   5.513   9.409  0.00  0.00    +0.000 A 
ATOM     28  S   UNL     1      45.028   4.066   8.897  0.00  0.00    +0.000 S 
ATOM     29  C   UNL     1      44.438   3.750  10.462  0.00  0.00    +0.000 A 
ATOM     30  N   UNL     1      43.701   2.637  10.722  0.00  0.00    +0.000 NA
ATOM     31  C   UNL     1      43.295   2.538  11.944  0.00  0.00    +0.000 A 
ATOM     32  N   UNL     1      43.554   3.456  12.929  0.00  0.00    +0.000 N 
ATOM     33  C   UNL     1      44.304   4.585  12.716  0.00  0.00    +0.000 A 
ATOM     34  O   UNL     1      44.534   5.375  13.627  0.00  0.00    +0.000 OA
ATOM     35  C   UNL     1      44.800   4.736  11.360  0.00  0.00    +0.000 A 
ATOM     36  H   UNL     1      43.203   3.325  13.866  0.00  0.00    +0.000 HD
ENDBRANCH  23  26
ENDBRANCH  21  22
ENDBRANCH   4  21
TORSDOF 7
ENDMDL
MODEL 2
REMARK VINA RESULT:    -7.555      4.057      8.545
REMARK INTER + INTRA:         -12.059
REMARK INTER:                 -10.642
REMARK INTRA:                  -1.417
REMARK UNBOUND:                -1.412
REMARK  Name = 
REMARK  7 active torsions:
REMARK  status: ('A' for Active; 'I' for Inactive)
REMARK    1  A    between atoms: C_2  and  C_4
REMARK    2  A    between atoms: C_9  and  N_10
REMARK    3  A    between atoms: N_10  and  C_11
REMARK    4  A    between atoms: C_11  and  C_12
REMARK    5  A    between atoms: C_15  and  C_16
REMARK    6  A    between atoms: C_16  and  N_17
REMARK    7  A    between atoms: C_18  and  C_20
REMARK                            x       y       z     vdW  Elec       q    Type
REMARK                         _______ _______ _______ _____ _____    ______ ____
ROOT
ATOM      1  C   UNL     1      46.831   6.054  12.455  0.00  0.00    +0.000 A 
ATOM      2  C   UNL     1      47.760   6.838  13.154  0.00  0.00    +0.000 A 
ATOM      3  C   UNL     1      48.149   6.487  14.450  0.00  0.00    +0.000 A 
ATOM      4  C   UNL     1      47.633   5.338  15.064  0.00  0.00    +0.000 A 
ATOM      5  C   UNL     1      46.685   4.572  14.375  0.00  0.00    +0.000 A 
ATOM      6  C   UNL     1      46.297   4.919  13.080  0.00  0.00    +0.000 A 
ENDROOT
BRANCH   1   7
ATOM      7  C   UNL     1      46.396   6.418  11.056  0.00  0.00    +0.000 C 
BRANCH   7   8
ATOM      8  N   UNL     1      45.085   5.829  10.764  0.00  0.00    +0.000 N 
ATOM      9  H   UNL     1      44.602   5.625  11.643  0.00  0.00    +0.000 HD
BRANCH   8  15
ATOM     10  C   UNL     1      44.401   3.488  10.280  0.00  0.00    +0.000 A 
ATOM     11  C   UNL     1      44.502   2.345   9.465  0.00  0.00    +0.000 A 
ATOM     12  C   UNL     1      45.226   2.379   8.275  0.00  0.00    +0.000 A 
ATOM     13  C   UNL     1      45.829   3.563   7.877  0.00  0.00    +0.000 A 
ATOM     14  C   UNL     1      45.754   4.695   8.695  0.00  0.00    +0.000 A 
ATOM     15  C   UNL     1      45.105   4.670   9.945  0.00  0.00    +0.000 A 
BRANCH  10  17
ATOM     16  N   UNL     1      43.729   2.255  12.273  0.00  0.00    +0.000 N 
ATOM     17  C   UNL     1      43.525   3.348  11.479  0.00  0.00    +0.000 C 
ATOM     18  O   UNL     1      42.700   4.200  11.785  0.00  0.00    +0.000 OA
ATOM     19  H   UNL     1      43.278   2.265  13.179  0.00  0.00    +0.000 HD
ATOM     20  H   UNL     1      44.573   1.699  12.169  0.00  0.00    +0.000 HD
ENDBRANCH  10  17
ENDBRANCH   8  15
ENDBRANCH   7   8
ENDBRANCH   1   7
BRANCH   4  21
ATOM     21  C   UNL     1      48.034   4.957  16.465  0.00  0.00    +0.000 C 
BRANCH  21  22
ATOM     22  N   UNL     1      47.674   6.000  17.389  0.00  0.00    +0.000 N 
ATOM     23  C   UNL     1      48.534   6.443  18.359  0.00  0.00    +0.000 C 
ATOM     24  O   UNL     1      49.677   6.011  18.468  0.00  0.00    +0.000 OA
ATOM     25  H   UNL     1      46.682   6.191  17.483  0.00  0.00    +0.000 HD
BRANCH  23  26
ATOM     26  C   UNL     1      48.029   7.525  19.215  0.00  0.00    +0.000 A 
ATOM     27  C   UNL     1      47.739   7.274  20.548  0.00  0.00    +0.000 A 
ATOM     28  S   UNL     1      47.267   8.665  21.417  0.00  0.00    +0.000 S 
ATOM     29  C   UNL     1      47.378   9.640  20.027  0.00  0.00    +0.000 A 
ATOM     30  N   UNL     1      47.099  10.970  20.079  0.00  0.00    +0.000 NA
ATOM     31  C   UNL     1      47.195  11.581  18.945  0.00  0.00    +0.000 A 
ATOM     32  N   UNL     1      47.539  10.981  17.762  0.00  0.00    +0.000 N 
ATOM     33  C   UNL     1      47.841   9.646  17.664  0.00  0.00    +0.000 A 
ATOM     34  O   UNL     1      48.165   9.145  16.591  0.00  0.00    +0.000 OA
ATOM     35  C   UNL     1      47.764   8.914  18.915  0.00  0.00    +0.000 A 
ATOM     36  H   UNL     1      47.591  11.513  16.905  0.00  0.00    +0.000 HD
ENDBRANCH  23  26
ENDBRANCH  21  22
ENDBRANCH   4  21
TORSDOF 7
ENDMDL
MODEL 3
REMARK VINA RESULT:    -7.315      1.730      2.320
REMARK INTER + INTRA:         -11.720
REMARK INTER:                  -9.855
REMARK INTRA:                  -1.865
REMARK UNBOUND:                -1.412
REMARK  Name = 
REMARK  7 active torsions:
REMARK  status: ('A' for Active; 'I' for Inactive)
REMARK    1  A    between atoms: C_2  and  C_4
REMARK    2  A    between atoms: C_9  and  N_10
REMARK    3  A    between atoms: N_10  and  C_11
REMARK    4  A    between atoms: C_11  and  C_12
REMARK    5  A    between atoms: C_15  and  C_16
REMARK    6  A    between atoms: C_16  and  N_17
REMARK    7  A    between atoms: C_18  and  C_20
REMARK                            x       y       z     vdW  Elec       q    Type
REMARK                         _______ _______ _______ _____ _____    ______ ____
ROOT
ATOM      1  C   UNL     1      49.509   7.934  15.761  0.00  0.00    +0.000 A 
ATOM      2  C   UNL     1      50.127   7.291  14.679  0.00  0.00    +0.000 A 
ATOM      3  C   UNL     1      49.516   7.275  13.421  0.00  0.00    +0.000 A 
ATOM      4  C   UNL     1      48.286   7.916  13.218  0.00  0.00    +0.000 A 
ATOM      5  C   UNL     1      47.657   8.533  14.307  0.00  0.00    +0.000 A 
ATOM      6  C   UNL     1      48.267   8.552  15.561  0.00  0.00    +0.000 A 
ENDROOT
BRANCH   1   7
ATOM      7  C   UNL     1      50.151   7.959  17.127  0.00  0.00    +0.000 C 
BRANCH   7   8
ATOM      8  N   UNL     1      49.536   6.948  17.995  0.00  0.00    +0.000 N 
ATOM      9  H   UNL     1      49.636   7.235  18.972  0.00  0.00    +0.000 HD
BRANCH   8  15
ATOM     10  C   UNL     1      49.183   4.549  17.452  0.00  0.00    +0.000 A 
ATOM     11  C   UNL     1      49.701   3.242  17.360  0.00  0.00    +0.000 A 
ATOM     12  C   UNL     1      51.059   2.998  17.556  0.00  0.00    +0.000 A 
ATOM     13  C   UNL     1      51.913   4.060  17.815  0.00  0.00    +0.000 A 
ATOM     14  C   UNL     1      51.400   5.356  17.934  0.00  0.00    +0.000 A 
ATOM     15  C   UNL     1      50.021   5.625  17.829  0.00  0.00    +0.000 A 
BRANCH  10  17
ATOM     16  N   UNL     1      47.409   5.034  15.851  0.00  0.00    +0.000 N 
ATOM     17  C   UNL     1      47.733   4.689  17.133  0.00  0.00    +0.000 C 
ATOM     18  O   UNL     1      46.860   4.445  17.956  0.00  0.00    +0.000 OA
ATOM     19  H   UNL     1      46.437   4.934  15.589  0.00  0.00    +0.000 HD
ATOM     20  H   UNL     1      48.107   4.976  15.116  0.00  0.00    +0.000 HD
ENDBRANCH  10  17
ENDBRANCH   8  15
ENDBRANCH   7   8
ENDBRANCH   1   7
BRANCH   4  21
ATOM     21  C   UNL     1      47.610   7.895  11.871  0.00  0.00    +0.000 C 
BRANCH  21  22
ATOM     22  N   UNL     1      46.914   6.649  11.682  0.00  0.00    +0.000 N 
ATOM     23  C   UNL     1      45.553   6.552  11.799  0.00  0.00    +0.000 C 
ATOM     24  O   UNL     1      44.842   7.526  12.024  0.00  0.00    +0.000 OA
ATOM     25  H   UNL     1      47.477   5.808  11.745  0.00  0.00    +0.000 HD
BRANCH  23  26
ATOM     26  C   UNL     1      44.985   5.217  11.560  0.00  0.00    +0.000 A 
ATOM     27  C   UNL     1      44.313   4.560  12.580  0.00  0.00    +0.000 A 
ATOM     28  S   UNL     1      43.629   3.073  12.099  0.00  0.00    +0.000 S 
ATOM     29  C   UNL     1      44.257   3.230  10.525  0.00  0.00    +0.000 A 
ATOM     30  N   UNL     1      44.034   2.275   9.582  0.00  0.00    +0.000 NA
ATOM     31  C   UNL     1      44.594   2.508   8.442  0.00  0.00    +0.000 A 
ATOM     32  N   UNL     1      45.363   3.608   8.161  0.00  0.00    +0.000 N 
ATOM     33  C   UNL     1      45.604   4.602   9.075  0.00  0.00    +0.000 A 
ATOM     34  O   UNL     1      46.280   5.584   8.782  0.00  0.00    +0.000 OA
ATOM     35  C   UNL     1      44.983   4.396  10.371  0.00  0.00    +0.000 A 
ATOM     36  H   UNL     1      45.779   3.731   7.249  0.00  0.00    +0.000 HD
ENDBRANCH  23  26
ENDBRANCH  21  22
ENDBRANCH   4  21
TORSDOF 7
ENDMDL
MODEL 4
REMARK VINA RESULT:    -7.250      2.939      8.080
REMARK INTER + INTRA:         -11.629
REMARK INTER:                 -10.371
REMARK INTRA:                  -1.259
REMARK UNBOUND:                -1.412
REMARK  Name = 
REMARK  7 active torsions:
REMARK  status: ('A' for Active; 'I' for Inactive)
REMARK    1  A    between atoms: C_2  and  C_4
REMARK    2  A    between atoms: C_9  and  N_10
REMARK    3  A    between atoms: N_10  and  C_11
REMARK    4  A    between atoms: C_11  and  C_12
REMARK    5  A    between atoms: C_15  and  C_16
REMARK    6  A    between atoms: C_16  and  N_17
REMARK    7  A    between atoms: C_18  and  C_20
REMARK                            x       y       z     vdW  Elec       q    Type
REMARK                         _______ _______ _______ _____ _____    ______ ____
ROOT
ATOM      1  C   UNL     1      47.153   6.821  12.116  0.00  0.00    +0.000 A 
ATOM      2  C   UNL     1      47.413   5.789  13.028  0.00  0.00    +0.000 A 
ATOM      3  C   UNL     1      47.912   6.079  14.303  0.00  0.00    +0.000 A 
ATOM      4  C   UNL     1      48.141   7.405  14.694  0.00  0.00    +0.000 A 
ATOM      5  C   UNL     1      47.908   8.432  13.771  0.00  0.00    +0.000 A 
ATOM      6  C   UNL     1      47.408   8.145  12.501  0.00  0.00    +0.000 A 
ENDROOT
BRANCH   1   7
ATOM      7  C   UNL     1      46.618   6.528  10.735  0.00  0.00    +0.000 C 
BRANCH   7   8
ATOM      8  N   UNL     1      45.330   5.832  10.828  0.00  0.00    +0.000 N 
ATOM      9  H   UNL     1      45.134   5.611  11.808  0.00  0.00    +0.000 HD
BRANCH   8  15
ATOM     10  C   UNL     1      44.434   3.547  10.437  0.00  0.00    +0.000 A 
ATOM     11  C   UNL     1      44.397   2.384   9.644  0.00  0.00    +0.000 A 
ATOM     12  C   UNL     1      45.053   2.337   8.416  0.00  0.00    +0.000 A 
ATOM     13  C   UNL     1      45.725   3.460   7.958  0.00  0.00    +0.000 A 
ATOM     14  C   UNL     1      45.788   4.610   8.753  0.00  0.00    +0.000 A 
ATOM     15  C   UNL     1      45.210   4.661  10.036  0.00  0.00    +0.000 A 
BRANCH  10  17
ATOM     16  N   UNL     1      43.848   2.459  12.539  0.00  0.00    +0.000 N 
ATOM     17  C   UNL     1      43.619   3.500  11.685  0.00  0.00    +0.000 C 
ATOM     18  O   UNL     1      42.822   4.385  11.974  0.00  0.00    +0.000 OA
ATOM     19  H   UNL     1      43.444   2.537  13.463  0.00  0.00    +0.000 HD
ATOM     20  H   UNL     1      44.678   1.884  12.430  0.00  0.00    +0.000 HD
ENDBRANCH  10  17
ENDBRANCH   8  15
ENDBRANCH   7   8
ENDBRANCH   1   7
BRANCH   4  21
ATOM     21  C   UNL     1      48.691   7.730  16.059  0.00  0.00    +0.000 C 
BRANCH  21  22
ATOM     22  N   UNL     1      49.771   6.836  16.388  0.00  0.00    +0.000 N 
ATOM     23  C   UNL     1      49.685   5.940  17.420  0.00  0.00    +0.000 C 
ATOM     24  O   UNL     1      48.669   5.812  18.095  0.00  0.00    +0.000 OA
ATOM     25  H   UNL     1      50.684   7.086  16.025  0.00  0.00    +0.000 HD
BRANCH  23  26
ATOM     26  C   UNL     1      50.862   5.084  17.622  0.00  0.00    +0.000 A 
ATOM     27  C   UNL     1      52.069   5.648  18.011  0.00  0.00    +0.000 A 
ATOM     28  S   UNL     1      53.296   4.499  18.303  0.00  0.00    +0.000 S 
ATOM     29  C   UNL     1      52.273   3.212  17.862  0.00  0.00    +0.000 A 
ATOM     30  N   UNL     1      52.713   1.925  17.890  0.00  0.00    +0.000 NA
ATOM     31  C   UNL     1      51.842   1.054  17.504  0.00  0.00    +0.000 A 
ATOM     32  N   UNL     1      50.572   1.354  17.085  0.00  0.00    +0.000 N 
ATOM     33  C   UNL     1      50.080   2.634  17.052  0.00  0.00    +0.000 A 
ATOM     34  O   UNL     1      48.930   2.864  16.691  0.00  0.00    +0.000 OA
ATOM     35  C   UNL     1      51.016   3.653  17.493  0.00  0.00    +0.000 A 
ATOM     36  H   UNL     1      49.937   0.626  16.788  0.00  0.00    +0.000 HD
ENDBRANCH  23  26
ENDBRANCH  21  22
ENDBRANCH   4  21
TORSDOF 7
ENDMDL
MODEL 5
REMARK VINA RESULT:    -7.176      3.808      8.632
REMARK INTER + INTRA:         -11.524
REMARK INTER:                 -10.182
REMARK INTRA:                  -1.342
REMARK UNBOUND:                -1.412
REMARK  Name = 
REMARK  7 active torsions:
REMARK  status: ('A' for Active; 'I' for Inactive)
REMARK    1  A    between atoms: C_2  and  C_4
REMARK    2  A    between atoms: C_9  and  N_10
REMARK    3  A    between atoms: N_10  and  C_11
REMARK    4  A    between atoms: C_11  and  C_12
REMARK    5  A    between atoms: C_15  and  C_16
REMARK    6  A    between atoms: C_16  and  N_17
REMARK    7  A    between atoms: C_18  and  C_20
REMARK                            x       y       z     vdW  Elec       q    Type
REMARK                         _______ _______ _______ _____ _____    ______ ____
ROOT
ATOM      1  C   UNL     1      46.603   6.098  12.306  0.00  0.00    +0.000 A 
ATOM      2  C   UNL     1      46.052   4.996  12.974  0.00  0.00    +0.000 A 
ATOM      3  C   UNL     1      46.521   4.627  14.239  0.00  0.00    +0.000 A 
ATOM      4  C   UNL     1      47.536   5.363  14.866  0.00  0.00    +0.000 A 
ATOM      5  C   UNL     1      48.104   6.447  14.184  0.00  0.00    +0.000 A 
ATOM      6  C   UNL     1      47.635   6.818  12.924  0.00  0.00    +0.000 A 
ENDROOT
BRANCH   1   7
ATOM      7  C   UNL     1      46.111   6.510  10.939  0.00  0.00    +0.000 C 
BRANCH   7   8
ATOM      8  N   UNL     1      44.880   5.787  10.605  0.00  0.00    +0.000 N 
ATOM      9  H   UNL     1      44.386   5.542  11.466  0.00  0.00    +0.000 HD
BRANCH   8  15
ATOM     10  C   UNL     1      44.415   3.399  10.095  0.00  0.00    +0.000 A 
ATOM     11  C   UNL     1      44.665   2.263   9.302  0.00  0.00    +0.000 A 
ATOM     12  C   UNL     1      45.474   2.347   8.171  0.00  0.00    +0.000 A 
ATOM     13  C   UNL     1      46.015   3.571   7.807  0.00  0.00    +0.000 A 
ATOM     14  C   UNL     1      45.791   4.698   8.606  0.00  0.00    +0.000 A 
ATOM     15  C   UNL     1      45.051   4.630   9.802  0.00  0.00    +0.000 A 
BRANCH  10  17
ATOM     16  N   UNL     1      43.369   1.936  11.742  0.00  0.00    +0.000 N 
ATOM     17  C   UNL     1      43.462   3.197  11.224  0.00  0.00    +0.000 C 
ATOM     18  O   UNL     1      42.833   4.126  11.718  0.00  0.00    +0.000 OA
ATOM     19  H   UNL     1      42.880   1.846  12.623  0.00  0.00    +0.000 HD
ATOM     20  H   UNL     1      44.071   1.239  11.514  0.00  0.00    +0.000 HD
ENDBRANCH  10  17
ENDBRANCH   8  15
ENDBRANCH   7   8
ENDBRANCH   1   7
BRANCH   4  21
ATOM     21  C   UNL     1      48.060   4.969  16.222  0.00  0.00    +0.000 C 
BRANCH  21  22
ATOM     22  N   UNL     1      47.971   6.079  17.134  0.00  0.00    +0.000 N 
ATOM     23  C   UNL     1      49.079   6.758  17.565  0.00  0.00    +0.000 C 
ATOM     24  O   UNL     1      50.209   6.492  17.164  0.00  0.00    +0.000 OA
ATOM     25  H   UNL     1      47.108   6.155  17.662  0.00  0.00    +0.000 HD
BRANCH  23  26
ATOM     26  C   UNL     1      48.826   7.878  18.481  0.00  0.00    +0.000 A 
ATOM     27  C   UNL     1      49.184   9.167  18.113  0.00  0.00    +0.000 A 
ATOM     28  S   UNL     1      48.721  10.354  19.248  0.00  0.00    +0.000 S 
ATOM     29  C   UNL     1      48.078   9.179  20.298  0.00  0.00    +0.000 A 
ATOM     30  N   UNL     1      47.511   9.533  21.483  0.00  0.00    +0.000 NA
ATOM     31  C   UNL     1      47.091   8.539  22.192  0.00  0.00    +0.000 A 
ATOM     32  N   UNL     1      47.194   7.221  21.827  0.00  0.00    +0.000 N 
ATOM     33  C   UNL     1      47.746   6.819  20.637  0.00  0.00    +0.000 A 
ATOM     34  O   UNL     1      47.802   5.631  20.333  0.00  0.00    +0.000 OA
ATOM     35  C   UNL     1      48.220   7.900  19.793  0.00  0.00    +0.000 A 
ATOM     36  H   UNL     1      46.851   6.487  22.430  0.00  0.00    +0.000 HD
ENDBRANCH  23  26
ENDBRANCH  21  22
ENDBRANCH   4  21
TORSDOF 7
ENDMDL
MODEL 6
REMARK VINA RESULT:    -6.902      1.883      2.471
REMARK INTER + INTRA:         -11.138
REMARK INTER:                  -9.208
REMARK INTRA:                  -1.930
REMARK UNBOUND:                -1.412
REMARK  Name = 
REMARK  7 active torsions:
REMARK  status: ('A' for Active; 'I' for Inactive)
REMARK    1  A    between atoms: C_2  and  C_4
REMARK    2  A    between atoms: C_9  and  N_10
REMARK    3  A    between atoms: N_10  and  C_11
REMARK    4  A    between atoms: C_11  and  C_12
REMARK    5  A    between atoms: C_15  and  C_16
REMARK    6  A    between atoms: C_16  and  N_17
REMARK    7  A    between atoms: C_18  and  C_20
REMARK                            x       y       z     vdW  Elec       q    Type
REMARK                         _______ _______ _______ _____ _____    ______ ____
ROOT
ATOM      1  C   UNL     1      50.519   6.665  17.977  0.00  0.00    +0.000 A 
ATOM      2  C   UNL     1      51.131   6.651  16.716  0.00  0.00    +0.000 A 
ATOM      3  C   UNL     1      50.475   7.190  15.604  0.00  0.00    +0.000 A 
ATOM      4  C   UNL     1      49.205   7.768  15.736  0.00  0.00    +0.000 A 
ATOM      5  C   UNL     1      48.585   7.756  16.992  0.00  0.00    +0.000 A 
ATOM      6  C   UNL     1      49.239   7.221  18.102  0.00  0.00    +0.000 A 
ENDROOT
BRANCH   1   7
ATOM      7  C   UNL     1      51.210   6.086  19.188  0.00  0.00    +0.000 C 
BRANCH   7   8
ATOM      8  N   UNL     1      50.612   4.794  19.543  0.00  0.00    +0.000 N 
ATOM      9  H   UNL     1      50.812   4.586  20.524  0.00  0.00    +0.000 HD
BRANCH   8  15
ATOM     10  C   UNL     1      50.115   3.078  17.815  0.00  0.00    +0.000 A 
ATOM     11  C   UNL     1      50.530   1.954  17.075  0.00  0.00    +0.000 A 
ATOM     12  C   UNL     1      51.839   1.485  17.164  0.00  0.00    +0.000 A 
ATOM     13  C   UNL     1      52.749   2.151  17.971  0.00  0.00    +0.000 A 
ATOM     14  C   UNL     1      52.336   3.252  18.729  0.00  0.00    +0.000 A 
ATOM     15  C   UNL     1      51.000   3.699  18.729  0.00  0.00    +0.000 A 
BRANCH  10  17
ATOM     16  N   UNL     1      47.792   3.267  18.532  0.00  0.00    +0.000 N 
ATOM     17  C   UNL     1      48.717   3.533  17.563  0.00  0.00    +0.000 C 
ATOM     18  O   UNL     1      48.413   4.176  16.565  0.00  0.00    +0.000 OA
ATOM     19  H   UNL     1      46.904   3.745  18.451  0.00  0.00    +0.000 HD
ATOM     20  H   UNL     1      48.092   2.977  19.458  0.00  0.00    +0.000 HD
ENDBRANCH  10  17
ENDBRANCH   8  15
ENDBRANCH   7   8
ENDBRANCH   1   7
BRANCH   4  21
ATOM     21  C   UNL     1      48.482   8.339  14.544  0.00  0.00    +0.000 C 
BRANCH  21  22
ATOM     22  N   UNL     1      47.450   7.436  14.107  0.00  0.00    +0.000 N 
ATOM     23  C   UNL     1      47.695   6.429  13.213  0.00  0.00    +0.000 C 
ATOM     24  O   UNL     1      48.816   6.205  12.767  0.00  0.00    +0.000 OA
ATOM     25  H   UNL     1      46.495   7.744  14.256  0.00  0.00    +0.000 HD
BRANCH  23  26
ATOM     26  C   UNL     1      46.544   5.579  12.876  0.00  0.00    +0.000 A 
ATOM     27  C   UNL     1      46.589   4.218  13.139  0.00  0.00    +0.000 A 
ATOM     28  S   UNL     1      45.131   3.405  12.785  0.00  0.00    +0.000 S 
ATOM     29  C   UNL     1      44.408   4.836  12.213  0.00  0.00    +0.000 A 
ATOM     30  N   UNL     1      43.130   4.839  11.748  0.00  0.00    +0.000 NA
ATOM     31  C   UNL     1      42.719   5.985  11.319  0.00  0.00    +0.000 A 
ATOM     32  N   UNL     1      43.475   7.129  11.306  0.00  0.00    +0.000 N 
ATOM     33  C   UNL     1      44.763   7.177  11.776  0.00  0.00    +0.000 A 
ATOM     34  O   UNL     1      45.403   8.225  11.768  0.00  0.00    +0.000 OA
ATOM     35  C   UNL     1      45.269   5.916  12.286  0.00  0.00    +0.000 A 
ATOM     36  H   UNL     1      43.098   7.996  10.951  0.00  0.00    +0.000 HD
ENDBRANCH  23  26
ENDBRANCH  21  22
ENDBRANCH   4  21
TORSDOF 7
ENDMDL
MODEL 7
REMARK VINA RESULT:    -6.878      3.204      7.732
REMARK INTER + INTRA:         -11.105
REMARK INTER:                  -9.077
REMARK INTRA:                  -2.027
REMARK UNBOUND:                -1.412
REMARK  Name = 
REMARK  7 active torsions:
REMARK  status: ('A' for Active; 'I' for Inactive)
REMARK    1  A    between atoms: C_2  and  C_4
REMARK    2  A    between atoms: C_9  and  N_10
REMARK    3  A    between atoms: N_10  and  C_11
REMARK    4  A    between atoms: C_11  and  C_12
REMARK    5  A    between atoms: C_15  and  C_16
REMARK    6  A    between atoms: C_16  and  N_17
REMARK    7  A    between atoms: C_18  and  C_20
REMARK                            x       y       z     vdW  Elec       q    Type
REMARK                         _______ _______ _______ _____ _____    ______ ____
ROOT
ATOM      1  C   UNL     1      47.870   7.810  13.174  0.00  0.00    +0.000 A 
ATOM      2  C   UNL     1      48.952   6.984  13.509  0.00  0.00    +0.000 A 
ATOM      3  C   UNL     1      49.602   7.132  14.738  0.00  0.00    +0.000 A 
ATOM      4  C   UNL     1      49.172   8.095  15.661  0.00  0.00    +0.000 A 
ATOM      5  C   UNL     1      48.109   8.938  15.312  0.00  0.00    +0.000 A 
ATOM      6  C   UNL     1      47.457   8.789  14.088  0.00  0.00    +0.000 A 
ENDROOT
BRANCH   1   7
ATOM      7  C   UNL     1      47.157   7.667  11.851  0.00  0.00    +0.000 C 
BRANCH   7   8
ATOM      8  N   UNL     1      46.895   6.252  11.567  0.00  0.00    +0.000 N 
ATOM      9  H   UNL     1      47.035   6.074  10.569  0.00  0.00    +0.000 HD
BRANCH   8  15
ATOM     10  C   UNL     1      45.448   4.843  13.017  0.00  0.00    +0.000 A 
ATOM     11  C   UNL     1      44.165   4.356  13.334  0.00  0.00    +0.000 A 
ATOM     12  C   UNL     1      43.036   4.843  12.679  0.00  0.00    +0.000 A 
ATOM     13  C   UNL     1      43.176   5.839  11.724  0.00  0.00    +0.000 A 
ATOM     14  C   UNL     1      44.450   6.308  11.386  0.00  0.00    +0.000 A 
ATOM     15  C   UNL     1      45.618   5.776  11.966  0.00  0.00    +0.000 A 
BRANCH  10  17
ATOM     16  N   UNL     1      46.574   4.658  15.172  0.00  0.00    +0.000 N 
ATOM     17  C   UNL     1      46.562   4.309  13.851  0.00  0.00    +0.000 C 
ATOM     18  O   UNL     1      47.400   3.538  13.399  0.00  0.00    +0.000 OA
ATOM     19  H   UNL     1      47.206   4.141  15.769  0.00  0.00    +0.000 HD
ATOM     20  H   UNL     1      45.749   5.070  15.597  0.00  0.00    +0.000 HD
ENDBRANCH  10  17
ENDBRANCH   8  15
ENDBRANCH   7   8
ENDBRANCH   1   7
BRANCH   4  21
ATOM     21  C   UNL     1      49.872   8.275  16.983  0.00  0.00    +0.000 C 
BRANCH  21  22
ATOM     22  N   UNL     1      50.726   7.148  17.253  0.00  0.00    +0.000 N 
ATOM     23  C   UNL     1      50.402   6.194  18.181  0.00  0.00    +0.000 C 
ATOM     24  O   UNL     1      49.344   6.218  18.803  0.00  0.00    +0.000 OA
ATOM     25  H   UNL     1      51.690   7.235  16.950  0.00  0.00    +0.000 HD
BRANCH  23  26
ATOM     26  C   UNL     1      51.365   5.095  18.331  0.00  0.00    +0.000 A 
ATOM     27  C   UNL     1      52.578   5.321  18.967  0.00  0.00    +0.000 A 
ATOM     28  S   UNL     1      53.525   3.914  19.148  0.00  0.00    +0.000 S 
ATOM     29  C   UNL     1      52.373   2.965  18.331  0.00  0.00    +0.000 A 
ATOM     30  N   UNL     1      52.571   1.633  18.138  0.00  0.00    +0.000 NA
ATOM     31  C   UNL     1      51.630   1.043  17.478  0.00  0.00    +0.000 A 
ATOM     32  N   UNL     1      50.511   1.666  16.989  0.00  0.00    +0.000 N 
ATOM     33  C   UNL     1      50.263   3.003  17.171  0.00  0.00    +0.000 A 
ATOM     34  O   UNL     1      49.240   3.524  16.737  0.00  0.00    +0.000 OA
ATOM     35  C   UNL     1      51.284   3.712  17.922  0.00  0.00    +0.000 A 
ATOM     36  H   UNL     1      49.812   1.150  16.474  0.00  0.00    +0.000 HD
ENDBRANCH  23  26
ENDBRANCH  21  22
ENDBRANCH   4  21
TORSDOF 7
ENDMDL
MODEL 8
REMARK VINA RESULT:    -6.746      3.576      8.174
REMARK INTER + INTRA:         -10.919
REMARK INTER:                 -10.684
REMARK INTRA:                  -0.235
REMARK UNBOUND:                -1.412
REMARK  Name = 
REMARK  7 active torsions:
REMARK  status: ('A' for Active; 'I' for Inactive)
REMARK    1  A    between atoms: C_2  and  C_4
REMARK    2  A    between atoms: C_9  and  N_10
REMARK    3  A    between atoms: N_10  and  C_11
REMARK    4  A    between atoms: C_11  and  C_12
REMARK    5  A    between atoms: C_15  and  C_16
REMARK    6  A    between atoms: C_16  and  N_17
REMARK    7  A    between atoms: C_18  and  C_20
REMARK                            x       y       z     vdW  Elec       q    Type
REMARK                         _______ _______ _______ _____ _____    ______ ____
ROOT
ATOM      1  C   UNL     1      45.944   6.131  12.386  0.00  0.00    +0.000 A 
ATOM      2  C   UNL     1      46.463   5.394  13.460  0.00  0.00    +0.000 A 
ATOM      3  C   UNL     1      47.672   5.766  14.056  0.00  0.00    +0.000 A 
ATOM      4  C   UNL     1      48.374   6.892  13.603  0.00  0.00    +0.000 A 
ATOM      5  C   UNL     1      47.868   7.609  12.512  0.00  0.00    +0.000 A 
ATOM      6  C   UNL     1      46.661   7.241  11.918  0.00  0.00    +0.000 A 
ENDROOT
BRANCH   1   7
ATOM      7  C   UNL     1      44.643   5.742  11.727  0.00  0.00    +0.000 C 
BRANCH   7   8
ATOM      8  N   UNL     1      44.770   5.823  10.268  0.00  0.00    +0.000 N 
ATOM      9  H   UNL     1      43.907   6.204   9.872  0.00  0.00    +0.000 HD
BRANCH   8  15
ATOM     10  C   UNL     1      44.641   3.348  10.074  0.00  0.00    +0.000 A 
ATOM     11  C   UNL     1      45.048   2.165   9.428  0.00  0.00    +0.000 A 
ATOM     12  C   UNL     1      45.839   2.213   8.282  0.00  0.00    +0.000 A 
ATOM     13  C   UNL     1      46.205   3.444   7.757  0.00  0.00    +0.000 A 
ATOM     14  C   UNL     1      45.826   4.622   8.409  0.00  0.00    +0.000 A 
ATOM     15  C   UNL     1      45.101   4.606   9.616  0.00  0.00    +0.000 A 
BRANCH  10  17
ATOM     16  N   UNL     1      44.189   2.422  12.284  0.00  0.00    +0.000 N 
ATOM     17  C   UNL     1      43.724   3.164  11.235  0.00  0.00    +0.000 C 
ATOM     18  O   UNL     1      42.625   3.702  11.287  0.00  0.00    +0.000 OA
ATOM     19  H   UNL     1      43.652   2.465  13.140  0.00  0.00    +0.000 HD
ATOM     20  H   UNL     1      45.179   2.204  12.354  0.00  0.00    +0.000 HD
ENDBRANCH  10  17
ENDBRANCH   8  15
ENDBRANCH   7   8
ENDBRANCH   1   7
BRANCH   4  21
ATOM     21  C   UNL     1      49.684   7.296  14.228  0.00  0.00    +0.000 C 
BRANCH  21  22
ATOM     22  N   UNL     1      49.537   7.429  15.654  0.00  0.00    +0.000 N 
ATOM     23  C   UNL     1      50.383   6.809  16.534  0.00  0.00    +0.000 C 
ATOM     24  O   UNL     1      51.344   6.142  16.161  0.00  0.00    +0.000 OA
ATOM     25  H   UNL     1      48.634   7.752  15.982  0.00  0.00    +0.000 HD
BRANCH  23  26
ATOM     26  C   UNL     1      50.116   7.053  17.958  0.00  0.00    +0.000 A 
ATOM     27  C   UNL     1      50.986   7.840  18.700  0.00  0.00    +0.000 A 
ATOM     28  S   UNL     1      50.466   8.106  20.303  0.00  0.00    +0.000 S 
ATOM     29  C   UNL     1      49.090   7.130  20.078  0.00  0.00    +0.000 A 
ATOM     30  N   UNL     1      48.198   6.932  21.086  0.00  0.00    +0.000 NA
ATOM     31  C   UNL     1      47.218   6.147  20.786  0.00  0.00    +0.000 A 
ATOM     32  N   UNL     1      47.051   5.537  19.570  0.00  0.00    +0.000 N 
ATOM     33  C   UNL     1      47.917   5.717  18.520  0.00  0.00    +0.000 A 
ATOM     34  O   UNL     1      47.726   5.171  17.438  0.00  0.00    +0.000 OA
ATOM     35  C   UNL     1      49.031   6.606  18.800  0.00  0.00    +0.000 A 
ATOM     36  H   UNL     1      46.265   4.927  19.397  0.00  0.00    +0.000 HD
ENDBRANCH  23  26
ENDBRANCH  21  22
ENDBRANCH   4  21
TORSDOF 7
ENDMDL
MODEL 9
REMARK VINA RESULT:    -6.613      4.994      7.861
REMARK INTER + INTRA:         -10.731
REMARK INTER:                  -9.335
REMARK INTRA:                  -1.396
REMARK UNBOUND:                -1.412
REMARK  Name = 
REMARK  7 active torsions:
REMARK  status: ('A' for Active; 'I' for Inactive)
REMARK    1  A    between atoms: C_2  and  C_4
REMARK    2  A    between atoms: C_9  and  N_10
REMARK    3  A    between atoms: N_10  and  C_11
REMARK    4  A    between atoms: C_11  and  C_12
REMARK    5  A    between atoms: C_15  and  C_16
REMARK    6  A    between atoms: C_16  and  N_17
REMARK    7  A    between atoms: C_18  and  C_20
REMARK                            x       y       z     vdW  Elec       q    Type
REMARK                         _______ _______ _______ _____ _____    ______ ____
ROOT
ATOM      1  C   UNL     1      47.139   8.409  12.153  0.00  0.00    +0.000 A 
ATOM      2  C   UNL     1      47.908   7.280  11.839  0.00  0.00    +0.000 A 
ATOM      3  C   UNL     1      49.291   7.392  11.657  0.00  0.00    +0.000 A 
ATOM      4  C   UNL     1      49.931   8.630  11.803  0.00  0.00    +0.000 A 
ATOM      5  C   UNL     1      49.156   9.762  12.089  0.00  0.00    +0.000 A 
ATOM      6  C   UNL     1      47.778   9.651  12.274  0.00  0.00    +0.000 A 
ENDROOT
BRANCH   1   7
ATOM      7  C   UNL     1      45.646   8.308  12.350  0.00  0.00    +0.000 C 
BRANCH   7   8
ATOM      8  N   UNL     1      45.327   7.189  13.243  0.00  0.00    +0.000 N 
ATOM      9  H   UNL     1      46.162   6.931  13.775  0.00  0.00    +0.000 HD
BRANCH   8  15
ATOM     10  C   UNL     1      45.305   4.739  12.822  0.00  0.00    +0.000 A 
ATOM     11  C   UNL     1      44.772   3.638  12.124  0.00  0.00    +0.000 A 
ATOM     12  C   UNL     1      43.675   3.794  11.279  0.00  0.00    +0.000 A 
ATOM     13  C   UNL     1      43.085   5.042  11.148  0.00  0.00    +0.000 A 
ATOM     14  C   UNL     1      43.626   6.144  11.819  0.00  0.00    +0.000 A 
ATOM     15  C   UNL     1      44.786   6.039  12.611  0.00  0.00    +0.000 A 
BRANCH  10  17
ATOM     16  N   UNL     1      46.904   3.147  13.747  0.00  0.00    +0.000 N 
ATOM     17  C   UNL     1      46.419   4.425  13.762  0.00  0.00    +0.000 C 
ATOM     18  O   UNL     1      46.930   5.281  14.474  0.00  0.00    +0.000 OA
ATOM     19  H   UNL     1      47.778   2.991  14.232  0.00  0.00    +0.000 HD
ATOM     20  H   UNL     1      46.667   2.521  12.984  0.00  0.00    +0.000 HD
ENDBRANCH  10  17
ENDBRANCH   8  15
ENDBRANCH   7   8
ENDBRANCH   1   7
BRANCH   4  21
ATOM     21  C   UNL     1      51.417   8.768  11.596  0.00  0.00    +0.000 C 
BRANCH  21  22
ATOM     22  N   UNL     1      51.782   8.310  10.281  0.00  0.00    +0.000 N 
ATOM     23  C   UNL     1      52.829   8.855   9.586  0.00  0.00    +0.000 C 
ATOM     24  O   UNL     1      53.546   9.731  10.059  0.00  0.00    +0.000 OA
ATOM     25  H   UNL     1      51.076   7.783   9.780  0.00  0.00    +0.000 HD
BRANCH  23  26
ATOM     26  C   UNL     1      53.089   8.271   8.263  0.00  0.00    +0.000 A 
ATOM     27  C   UNL     1      53.046   9.073   7.132  0.00  0.00    +0.000 A 
ATOM     28  S   UNL     1      53.478   8.255   5.698  0.00  0.00    +0.000 S 
ATOM     29  C   UNL     1      53.681   6.786   6.532  0.00  0.00    +0.000 A 
ATOM     30  N   UNL     1      54.057   5.654   5.877  0.00  0.00    +0.000 NA
ATOM     31  C   UNL     1      54.145   4.607   6.627  0.00  0.00    +0.000 A 
ATOM     32  N   UNL     1      53.885   4.587   7.972  0.00  0.00    +0.000 N 
ATOM     33  C   UNL     1      53.517   5.705   8.677  0.00  0.00    +0.000 A 
ATOM     34  O   UNL     1      53.312   5.655   9.886  0.00  0.00    +0.000 OA
ATOM     35  C   UNL     1      53.419   6.916   7.883  0.00  0.00    +0.000 A 
ATOM     36  H   UNL     1      53.965   3.732   8.505  0.00  0.00    +0.000 HD
ENDBRANCH  23  26
ENDBRANCH  21  22
ENDBRANCH   4  21
TORSDOF 7
ENDMDL
