MODEL 1
REMARK VINA RESULT:    -7.867      0.000      0.000
REMARK INTER + INTRA:         -11.265
REMARK INTER:                 -10.166
REMARK INTRA:                  -1.099
REMARK UNBOUND:                -1.099
REMARK  Name = 
REMARK  6 active torsions:
REMARK  status: ('A' for Active; 'I' for Inactive)
REMARK    1  A    between atoms: C_1  and  C_2
REMARK    2  A    between atoms: C_2  and  N_3
REMARK    3  A    between atoms: C_2  and  C_16
REMARK    4  A    between atoms: C_4  and  C_6
REMARK    5  A    between atoms: C_19  and  C_20
REMARK    6  A    between atoms: C_20  and  N_21
REMARK                            x       y       z     vdW  Elec       q    Type
REMARK                         _______ _______ _______ _____ _____    ______ ____
ROOT
ATOM      1  C   UNL     1      43.620   3.169  10.891  0.00  0.00    +0.000 C 
ATOM      2  C   UNL     1      44.586   4.137  10.199  0.00  0.00    +0.000 C 
ENDROOT
BRANCH   2   3
ATOM      3  C   UNL     1      45.290   3.438   9.043  0.00  0.00    +0.000 A 
ATOM      4  C   UNL     1      45.836   4.175   7.985  0.00  0.00    +0.000 A 
ATOM      5  C   UNL     1      46.544   3.534   6.963  0.00  0.00    +0.000 A 
ATOM      6  C   UNL     1      46.725   2.144   6.981  0.00  0.00    +0.000 A 
ATOM      7  C   UNL     1      46.154   1.402   8.022  0.00  0.00    +0.000 A 
ATOM      8  C   UNL     1      45.445   2.042   9.039  0.00  0.00    +0.000 A 
BRANCH   6   9
ATOM      9  C   UNL     1      47.517   1.453   5.893  0.00  0.00    +0.000 C 
BRANCH   9  10
ATOM     10  N   UNL     1      46.691   0.690   4.930  0.00  0.00    +0.000 NA
ATOM     11  C   UNL     1      46.526   1.439   3.671  0.00  0.00    +0.000 C 
ATOM     12  C   UNL     1      45.797   0.635   2.592  0.00  0.00    +0.000 C 
ATOM     13  C   UNL     1      46.486  -0.698   2.340  0.00  0.00    +0.000 C 
ATOM     14  C   UNL     1      46.597  -1.463   3.650  0.00  0.00    +0.000 C 
ATOM     15  C   UNL     1      47.312  -0.629   4.713  0.00  0.00    +0.000 C 
ENDBRANCH   9  10
ENDBRANCH   6   9
ENDBRANCH   2   3
BRANCH   2  16
ATOM     16  N   UNL     1      45.598   4.679  11.096  0.00  0.00    +0.000 N 
ATOM     17  C   UNL     1      45.743   6.015  11.362  0.00  0.00    +0.000 C 
ATOM     18  O   UNL     1      44.983   6.869  10.915  0.00  0.00    +0.000 OA
ATOM     19  H   UNL     1      46.410   4.084  11.241  0.00  0.00    +0.000 HD
BRANCH  17  20
ATOM     20  C   UNL     1      46.828   6.381  12.281  0.00  0.00    +0.000 A 
ATOM     21  C   UNL     1      47.752   7.344  11.900  0.00  0.00    +0.000 A 
ATOM     22  S   UNL     1      48.941   7.659  13.081  0.00  0.00    +0.000 S 
ATOM     23  C   UNL     1      48.289   6.489  14.129  0.00  0.00    +0.000 A 
ATOM     24  N   UNL     1      48.871   6.220  15.328  0.00  0.00    +0.000 NA
ATOM     25  C   UNL     1      48.289   5.290  16.007  0.00  0.00    +0.000 A 
ATOM     26  N   UNL     1      47.168   4.612  15.601  0.00  0.00    +0.000 N 
ATOM     27  C   UNL     1      46.523   4.877  14.417  0.00  0.00    +0.000 A 
ATOM     28  O   UNL     1      45.483   4.301  14.113  0.00  0.00    +0.000 OA
ATOM     29  C   UNL     1      47.158   5.891  13.598  0.00  0.00    +0.000 A 
ATOM     30  H   UNL     1      46.750   3.906  16.188  0.00  0.00    +0.000 HD
ENDBRANCH  17  20
ENDBRANCH   2  16
TORSDOF 5
ENDMDL
MODEL 2
REMARK VINA RESULT:    -7.238      3.648      6.033
REMARK INTER + INTRA:         -10.453
REMARK INTER:                  -9.921
REMARK INTRA:                  -0.532
REMARK UNBOUND:                -1.099
REMARK  Name = 
REMARK  6 active torsions:
REMARK  status: ('A' for Active; 'I' for Inactive)
REMARK    1  A    between atoms: C_1  and  C_2
REMARK    2  A    between atoms: C_2  and  N_3
REMARK    3  A    between atoms: C_2  and  C_16
REMARK    4  A    between atoms: C_4  and  C_6
REMARK    5  A    between atoms: C_19  and  C_20
REMARK    6  A    between atoms: C_20  and  N_21
REMARK                            x       y       z     vdW  Elec       q    Type
REMARK                         _______ _______ _______ _____ _____    ______ ____
ROOT
ATOM      1  C   UNL     1      49.175   7.879  13.154  0.00  0.00    +0.000 C 
ATOM      2  C   UNL     1      48.565   6.641  13.820  0.00  0.00    +0.000 C 
ENDROOT
BRANCH   2   3
ATOM      3  C   UNL     1      47.282   6.239  13.105  0.00  0.00    +0.000 A 
ATOM      4  C   UNL     1      46.718   7.066  12.127  0.00  0.00    +0.000 A 
ATOM      5  C   UNL     1      45.580   6.659  11.422  0.00  0.00    +0.000 A 
ATOM      6  C   UNL     1      44.987   5.414  11.676  0.00  0.00    +0.000 A 
ATOM      7  C   UNL     1      45.533   4.599  12.675  0.00  0.00    +0.000 A 
ATOM      8  C   UNL     1      46.666   5.006  13.380  0.00  0.00    +0.000 A 
BRANCH   6   9
ATOM      9  C   UNL     1      43.776   4.960  10.893  0.00  0.00    +0.000 C 
BRANCH   9  10
ATOM     10  N   UNL     1      44.092   4.106   9.724  0.00  0.00    +0.000 NA
ATOM     11  C   UNL     1      45.285   4.604   9.018  0.00  0.00    +0.000 C 
ATOM     12  C   UNL     1      45.736   3.679   7.885  0.00  0.00    +0.000 C 
ATOM     13  C   UNL     1      45.960   2.262   8.390  0.00  0.00    +0.000 C 
ATOM     14  C   UNL     1      44.695   1.763   9.071  0.00  0.00    +0.000 C 
ATOM     15  C   UNL     1      44.259   2.716  10.184  0.00  0.00    +0.000 C 
ENDBRANCH   9  10
ENDBRANCH   6   9
ENDBRANCH   2   3
BRANCH   2  16
ATOM     16  N   UNL     1      48.266   6.838  15.232  0.00  0.00    +0.000 N 
ATOM     17  C   UNL     1      49.156   6.585  16.242  0.00  0.00    +0.000 C 
ATOM     18  O   UNL     1      50.314   6.232  16.036  0.00  0.00    +0.000 OA
ATOM     19  H   UNL     1      47.277   6.827  15.469  0.00  0.00    +0.000 HD
BRANCH  17  20
ATOM     20  C   UNL     1      48.676   6.825  17.608  0.00  0.00    +0.000 A 
ATOM     21  C   UNL     1      48.268   8.100  17.976  0.00  0.00    +0.000 A 
ATOM     22  S   UNL     1      47.730   8.210  19.591  0.00  0.00    +0.000 S 
ATOM     23  C   UNL     1      48.063   6.565  19.871  0.00  0.00    +0.000 A 
ATOM     24  N   UNL     1      47.862   6.009  21.095  0.00  0.00    +0.000 NA
ATOM     25  C   UNL     1      48.184   4.761  21.173  0.00  0.00    +0.000 A 
ATOM     26  N   UNL     1      48.676   4.015  20.133  0.00  0.00    +0.000 N 
ATOM     27  C   UNL     1      48.858   4.524  18.869  0.00  0.00    +0.000 A 
ATOM     28  O   UNL     1      49.235   3.814  17.942  0.00  0.00    +0.000 OA
ATOM     29  C   UNL     1      48.545   5.934  18.735  0.00  0.00    +0.000 A 
ATOM     30  H   UNL     1      48.892   3.037  20.254  0.00  0.00    +0.000 HD
ENDBRANCH  17  20
ENDBRANCH   2  16
TORSDOF 5
ENDMDL
MODEL 3
REMARK VINA RESULT:    -7.226      2.358      4.023
REMARK INTER + INTRA:         -10.437
REMARK INTER:                  -9.360
REMARK INTRA:                  -1.077
REMARK UNBOUND:                -1.099
REMARK  Name = 
REMARK  6 active torsions:
REMARK  status: ('A' for Active; 'I' for Inactive)
REMARK    1  A    between atoms: C_1  and  C_2
REMARK    2  A    between atoms: C_2  and  N_3
REMARK    3  A    between atoms: C_2  and  C_16
REMARK    4  A    between atoms: C_4  and  C_6
REMARK    5  A    between atoms: C_19  and  C_20
REMARK    6  A    between atoms: C_20  and  N_21
REMARK                            x       y       z     vdW  Elec       q    Type
REMARK                         _______ _______ _______ _____ _____    ______ ____
ROOT
ATOM      1  C   UNL     1      44.980   8.880  12.760  0.00  0.00    +0.000 C 
ATOM      2  C   UNL     1      46.191   7.988  12.462  0.00  0.00    +0.000 C 
ENDROOT
BRANCH   2   3
ATOM      3  C   UNL     1      45.785   6.842  11.545  0.00  0.00    +0.000 A 
ATOM      4  C   UNL     1      46.487   6.588  10.360  0.00  0.00    +0.000 A 
ATOM      5  C   UNL     1      46.155   5.491   9.558  0.00  0.00    +0.000 A 
ATOM      6  C   UNL     1      45.119   4.622   9.927  0.00  0.00    +0.000 A 
ATOM      7  C   UNL     1      44.395   4.891  11.095  0.00  0.00    +0.000 A 
ATOM      8  C   UNL     1      44.725   5.988  11.894  0.00  0.00    +0.000 A 
BRANCH   6   9
ATOM      9  C   UNL     1      44.780   3.417   9.077  0.00  0.00    +0.000 C 
BRANCH   9  10
ATOM     10  N   UNL     1      45.935   2.839   8.352  0.00  0.00    +0.000 NA
ATOM     11  C   UNL     1      45.882   1.367   8.369  0.00  0.00    +0.000 C 
ATOM     12  C   UNL     1      46.977   0.722   7.516  0.00  0.00    +0.000 C 
ATOM     13  C   UNL     1      46.941   1.247   6.089  0.00  0.00    +0.000 C 
ATOM     14  C   UNL     1      47.046   2.764   6.107  0.00  0.00    +0.000 C 
ATOM     15  C   UNL     1      45.952   3.378   6.981  0.00  0.00    +0.000 C 
ENDBRANCH   9  10
ENDBRANCH   6   9
ENDBRANCH   2   3
BRANCH   2  16
ATOM     16  N   UNL     1      46.800   7.428  13.660  0.00  0.00    +0.000 N 
ATOM     17  C   UNL     1      48.126   7.095  13.756  0.00  0.00    +0.000 C 
ATOM     18  O   UNL     1      48.932   7.306  12.855  0.00  0.00    +0.000 OA
ATOM     19  H   UNL     1      46.156   6.963  14.295  0.00  0.00    +0.000 HD
BRANCH  17  20
ATOM     20  C   UNL     1      48.562   6.526  15.038  0.00  0.00    +0.000 A 
ATOM     21  C   UNL     1      49.587   7.139  15.745  0.00  0.00    +0.000 A 
ATOM     22  S   UNL     1      49.967   6.361  17.214  0.00  0.00    +0.000 S 
ATOM     23  C   UNL     1      48.804   5.151  16.938  0.00  0.00    +0.000 A 
ATOM     24  N   UNL     1      48.637   4.126  17.816  0.00  0.00    +0.000 NA
ATOM     25  C   UNL     1      47.742   3.265  17.467  0.00  0.00    +0.000 A 
ATOM     26  N   UNL     1      46.986   3.343  16.325  0.00  0.00    +0.000 N 
ATOM     27  C   UNL     1      47.091   4.381  15.430  0.00  0.00    +0.000 A 
ATOM     28  O   UNL     1      46.353   4.459  14.453  0.00  0.00    +0.000 OA
ATOM     29  C   UNL     1      48.110   5.360  15.757  0.00  0.00    +0.000 A 
ATOM     30  H   UNL     1      46.288   2.645  16.118  0.00  0.00    +0.000 HD
ENDBRANCH  17  20
ENDBRANCH   2  16
TORSDOF 5
ENDMDL
MODEL 4
REMARK VINA RESULT:    -7.020      5.062     11.864
REMARK INTER + INTRA:         -10.171
REMARK INTER:                  -9.089
REMARK INTRA:                  -1.082
REMARK UNBOUND:                -1.099
REMARK  Name = 
REMARK  6 active torsions:
REMARK  status: ('A' for Active; 'I' for Inactive)
REMARK    1  A    between atoms: C_1  and  C_2
REMARK    2  A    between atoms: C_2  and  N_3
REMARK    3  A    between atoms: C_2  and  C_16
REMARK    4  A    between atoms: C_4  and  C_6
REMARK    5  A    between atoms: C_19  and  C_20
REMARK    6  A    between atoms: C_20  and  N_21
REMARK                            x       y       z     vdW  Elec       q    Type
REMARK                         _______ _______ _______ _____ _____    ______ ____
ROOT
ATOM      1  C   UNL     1      47.778   3.153  16.825  0.00  0.00    +0.000 C 
ATOM      2  C   UNL     1      48.033   4.546  16.237  0.00  0.00    +0.000 C 
ENDROOT
BRANCH   2   3
ATOM      3  C   UNL     1      47.976   5.597  17.338  0.00  0.00    +0.000 A 
ATOM      4  C   UNL     1      47.246   5.369  18.510  0.00  0.00    +0.000 A 
ATOM      5  C   UNL     1      47.257   6.307  19.548  0.00  0.00    +0.000 A 
ATOM      6  C   UNL     1      48.002   7.489  19.437  0.00  0.00    +0.000 A 
ATOM      7  C   UNL     1      48.708   7.734  18.252  0.00  0.00    +0.000 A 
ATOM      8  C   UNL     1      48.695   6.799  17.216  0.00  0.00    +0.000 A 
BRANCH   6   9
ATOM      9  C   UNL     1      48.039   8.490  20.571  0.00  0.00    +0.000 C 
BRANCH   9  10
ATOM     10  N   UNL     1      46.832   9.342  20.671  0.00  0.00    +0.000 NA
ATOM     11  C   UNL     1      46.488   9.602  22.080  0.00  0.00    +0.000 C 
ATOM     12  C   UNL     1      45.331  10.592  22.237  0.00  0.00    +0.000 C 
ATOM     13  C   UNL     1      45.618  11.893  21.502  0.00  0.00    +0.000 C 
ATOM     14  C   UNL     1      45.921  11.591  20.043  0.00  0.00    +0.000 C 
ATOM     15  C   UNL     1      47.067  10.587  19.918  0.00  0.00    +0.000 C 
ENDBRANCH   9  10
ENDBRANCH   6   9
ENDBRANCH   2   3
BRANCH   2  16
ATOM     16  N   UNL     1      47.081   4.913  15.197  0.00  0.00    +0.000 N 
ATOM     17  C   UNL     1      47.426   5.577  14.049  0.00  0.00    +0.000 C 
ATOM     18  O   UNL     1      48.586   5.860  13.768  0.00  0.00    +0.000 OA
ATOM     19  H   UNL     1      46.113   4.981  15.502  0.00  0.00    +0.000 HD
BRANCH  17  20
ATOM     20  C   UNL     1      46.331   5.879  13.119  0.00  0.00    +0.000 A 
ATOM     21  C   UNL     1      46.050   7.199  12.798  0.00  0.00    +0.000 A 
ATOM     22  S   UNL     1      44.757   7.378  11.700  0.00  0.00    +0.000 S 
ATOM     23  C   UNL     1      44.497   5.698  11.647  0.00  0.00    +0.000 A 
ATOM     24  N   UNL     1      43.488   5.169  10.906  0.00  0.00    +0.000 NA
ATOM     25  C   UNL     1      43.388   3.884  10.981  0.00  0.00    +0.000 A 
ATOM     26  N   UNL     1      44.216   3.078  11.719  0.00  0.00    +0.000 N 
ATOM     27  C   UNL     1      45.274   3.564  12.451  0.00  0.00    +0.000 A 
ATOM     28  O   UNL     1      46.039   2.812  13.045  0.00  0.00    +0.000 OA
ATOM     29  C   UNL     1      45.409   5.008  12.430  0.00  0.00    +0.000 A 
ATOM     30  H   UNL     1      44.096   2.076  11.722  0.00  0.00    +0.000 HD
ENDBRANCH  17  20
ENDBRANCH   2  16
TORSDOF 5
ENDMDL
MODEL 5
REMARK VINA RESULT:    -6.858      2.481      4.152
REMARK INTER + INTRA:          -9.962
REMARK INTER:                  -9.164
REMARK INTRA:                  -0.798
REMARK UNBOUND:                -1.099
REMARK  Name = 
REMARK  6 active torsions:
REMARK  status: ('A' for Active; 'I' for Inactive)
REMARK    1  A    between atoms: C_1  and  C_2
REMARK    2  A    between atoms: C_2  and  N_3
REMARK    3  A    between atoms: C_2  and  C_16
REMARK    4  A    between atoms: C_4  and  C_6
REMARK    5  A    between atoms: C_19  and  C_20
REMARK    6  A    between atoms: C_20  and  N_21
REMARK                            x       y       z     vdW  Elec       q    Type
REMARK                         _______ _______ _______ _____ _____    ______ ____
ROOT
ATOM      1  C   UNL     1      45.154   8.494  12.540  0.00  0.00    +0.000 C 
ATOM      2  C   UNL     1      46.255   7.434  12.413  0.00  0.00    +0.000 C 
ENDROOT
BRANCH   2   3
ATOM      3  C   UNL     1      45.860   6.390  11.377  0.00  0.00    +0.000 A 
ATOM      4  C   UNL     1      46.419   6.407  10.093  0.00  0.00    +0.000 A 
ATOM      5  C   UNL     1      46.108   5.404   9.169  0.00  0.00    +0.000 A 
ATOM      6  C   UNL     1      45.237   4.360   9.512  0.00  0.00    +0.000 A 
ATOM      7  C   UNL     1      44.653   4.358  10.784  0.00  0.00    +0.000 A 
ATOM      8  C   UNL     1      44.961   5.361  11.705  0.00  0.00    +0.000 A 
BRANCH   6   9
ATOM      9  C   UNL     1      44.925   3.258   8.524  0.00  0.00    +0.000 C 
BRANCH   9  10
ATOM     10  N   UNL     1      46.118   2.669   7.872  0.00  0.00    +0.000 NA
ATOM     11  C   UNL     1      46.130   1.203   8.026  0.00  0.00    +0.000 C 
ATOM     12  C   UNL     1      47.268   0.533   7.252  0.00  0.00    +0.000 C 
ATOM     13  C   UNL     1      47.233   0.921   5.781  0.00  0.00    +0.000 C 
ATOM     14  C   UNL     1      47.269   2.436   5.658  0.00  0.00    +0.000 C 
ATOM     15  C   UNL     1      46.134   3.078   6.456  0.00  0.00    +0.000 C 
ENDBRANCH   9  10
ENDBRANCH   6   9
ENDBRANCH   2   3
BRANCH   2  16
ATOM     16  N   UNL     1      46.544   6.754  13.668  0.00  0.00    +0.000 N 
ATOM     17  C   UNL     1      47.666   5.998  13.883  0.00  0.00    +0.000 C 
ATOM     18  O   UNL     1      48.561   5.884  13.051  0.00  0.00    +0.000 OA
ATOM     19  H   UNL     1      45.734   6.563  14.253  0.00  0.00    +0.000 HD
BRANCH  17  20
ATOM     20  C   UNL     1      47.785   5.372  15.206  0.00  0.00    +0.000 A 
ATOM     21  C   UNL     1      47.198   4.135  15.433  0.00  0.00    +0.000 A 
ATOM     22  S   UNL     1      47.435   3.543  17.015  0.00  0.00    +0.000 S 
ATOM     23  C   UNL     1      48.294   4.940  17.468  0.00  0.00    +0.000 A 
ATOM     24  N   UNL     1      48.757   5.098  18.736  0.00  0.00    +0.000 NA
ATOM     25  C   UNL     1      49.364   6.216  18.948  0.00  0.00    +0.000 A 
ATOM     26  N   UNL     1      49.563   7.188  18.001  0.00  0.00    +0.000 N 
ATOM     27  C   UNL     1      49.150   7.056  16.696  0.00  0.00    +0.000 A 
ATOM     28  O   UNL     1      49.403   7.912  15.856  0.00  0.00    +0.000 OA
ATOM     29  C   UNL     1      48.428   5.829  16.414  0.00  0.00    +0.000 A 
ATOM     30  H   UNL     1      50.063   8.035  18.225  0.00  0.00    +0.000 HD
ENDBRANCH  17  20
ENDBRANCH   2  16
TORSDOF 5
ENDMDL
MODEL 6
REMARK VINA RESULT:    -6.704      3.678     10.550
REMARK INTER + INTRA:          -9.764
REMARK INTER:                  -8.692
REMARK INTRA:                  -1.072
REMARK UNBOUND:                -1.099
REMARK  Name = 
REMARK  6 active torsions:
REMARK  status: ('A' for Active; 'I' for Inactive)
REMARK    1  A    between atoms: C_1  and  C_2
REMARK    2  A    between atoms: C_2  and  N_3
REMARK    3  A    between atoms: C_2  and  C_16
REMARK    4  A    between atoms: C_4  and  C_6
REMARK    5  A    between atoms: C_19  and  C_20
REMARK    6  A    between atoms: C_20  and  N_21
REMARK                            x       y       z     vdW  Elec       q    Type
REMARK                         _______ _______ _______ _____ _____    ______ ____
ROOT
ATOM      1  C   UNL     1      49.040   7.809  11.547  0.00  0.00    +0.000 C 
ATOM      2  C   UNL     1      47.739   7.727  12.352  0.00  0.00    +0.000 C 
ENDROOT
BRANCH   2   3
ATOM      3  C   UNL     1      48.045   7.726  13.844  0.00  0.00    +0.000 A 
ATOM      4  C   UNL     1      48.531   6.575  14.476  0.00  0.00    +0.000 A 
ATOM      5  C   UNL     1      48.880   6.601  15.831  0.00  0.00    +0.000 A 
ATOM      6  C   UNL     1      48.755   7.779  16.580  0.00  0.00    +0.000 A 
ATOM      7  C   UNL     1      48.240   8.923  15.958  0.00  0.00    +0.000 A 
ATOM      8  C   UNL     1      47.890   8.896  14.607  0.00  0.00    +0.000 A 
BRANCH   6   9
ATOM      9  C   UNL     1      49.161   7.816  18.036  0.00  0.00    +0.000 C 
BRANCH   9  10
ATOM     10  N   UNL     1      48.554   6.749  18.865  0.00  0.00    +0.000 NA
ATOM     11  C   UNL     1      49.570   5.765  19.279  0.00  0.00    +0.000 C 
ATOM     12  C   UNL     1      49.022   4.717  20.251  0.00  0.00    +0.000 C 
ATOM     13  C   UNL     1      48.383   5.376  21.464  0.00  0.00    +0.000 C 
ATOM     14  C   UNL     1      47.309   6.348  21.002  0.00  0.00    +0.000 C 
ATOM     15  C   UNL     1      47.881   7.370  20.019  0.00  0.00    +0.000 C 
ENDBRANCH   9  10
ENDBRANCH   6   9
ENDBRANCH   2   3
BRANCH   2  16
ATOM     16  N   UNL     1      46.946   6.545  12.043  0.00  0.00    +0.000 N 
ATOM     17  C   UNL     1      45.576   6.514  12.084  0.00  0.00    +0.000 C 
ATOM     18  O   UNL     1      44.896   7.508  12.322  0.00  0.00    +0.000 OA
ATOM     19  H   UNL     1      47.435   5.659  12.141  0.00  0.00    +0.000 HD
BRANCH  17  20
ATOM     20  C   UNL     1      44.945   5.230  11.757  0.00  0.00    +0.000 A 
ATOM     21  C   UNL     1      44.222   4.555  12.730  0.00  0.00    +0.000 A 
ATOM     22  S   UNL     1      43.546   3.086  12.187  0.00  0.00    +0.000 S 
ATOM     23  C   UNL     1      44.231   3.278  10.642  0.00  0.00    +0.000 A 
ATOM     24  N   UNL     1      44.069   2.331   9.681  0.00  0.00    +0.000 NA
ATOM     25  C   UNL     1      44.667   2.591   8.568  0.00  0.00    +0.000 A 
ATOM     26  N   UNL     1      45.402   3.723   8.323  0.00  0.00    +0.000 N 
ATOM     27  C   UNL     1      45.560   4.726   9.249  0.00  0.00    +0.000 A 
ATOM     28  O   UNL     1      46.166   5.758   8.977  0.00  0.00    +0.000 OA
ATOM     29  C   UNL     1      44.936   4.466  10.533  0.00  0.00    +0.000 A 
ATOM     30  H   UNL     1      45.831   3.877   7.423  0.00  0.00    +0.000 HD
ENDBRANCH  17  20
ENDBRANCH   2  16
TORSDOF 5
ENDMDL
MODEL 7
REMARK VINA RESULT:    -6.590      5.935      8.779
REMARK INTER + INTRA:          -9.616
REMARK INTER:                  -8.369
REMARK INTRA:                  -1.247
REMARK UNBOUND:                -1.099
REMARK  Name = 
REMARK  6 active torsions:
REMARK  status: ('A' for Active; 'I' for Inactive)
REMARK    1  A    between atoms: C_1  and  C_2
REMARK    2  A    between atoms: C_2  and  N_3
REMARK    3  A    between atoms: C_2  and  C_16
REMARK    4  A    between atoms: C_4  and  C_6
REMARK    5  A    between atoms: C_19  and  C_20
REMARK    6  A    between atoms: C_20  and  N_21
REMARK                            x       y       z     vdW  Elec       q    Type
REMARK                         _______ _______ _______ _____ _____    ______ ____
ROOT
ATOM      1  C   UNL     1      47.894   6.007  19.278  0.00  0.00    +0.000 C 
ATOM      2  C   UNL     1      49.032   6.076  18.253  0.00  0.00    +0.000 C 
ENDROOT
BRANCH   2   3
ATOM      3  C   UNL     1      48.495   5.792  16.856  0.00  0.00    +0.000 A 
ATOM      4  C   UNL     1      47.675   4.684  16.614  0.00  0.00    +0.000 A 
ATOM      5  C   UNL     1      47.127   4.468  15.345  0.00  0.00    +0.000 A 
ATOM      6  C   UNL     1      47.382   5.360  14.294  0.00  0.00    +0.000 A 
ATOM      7  C   UNL     1      48.227   6.453  14.526  0.00  0.00    +0.000 A 
ATOM      8  C   UNL     1      48.776   6.665  15.791  0.00  0.00    +0.000 A 
BRANCH   6   9
ATOM      9  C   UNL     1      46.764   5.146  12.930  0.00  0.00    +0.000 C 
BRANCH   9  10
ATOM     10  N   UNL     1      45.345   4.723  12.965  0.00  0.00    +0.000 NA
ATOM     11  C   UNL     1      44.466   5.794  12.463  0.00  0.00    +0.000 C 
ATOM     12  C   UNL     1      43.003   5.358  12.347  0.00  0.00    +0.000 C 
ATOM     13  C   UNL     1      42.869   4.106  11.494  0.00  0.00    +0.000 C 
ATOM     14  C   UNL     1      43.752   3.008  12.067  0.00  0.00    +0.000 C 
ATOM     15  C   UNL     1      45.202   3.478  12.188  0.00  0.00    +0.000 C 
ENDBRANCH   9  10
ENDBRANCH   6   9
ENDBRANCH   2   3
BRANCH   2  16
ATOM     16  N   UNL     1      50.113   5.141  18.532  0.00  0.00    +0.000 N 
ATOM     17  C   UNL     1      51.424   5.374  18.206  0.00  0.00    +0.000 C 
ATOM     18  O   UNL     1      51.808   6.428  17.709  0.00  0.00    +0.000 OA
ATOM     19  H   UNL     1      49.827   4.172  18.649  0.00  0.00    +0.000 HD
BRANCH  17  20
ATOM     20  C   UNL     1      52.378   4.312  18.549  0.00  0.00    +0.000 A 
ATOM     21  C   UNL     1      53.502   4.618  19.301  0.00  0.00    +0.000 A 
ATOM     22  S   UNL     1      54.502   3.274  19.620  0.00  0.00    +0.000 S 
ATOM     23  C   UNL     1      53.490   2.240  18.727  0.00  0.00    +0.000 A 
ATOM     24  N   UNL     1      53.799   0.926  18.564  0.00  0.00    +0.000 NA
ATOM     25  C   UNL     1      52.959   0.266  17.840  0.00  0.00    +0.000 A 
ATOM     26  N   UNL     1      51.829   0.798  17.274  0.00  0.00    +0.000 N 
ATOM     27  C   UNL     1      51.454   2.110  17.445  0.00  0.00    +0.000 A 
ATOM     28  O   UNL     1      50.402   2.539  16.984  0.00  0.00    +0.000 OA
ATOM     29  C   UNL     1      52.384   2.906  18.223  0.00  0.00    +0.000 A 
ATOM     30  H   UNL     1      51.201   0.223  16.732  0.00  0.00    +0.000 HD
ENDBRANCH  17  20
ENDBRANCH   2  16
TORSDOF 5
ENDMDL
MODEL 8
REMARK VINA RESULT:    -6.523      4.546     10.453
REMARK INTER + INTRA:          -9.528
REMARK INTER:                  -8.594
REMARK INTRA:                  -0.934
REMARK UNBOUND:                -1.099
REMARK  Name = 
REMARK  6 active torsions:
REMARK  status: ('A' for Active; 'I' for Inactive)
REMARK    1  A    between atoms: C_1  and  C_2
REMARK    2  A    between atoms: C_2  and  N_3
REMARK    3  A    between atoms: C_2  and  C_16
REMARK    4  A    between atoms: C_4  and  C_6
REMARK    5  A    between atoms: C_19  and  C_20
REMARK    6  A    between atoms: C_20  and  N_21
REMARK                            x       y       z     vdW  Elec       q    Type
REMARK                         _______ _______ _______ _____ _____    ______ ____
ROOT
ATOM      1  C   UNL     1      49.801   7.855  12.174  0.00  0.00    +0.000 C 
ATOM      2  C   UNL     1      48.489   7.480  12.873  0.00  0.00    +0.000 C 
ENDROOT
BRANCH   2   3
ATOM      3  C   UNL     1      48.776   6.912  14.257  0.00  0.00    +0.000 A 
ATOM      4  C   UNL     1      49.816   7.427  15.041  0.00  0.00    +0.000 A 
ATOM      5  C   UNL     1      50.029   6.951  16.339  0.00  0.00    +0.000 A 
ATOM      6  C   UNL     1      49.204   5.956  16.881  0.00  0.00    +0.000 A 
ATOM      7  C   UNL     1      48.183   5.418  16.088  0.00  0.00    +0.000 A 
ATOM      8  C   UNL     1      47.973   5.891  14.792  0.00  0.00    +0.000 A 
BRANCH   6   9
ATOM      9  C   UNL     1      49.414   5.463  18.296  0.00  0.00    +0.000 C 
BRANCH   9  10
ATOM     10  N   UNL     1      48.400   5.940  19.264  0.00  0.00    +0.000 NA
ATOM     11  C   UNL     1      48.434   5.136  20.498  0.00  0.00    +0.000 C 
ATOM     12  C   UNL     1      47.500   5.675  21.585  0.00  0.00    +0.000 C 
ATOM     13  C   UNL     1      47.794   7.137  21.886  0.00  0.00    +0.000 C 
ATOM     14  C   UNL     1      47.705   7.943  20.600  0.00  0.00    +0.000 C 
ATOM     15  C   UNL     1      48.632   7.371  19.528  0.00  0.00    +0.000 C 
ENDBRANCH   9  10
ENDBRANCH   6   9
ENDBRANCH   2   3
BRANCH   2  16
ATOM     16  N   UNL     1      47.700   6.508  12.129  0.00  0.00    +0.000 N 
ATOM     17  C   UNL     1      46.410   6.727  11.721  0.00  0.00    +0.000 C 
ATOM     18  O   UNL     1      45.830   7.795  11.892  0.00  0.00    +0.000 OA
ATOM     19  H   UNL     1      48.000   5.542  12.228  0.00  0.00    +0.000 HD
BRANCH  17  20
ATOM     20  C   UNL     1      45.762   5.627  10.995  0.00  0.00    +0.000 A 
ATOM     21  C   UNL     1      45.845   5.579   9.611  0.00  0.00    +0.000 A 
ATOM     22  S   UNL     1      45.050   4.236   8.922  0.00  0.00    +0.000 S 
ATOM     23  C   UNL     1      44.528   3.694  10.447  0.00  0.00    +0.000 A 
ATOM     24  N   UNL     1      43.748   2.587  10.568  0.00  0.00    +0.000 NA
ATOM     25  C   UNL     1      43.402   2.307  11.779  0.00  0.00    +0.000 A 
ATOM     26  N   UNL     1      43.777   3.027  12.884  0.00  0.00    +0.000 N 
ATOM     27  C   UNL     1      44.597   4.128  12.816  0.00  0.00    +0.000 A 
ATOM     28  O   UNL     1      44.971   4.711  13.828  0.00  0.00    +0.000 OA
ATOM     29  C   UNL     1      44.986   4.507  11.471  0.00  0.00    +0.000 A 
ATOM     30  H   UNL     1      43.487   2.745  13.809  0.00  0.00    +0.000 HD
ENDBRANCH  17  20
ENDBRANCH   2  16
TORSDOF 5
ENDMDL
MODEL 9
REMARK VINA RESULT:    -6.402      4.517      9.712
REMARK INTER + INTRA:          -9.373
REMARK INTER:                  -8.604
REMARK INTRA:                  -0.769
REMARK UNBOUND:                -1.099
REMARK  Name = 
REMARK  6 active torsions:
REMARK  status: ('A' for Active; 'I' for Inactive)
REMARK    1  A    between atoms: C_1  and  C_2
REMARK    2  A    between atoms: C_2  and  N_3
REMARK    3  A    between atoms: C_2  and  C_16
REMARK    4  A    between atoms: C_4  and  C_6
REMARK    5  A    between atoms: C_19  and  C_20
REMARK    6  A    between atoms: C_20  and  N_21
REMARK                            x       y       z     vdW  Elec       q    Type
REMARK                         _______ _______ _______ _____ _____    ______ ____
ROOT
ATOM      1  C   UNL     1      49.653   7.463  12.852  0.00  0.00    +0.000 C 
ATOM      2  C   UNL     1      48.246   7.186  13.395  0.00  0.00    +0.000 C 
ENDROOT
BRANCH   2   3
ATOM      3  C   UNL     1      48.332   6.606  14.801  0.00  0.00    +0.000 A 
ATOM      4  C   UNL     1      47.738   5.375  15.105  0.00  0.00    +0.000 A 
ATOM      5  C   UNL     1      47.882   4.812  16.379  0.00  0.00    +0.000 A 
ATOM      6  C   UNL     1      48.626   5.466  17.370  0.00  0.00    +0.000 A 
ATOM      7  C   UNL     1      49.195   6.712  17.077  0.00  0.00    +0.000 A 
ATOM      8  C   UNL     1      49.049   7.274  15.808  0.00  0.00    +0.000 A 
BRANCH   6   9
ATOM      9  C   UNL     1      48.808   4.844  18.737  0.00  0.00    +0.000 C 
BRANCH   9  10
ATOM     10  N   UNL     1      50.049   4.049  18.884  0.00  0.00    +0.000 NA
ATOM     11  C   UNL     1      50.374   3.347  17.630  0.00  0.00    +0.000 C 
ATOM     12  C   UNL     1      51.721   2.622  17.685  0.00  0.00    +0.000 C 
ATOM     13  C   UNL     1      52.841   3.575  18.076  0.00  0.00    +0.000 C 
ATOM     14  C   UNL     1      52.495   4.245  19.396  0.00  0.00    +0.000 C 
ATOM     15  C   UNL     1      51.137   4.944  19.316  0.00  0.00    +0.000 C 
ENDBRANCH   9  10
ENDBRANCH   6   9
ENDBRANCH   2   3
BRANCH   2  16
ATOM     16  N   UNL     1      47.480   6.269  12.562  0.00  0.00    +0.000 N 
ATOM     17  C   UNL     1      46.440   6.658  11.759  0.00  0.00    +0.000 C 
ATOM     18  O   UNL     1      46.109   7.831  11.621  0.00  0.00    +0.000 OA
ATOM     19  H   UNL     1      47.502   5.296  12.858  0.00  0.00    +0.000 HD
BRANCH  17  20
ATOM     20  C   UNL     1      45.771   5.593  11.001  0.00  0.00    +0.000 A 
ATOM     21  C   UNL     1      45.869   5.573   9.616  0.00  0.00    +0.000 A 
ATOM     22  S   UNL     1      45.045   4.269   8.889  0.00  0.00    +0.000 S 
ATOM     23  C   UNL     1      44.490   3.708  10.396  0.00  0.00    +0.000 A 
ATOM     24  N   UNL     1      43.679   2.621  10.482  0.00  0.00    +0.000 NA
ATOM     25  C   UNL     1      43.310   2.324  11.683  0.00  0.00    +0.000 A 
ATOM     26  N   UNL     1      43.693   3.008  12.808  0.00  0.00    +0.000 N 
ATOM     27  C   UNL     1      44.543   4.087  12.774  0.00  0.00    +0.000 A 
ATOM     28  O   UNL     1      44.922   4.636  13.803  0.00  0.00    +0.000 OA
ATOM     29  C   UNL     1      44.959   4.485  11.442  0.00  0.00    +0.000 A 
ATOM     30  H   UNL     1      43.384   2.714  13.723  0.00  0.00    +0.000 HD
ENDBRANCH  17  20
ENDBRANCH   2  16
TORSDOF 5
ENDMDL
