MODEL 1
REMARK VINA RESULT:    -8.190      0.000      0.000
REMARK INTER + INTRA:         -12.797
REMARK INTER:                 -11.542
REMARK INTRA:                  -1.255
REMARK UNBOUND:                -1.255
REMARK  Name = 
REMARK  7 active torsions:
REMARK  status: ('A' for Active; 'I' for Inactive)
REMARK    1  A    between atoms: C_2  and  C_20
REMARK    2  A    between atoms: N_3  and  C_4
REMARK    3  A    between atoms: C_4  and  C_5
REMARK    4  A    between atoms: C_8  and  C_9
REMARK    5  A    between atoms: C_9  and  N_10
REMARK    6  A    between atoms: N_10  and  C_11
REMARK    7  A    between atoms: C_11  and  C_12
REMARK                            x       y       z     vdW  Elec       q    Type
REMARK                         _______ _______ _______ _____ _____    ______ ____
ROOT
ATOM      1  C   UNL     1      45.920   6.473  12.418  0.00  0.00    +0.000 A 
ATOM      2  C   UNL     1      45.318   5.540  13.275  0.00  0.00    +0.000 A 
ATOM      3  C   UNL     1      44.599   4.456  12.754  0.00  0.00    +0.000 A 
ATOM      4  C   UNL     1      44.460   4.287  11.368  0.00  0.00    +0.000 A 
ATOM      5  C   UNL     1      45.063   5.223  10.518  0.00  0.00    +0.000 A 
ATOM      6  C   UNL     1      45.802   6.287  11.035  0.00  0.00    +0.000 A 
ENDROOT
BRANCH   1   7
ATOM      7  C   UNL     1      46.696   7.648  12.962  0.00  0.00    +0.000 C 
BRANCH   7  10
ATOM      8  O   UNL     1      49.218   6.503  13.280  0.00  0.00    +0.000 OA
ATOM      9  C   UNL     1      48.557   6.743  14.248  0.00  0.00    +0.000 C 
ATOM     10  N   UNL     1      47.305   7.328  14.222  0.00  0.00    +0.000 N 
ATOM     11  H   UNL     1      46.694   7.054  14.972  0.00  0.00    +0.000 HD
BRANCH   9  12
ATOM     12  C   UNL     1      48.981   6.455  15.622  0.00  0.00    +0.000 A 
ATOM     13  C   UNL     1      50.227   6.830  16.133  0.00  0.00    +0.000 A 
ATOM     14  N   UNL     1      50.155   6.542  17.478  0.00  0.00    +0.000 N 
ATOM     15  C   UNL     1      49.567   5.288  17.436  0.00  0.00    +0.000 A 
ATOM     16  C   UNL     1      49.932   4.081  18.006  0.00  0.00    +0.000 A 
ATOM     17  C   UNL     1      49.055   3.021  17.789  0.00  0.00    +0.000 A 
ATOM     18  C   UNL     1      47.836   3.217  17.130  0.00  0.00    +0.000 A 
ATOM     19  C   UNL     1      47.541   4.430  16.483  0.00  0.00    +0.000 A 
ATOM     20  C   UNL     1      48.521   5.429  16.519  0.00  0.00    +0.000 A 
ATOM     21  H   UNL     1      49.706   7.224  18.069  0.00  0.00    +0.000 HD
ENDBRANCH   9  12
ENDBRANCH   7  10
ENDBRANCH   1   7
BRANCH   4  22
ATOM     22  C   UNL     1      43.736   3.099  10.769  0.00  0.00    +0.000 C 
BRANCH  22  23
ATOM     23  N   UNL     1      44.006   2.956   9.343  0.00  0.00    +0.000 NA
ATOM     24  H   UNL     1      44.554   3.756   9.029  0.00  0.00    +0.000 HD
BRANCH  23  25
ATOM     25  C   UNL     1      44.746   1.729   9.046  0.00  0.00    +0.000 C 
BRANCH  25  26
ATOM     26  C   UNL     1      45.901   2.030   8.126  0.00  0.00    +0.000 A 
ATOM     27  C   UNL     1      46.119   3.318   7.625  0.00  0.00    +0.000 A 
ATOM     28  C   UNL     1      47.219   3.569   6.812  0.00  0.00    +0.000 A 
ATOM     29  C   UNL     1      48.065   2.514   6.514  0.00  0.00    +0.000 A 
ATOM     30  N   UNL     1      47.879   1.252   6.959  0.00  0.00    +0.000 NA
ATOM     31  C   UNL     1      46.804   1.041   7.752  0.00  0.00    +0.000 A 
ENDBRANCH  25  26
ENDBRANCH  23  25
ENDBRANCH  22  23
ENDBRANCH   4  22
TORSDOF 7
ENDMDL
MODEL 2
REMARK VINA RESULT:    -7.947      1.732      8.519
REMARK INTER + INTRA:         -12.454
REMARK INTER:                 -11.526
REMARK INTRA:                  -0.928
REMARK UNBOUND:                -1.255
REMARK  Name = 
REMARK  7 active torsions:
REMARK  status: ('A' for Active; 'I' for Inactive)
REMARK    1  A    between atoms: C_2  and  C_20
REMARK    2  A    between atoms: N_3  and  C_4
REMARK    3  A    between atoms: C_4  and  C_5
REMARK    4  A    between atoms: C_8  and  C_9
REMARK    5  A    between atoms: C_9  and  N_10
REMARK    6  A    between atoms: N_10  and  C_11
REMARK    7  A    between atoms: C_11  and  C_12
REMARK                            x       y       z     vdW  Elec       q    Type
REMARK                         _______ _______ _______ _____ _____    ______ ____
ROOT
ATOM      1  C   UNL     1      45.850   6.813  12.359  0.00  0.00    +0.000 A 
ATOM      2  C   UNL     1      46.431   5.664  12.913  0.00  0.00    +0.000 A 
ATOM      3  C   UNL     1      47.459   5.773  13.859  0.00  0.00    +0.000 A 
ATOM      4  C   UNL     1      47.931   7.031  14.264  0.00  0.00    +0.000 A 
ATOM      5  C   UNL     1      47.346   8.175  13.705  0.00  0.00    +0.000 A 
ATOM      6  C   UNL     1      46.304   8.068  12.785  0.00  0.00    +0.000 A 
ENDROOT
BRANCH   1   7
ATOM      7  C   UNL     1      44.743   6.714  11.337  0.00  0.00    +0.000 C 
BRANCH   7  10
ATOM      8  O   UNL     1      46.224   5.897   9.120  0.00  0.00    +0.000 OA
ATOM      9  C   UNL     1      45.466   5.127   9.635  0.00  0.00    +0.000 C 
ATOM     10  N   UNL     1      44.697   5.405  10.749  0.00  0.00    +0.000 N 
ATOM     11  H   UNL     1      43.821   4.912  10.791  0.00  0.00    +0.000 HD
BRANCH   9  12
ATOM     12  C   UNL     1      45.243   3.757   9.163  0.00  0.00    +0.000 A 
ATOM     13  C   UNL     1      44.879   2.706  10.009  0.00  0.00    +0.000 A 
ATOM     14  N   UNL     1      44.596   1.656   9.163  0.00  0.00    +0.000 N 
ATOM     15  C   UNL     1      45.665   1.744   8.285  0.00  0.00    +0.000 A 
ATOM     16  C   UNL     1      46.585   0.804   7.859  0.00  0.00    +0.000 A 
ATOM     17  C   UNL     1      47.506   1.246   6.911  0.00  0.00    +0.000 A 
ATOM     18  C   UNL     1      47.415   2.530   6.362  0.00  0.00    +0.000 A 
ATOM     19  C   UNL     1      46.530   3.489   6.885  0.00  0.00    +0.000 A 
ATOM     20  C   UNL     1      45.750   3.107   7.984  0.00  0.00    +0.000 A 
ATOM     21  H   UNL     1      43.678   1.639   8.746  0.00  0.00    +0.000 HD
ENDBRANCH   9  12
ENDBRANCH   7  10
ENDBRANCH   1   7
BRANCH   4  22
ATOM     22  C   UNL     1      49.003   7.188  15.323  0.00  0.00    +0.000 C 
BRANCH  22  23
ATOM     23  N   UNL     1      48.437   7.459  16.639  0.00  0.00    +0.000 NA
ATOM     24  H   UNL     1      47.434   7.277  16.611  0.00  0.00    +0.000 HD
BRANCH  23  25
ATOM     25  C   UNL     1      49.040   6.625  17.679  0.00  0.00    +0.000 C 
BRANCH  25  26
ATOM     26  C   UNL     1      48.597   5.194  17.518  0.00  0.00    +0.000 A 
ATOM     27  C   UNL     1      49.522   4.150  17.410  0.00  0.00    +0.000 A 
ATOM     28  C   UNL     1      49.076   2.837  17.305  0.00  0.00    +0.000 A 
ATOM     29  C   UNL     1      47.711   2.609  17.298  0.00  0.00    +0.000 A 
ATOM     30  N   UNL     1      46.784   3.589  17.379  0.00  0.00    +0.000 NA
ATOM     31  C   UNL     1      47.248   4.855  17.487  0.00  0.00    +0.000 A 
ENDBRANCH  25  26
ENDBRANCH  23  25
ENDBRANCH  22  23
ENDBRANCH   4  22
TORSDOF 7
ENDMDL
MODEL 3
REMARK VINA RESULT:    -7.876      1.885      2.614
REMARK INTER + INTRA:         -12.354
REMARK INTER:                 -11.346
REMARK INTRA:                  -1.008
REMARK UNBOUND:                -1.255
REMARK  Name = 
REMARK  7 active torsions:
REMARK  status: ('A' for Active; 'I' for Inactive)
REMARK    1  A    between atoms: C_2  and  C_20
REMARK    2  A    between atoms: N_3  and  C_4
REMARK    3  A    between atoms: C_4  and  C_5
REMARK    4  A    between atoms: C_8  and  C_9
REMARK    5  A    between atoms: C_9  and  N_10
REMARK    6  A    between atoms: N_10  and  C_11
REMARK    7  A    between atoms: C_11  and  C_12
REMARK                            x       y       z     vdW  Elec       q    Type
REMARK                         _______ _______ _______ _____ _____    ______ ____
ROOT
ATOM      1  C   UNL     1      46.858   6.129  12.913  0.00  0.00    +0.000 A 
ATOM      2  C   UNL     1      46.749   6.544  11.578  0.00  0.00    +0.000 A 
ATOM      3  C   UNL     1      45.686   6.101  10.781  0.00  0.00    +0.000 A 
ATOM      4  C   UNL     1      44.716   5.229  11.298  0.00  0.00    +0.000 A 
ATOM      5  C   UNL     1      44.831   4.818  12.632  0.00  0.00    +0.000 A 
ATOM      6  C   UNL     1      45.874   5.281  13.435  0.00  0.00    +0.000 A 
ENDROOT
BRANCH   1   7
ATOM      7  C   UNL     1      47.999   6.595  13.786  0.00  0.00    +0.000 C 
BRANCH   7  10
ATOM      8  O   UNL     1      50.050   6.394  15.664  0.00  0.00    +0.000 OA
ATOM      9  C   UNL     1      48.942   6.059  15.968  0.00  0.00    +0.000 C 
ATOM     10  N   UNL     1      47.841   6.132  15.136  0.00  0.00    +0.000 N 
ATOM     11  H   UNL     1      47.137   5.433  15.304  0.00  0.00    +0.000 HD
BRANCH   9  12
ATOM     12  C   UNL     1      48.580   5.521  17.283  0.00  0.00    +0.000 A 
ATOM     13  C   UNL     1      47.504   4.653  17.485  0.00  0.00    +0.000 A 
ATOM     14  N   UNL     1      47.619   4.251  18.797  0.00  0.00    +0.000 N 
ATOM     15  C   UNL     1      47.892   5.463  19.410  0.00  0.00    +0.000 A 
ATOM     16  C   UNL     1      47.305   6.103  20.486  0.00  0.00    +0.000 A 
ATOM     17  C   UNL     1      47.889   7.311  20.863  0.00  0.00    +0.000 A 
ATOM     18  C   UNL     1      49.060   7.769  20.248  0.00  0.00    +0.000 A 
ATOM     19  C   UNL     1      49.574   7.144  19.098  0.00  0.00    +0.000 A 
ATOM     20  C   UNL     1      48.862   6.051  18.591  0.00  0.00    +0.000 A 
ATOM     21  H   UNL     1      48.263   3.500  18.991  0.00  0.00    +0.000 HD
ENDBRANCH   9  12
ENDBRANCH   7  10
ENDBRANCH   1   7
BRANCH   4  22
ATOM     22  C   UNL     1      43.524   4.772  10.482  0.00  0.00    +0.000 C 
BRANCH  22  23
ATOM     23  N   UNL     1      43.927   4.174   9.214  0.00  0.00    +0.000 NA
ATOM     24  H   UNL     1      44.632   4.767   8.778  0.00  0.00    +0.000 HD
BRANCH  23  25
ATOM     25  C   UNL     1      44.483   2.832   9.393  0.00  0.00    +0.000 C 
BRANCH  25  26
ATOM     26  C   UNL     1      45.557   2.575   8.369  0.00  0.00    +0.000 A 
ATOM     27  C   UNL     1      46.033   3.594   7.537  0.00  0.00    +0.000 A 
ATOM     28  C   UNL     1      47.055   3.331   6.632  0.00  0.00    +0.000 A 
ATOM     29  C   UNL     1      47.563   2.045   6.578  0.00  0.00    +0.000 A 
ATOM     30  N   UNL     1      47.119   1.027   7.346  0.00  0.00    +0.000 NA
ATOM     31  C   UNL     1      46.129   1.315   8.221  0.00  0.00    +0.000 A 
ENDBRANCH  25  26
ENDBRANCH  23  25
ENDBRANCH  22  23
ENDBRANCH   4  22
TORSDOF 7
ENDMDL
MODEL 4
REMARK VINA RESULT:    -7.265      1.642      2.502
REMARK INTER + INTRA:         -11.492
REMARK INTER:                 -10.574
REMARK INTRA:                  -0.918
REMARK UNBOUND:                -1.255
REMARK  Name = 
REMARK  7 active torsions:
REMARK  status: ('A' for Active; 'I' for Inactive)
REMARK    1  A    between atoms: C_2  and  C_20
REMARK    2  A    between atoms: N_3  and  C_4
REMARK    3  A    between atoms: C_4  and  C_5
REMARK    4  A    between atoms: C_8  and  C_9
REMARK    5  A    between atoms: C_9  and  N_10
REMARK    6  A    between atoms: N_10  and  C_11
REMARK    7  A    between atoms: C_11  and  C_12
REMARK                            x       y       z     vdW  Elec       q    Type
REMARK                         _______ _______ _______ _____ _____    ______ ____
ROOT
ATOM      1  C   UNL     1      46.830   6.061  13.058  0.00  0.00    +0.000 A 
ATOM      2  C   UNL     1      46.593   6.577  11.776  0.00  0.00    +0.000 A 
ATOM      3  C   UNL     1      45.464   6.181  11.048  0.00  0.00    +0.000 A 
ATOM      4  C   UNL     1      44.554   5.256  11.583  0.00  0.00    +0.000 A 
ATOM      5  C   UNL     1      44.798   4.744  12.863  0.00  0.00    +0.000 A 
ATOM      6  C   UNL     1      45.907   5.159  13.600  0.00  0.00    +0.000 A 
ENDROOT
BRANCH   1   7
ATOM      7  C   UNL     1      48.044   6.475  13.855  0.00  0.00    +0.000 C 
BRANCH   7  10
ATOM      8  O   UNL     1      49.349   7.507  16.093  0.00  0.00    +0.000 OA
ATOM      9  C   UNL     1      48.734   6.486  16.192  0.00  0.00    +0.000 C 
ATOM     10  N   UNL     1      48.028   5.888  15.166  0.00  0.00    +0.000 N 
ATOM     11  H   UNL     1      47.971   4.885  15.220  0.00  0.00    +0.000 HD
BRANCH   9  12
ATOM     12  C   UNL     1      48.629   5.711  17.432  0.00  0.00    +0.000 A 
ATOM     13  C   UNL     1      47.664   5.962  18.412  0.00  0.00    +0.000 A 
ATOM     14  N   UNL     1      47.790   4.920  19.304  0.00  0.00    +0.000 N 
ATOM     15  C   UNL     1      49.169   4.860  19.428  0.00  0.00    +0.000 A 
ATOM     16  C   UNL     1      49.994   4.867  20.538  0.00  0.00    +0.000 A 
ATOM     17  C   UNL     1      51.357   4.736  20.279  0.00  0.00    +0.000 A 
ATOM     18  C   UNL     1      51.825   4.504  18.980  0.00  0.00    +0.000 A 
ATOM     19  C   UNL     1      50.971   4.597  17.867  0.00  0.00    +0.000 A 
ATOM     20  C   UNL     1      49.636   4.941  18.112  0.00  0.00    +0.000 A 
ATOM     21  H   UNL     1      47.327   4.057  19.068  0.00  0.00    +0.000 HD
ENDBRANCH   9  12
ENDBRANCH   7  10
ENDBRANCH   1   7
BRANCH   4  22
ATOM     22  C   UNL     1      43.295   4.845  10.846  0.00  0.00    +0.000 C 
BRANCH  22  23
ATOM     23  N   UNL     1      43.592   4.212   9.566  0.00  0.00    +0.000 NA
ATOM     24  H   UNL     1      44.160   4.848   9.007  0.00  0.00    +0.000 HD
BRANCH  23  25
ATOM     25  C   UNL     1      44.318   2.952   9.732  0.00  0.00    +0.000 C 
BRANCH  25  26
ATOM     26  C   UNL     1      45.384   2.825   8.676  0.00  0.00    +0.000 A 
ATOM     27  C   UNL     1      46.000   1.598   8.403  0.00  0.00    +0.000 A 
ATOM     28  C   UNL     1      46.950   1.508   7.393  0.00  0.00    +0.000 A 
ATOM     29  C   UNL     1      47.267   2.659   6.690  0.00  0.00    +0.000 A 
ATOM     30  N   UNL     1      46.713   3.866   6.935  0.00  0.00    +0.000 NA
ATOM     31  C   UNL     1      45.787   3.920   7.920  0.00  0.00    +0.000 A 
ENDBRANCH  25  26
ENDBRANCH  23  25
ENDBRANCH  22  23
ENDBRANCH   4  22
TORSDOF 7
ENDMDL
MODEL 5
REMARK VINA RESULT:    -7.243      2.242      8.666
REMARK INTER + INTRA:         -11.462
REMARK INTER:                 -10.743
REMARK INTRA:                  -0.719
REMARK UNBOUND:                -1.255
REMARK  Name = 
REMARK  7 active torsions:
REMARK  status: ('A' for Active; 'I' for Inactive)
REMARK    1  A    between atoms: C_2  and  C_20
REMARK    2  A    between atoms: N_3  and  C_4
REMARK    3  A    between atoms: C_4  and  C_5
REMARK    4  A    between atoms: C_8  and  C_9
REMARK    5  A    between atoms: C_9  and  N_10
REMARK    6  A    between atoms: N_10  and  C_11
REMARK    7  A    between atoms: C_11  and  C_12
REMARK                            x       y       z     vdW  Elec       q    Type
REMARK                         _______ _______ _______ _____ _____    ______ ____
ROOT
ATOM      1  C   UNL     1      46.508   6.614  12.559  0.00  0.00    +0.000 A 
ATOM      2  C   UNL     1      46.535   5.429  13.308  0.00  0.00    +0.000 A 
ATOM      3  C   UNL     1      47.296   5.347  14.482  0.00  0.00    +0.000 A 
ATOM      4  C   UNL     1      48.050   6.444  14.926  0.00  0.00    +0.000 A 
ATOM      5  C   UNL     1      48.019   7.624  14.172  0.00  0.00    +0.000 A 
ATOM      6  C   UNL     1      47.239   7.716  13.019  0.00  0.00    +0.000 A 
ENDROOT
BRANCH   1   7
ATOM      7  C   UNL     1      45.695   6.719  11.291  0.00  0.00    +0.000 C 
BRANCH   7  10
ATOM      8  O   UNL     1      43.331   5.505  10.448  0.00  0.00    +0.000 OA
ATOM      9  C   UNL     1      44.373   4.944  10.273  0.00  0.00    +0.000 C 
ATOM     10  N   UNL     1      45.610   5.449  10.624  0.00  0.00    +0.000 N 
ATOM     11  H   UNL     1      46.298   4.756  10.863  0.00  0.00    +0.000 HD
BRANCH   9  12
ATOM     12  C   UNL     1      44.497   3.623   9.647  0.00  0.00    +0.000 A 
ATOM     13  C   UNL     1      44.413   2.426  10.363  0.00  0.00    +0.000 A 
ATOM     14  N   UNL     1      44.397   1.441   9.400  0.00  0.00    +0.000 N 
ATOM     15  C   UNL     1      45.405   1.892   8.562  0.00  0.00    +0.000 A 
ATOM     16  C   UNL     1      46.528   1.265   8.055  0.00  0.00    +0.000 A 
ATOM     17  C   UNL     1      47.304   2.027   7.183  0.00  0.00    +0.000 A 
ATOM     18  C   UNL     1      46.891   3.302   6.777  0.00  0.00    +0.000 A 
ATOM     19  C   UNL     1      45.797   3.943   7.383  0.00  0.00    +0.000 A 
ATOM     20  C   UNL     1      45.144   3.258   8.415  0.00  0.00    +0.000 A 
ATOM     21  H   UNL     1      43.510   1.243   8.963  0.00  0.00    +0.000 HD
ENDBRANCH   9  12
ENDBRANCH   7  10
ENDBRANCH   1   7
BRANCH   4  22
ATOM     22  C   UNL     1      48.842   6.409  16.217  0.00  0.00    +0.000 C 
BRANCH  22  23
ATOM     23  N   UNL     1      49.773   5.287  16.258  0.00  0.00    +0.000 NA
ATOM     24  H   UNL     1      50.715   5.646  16.405  0.00  0.00    +0.000 HD
BRANCH  23  25
ATOM     25  C   UNL     1      49.451   4.346  17.330  0.00  0.00    +0.000 C 
BRANCH  25  26
ATOM     26  C   UNL     1      50.547   3.322  17.468  0.00  0.00    +0.000 A 
ATOM     27  C   UNL     1      51.841   3.684  17.861  0.00  0.00    +0.000 A 
ATOM     28  C   UNL     1      52.817   2.707  18.018  0.00  0.00    +0.000 A 
ATOM     29  C   UNL     1      52.471   1.391  17.763  0.00  0.00    +0.000 A 
ATOM     30  N   UNL     1      51.242   1.001  17.362  0.00  0.00    +0.000 NA
ATOM     31  C   UNL     1      50.312   1.973  17.224  0.00  0.00    +0.000 A 
ENDBRANCH  25  26
ENDBRANCH  23  25
ENDBRANCH  22  23
ENDBRANCH   4  22
TORSDOF 7
ENDMDL
MODEL 6
REMARK VINA RESULT:    -6.943      2.473      8.817
REMARK INTER + INTRA:         -11.039
REMARK INTER:                 -10.612
REMARK INTRA:                  -0.427
REMARK UNBOUND:                -1.255
REMARK  Name = 
REMARK  7 active torsions:
REMARK  status: ('A' for Active; 'I' for Inactive)
REMARK    1  A    between atoms: C_2  and  C_20
REMARK    2  A    between atoms: N_3  and  C_4
REMARK    3  A    between atoms: C_4  and  C_5
REMARK    4  A    between atoms: C_8  and  C_9
REMARK    5  A    between atoms: C_9  and  N_10
REMARK    6  A    between atoms: N_10  and  C_11
REMARK    7  A    between atoms: C_11  and  C_12
REMARK                            x       y       z     vdW  Elec       q    Type
REMARK                         _______ _______ _______ _____ _____    ______ ____
ROOT
ATOM      1  C   UNL     1      47.706   5.755  14.612  0.00  0.00    +0.000 A 
ATOM      2  C   UNL     1      48.573   6.442  15.473  0.00  0.00    +0.000 A 
ATOM      3  C   UNL     1      48.828   5.955  16.762  0.00  0.00    +0.000 A 
ATOM      4  C   UNL     1      48.217   4.777  17.217  0.00  0.00    +0.000 A 
ATOM      5  C   UNL     1      47.351   4.096  16.352  0.00  0.00    +0.000 A 
ATOM      6  C   UNL     1      47.119   4.565  15.059  0.00  0.00    +0.000 A 
ENDROOT
BRANCH   1   7
ATOM      7  C   UNL     1      47.418   6.267  13.221  0.00  0.00    +0.000 C 
BRANCH   7  10
ATOM      8  O   UNL     1      44.854   6.618  12.184  0.00  0.00    +0.000 OA
ATOM      9  C   UNL     1      45.421   5.580  12.006  0.00  0.00    +0.000 C 
ATOM     10  N   UNL     1      46.698   5.293  12.449  0.00  0.00    +0.000 N 
ATOM     11  H   UNL     1      46.866   4.324  12.658  0.00  0.00    +0.000 HD
BRANCH   9  12
ATOM     12  C   UNL     1      44.843   4.445  11.279  0.00  0.00    +0.000 A 
ATOM     13  C   UNL     1      44.487   3.242  11.896  0.00  0.00    +0.000 A 
ATOM     14  N   UNL     1      43.830   2.528  10.919  0.00  0.00    +0.000 N 
ATOM     15  C   UNL     1      44.672   2.743   9.839  0.00  0.00    +0.000 A 
ATOM     16  C   UNL     1      45.279   1.867   8.958  0.00  0.00    +0.000 A 
ATOM     17  C   UNL     1      46.031   2.456   7.943  0.00  0.00    +0.000 A 
ATOM     18  C   UNL     1      46.063   3.846   7.782  0.00  0.00    +0.000 A 
ATOM     19  C   UNL     1      45.514   4.706   8.750  0.00  0.00    +0.000 A 
ATOM     20  C   UNL     1      44.942   4.114   9.882  0.00  0.00    +0.000 A 
ATOM     21  H   UNL     1      42.855   2.743  10.772  0.00  0.00    +0.000 HD
ENDBRANCH   9  12
ENDBRANCH   7  10
ENDBRANCH   1   7
BRANCH   4  22
ATOM     22  C   UNL     1      48.510   4.192  18.584  0.00  0.00    +0.000 C 
BRANCH  22  23
ATOM     23  N   UNL     1      49.415   3.050  18.508  0.00  0.00    +0.000 NA
ATOM     24  H   UNL     1      48.868   2.205  18.351  0.00  0.00    +0.000 HD
BRANCH  23  25
ATOM     25  C   UNL     1      50.387   3.193  17.424  0.00  0.00    +0.000 C 
BRANCH  25  26
ATOM     26  C   UNL     1      51.676   2.505  17.790  0.00  0.00    +0.000 A 
ATOM     27  C   UNL     1      51.922   1.175  17.430  0.00  0.00    +0.000 A 
ATOM     28  C   UNL     1      53.140   0.584  17.748  0.00  0.00    +0.000 A 
ATOM     29  C   UNL     1      54.075   1.343  18.431  0.00  0.00    +0.000 A 
ATOM     30  N   UNL     1      53.871   2.621  18.815  0.00  0.00    +0.000 NA
ATOM     31  C   UNL     1      52.679   3.170  18.486  0.00  0.00    +0.000 A 
ENDBRANCH  25  26
ENDBRANCH  23  25
ENDBRANCH  22  23
ENDBRANCH   4  22
TORSDOF 7
ENDMDL
MODEL 7
REMARK VINA RESULT:    -6.917      1.726      2.698
REMARK INTER + INTRA:         -11.003
REMARK INTER:                 -10.016
REMARK INTRA:                  -0.987
REMARK UNBOUND:                -1.255
REMARK  Name = 
REMARK  7 active torsions:
REMARK  status: ('A' for Active; 'I' for Inactive)
REMARK    1  A    between atoms: C_2  and  C_20
REMARK    2  A    between atoms: N_3  and  C_4
REMARK    3  A    between atoms: C_4  and  C_5
REMARK    4  A    between atoms: C_8  and  C_9
REMARK    5  A    between atoms: C_9  and  N_10
REMARK    6  A    between atoms: N_10  and  C_11
REMARK    7  A    between atoms: C_11  and  C_12
REMARK                            x       y       z     vdW  Elec       q    Type
REMARK                         _______ _______ _______ _____ _____    ______ ____
ROOT
ATOM      1  C   UNL     1      48.148   7.439  13.531  0.00  0.00    +0.000 A 
ATOM      2  C   UNL     1      47.899   6.117  13.135  0.00  0.00    +0.000 A 
ATOM      3  C   UNL     1      46.644   5.750  12.632  0.00  0.00    +0.000 A 
ATOM      4  C   UNL     1      45.612   6.694  12.521  0.00  0.00    +0.000 A 
ATOM      5  C   UNL     1      45.867   8.012  12.919  0.00  0.00    +0.000 A 
ATOM      6  C   UNL     1      47.125   8.385  13.394  0.00  0.00    +0.000 A 
ENDROOT
BRANCH   1   7
ATOM      7  C   UNL     1      49.494   7.850  14.078  0.00  0.00    +0.000 C 
BRANCH   7  10
ATOM      8  O   UNL     1      48.977   7.911  16.817  0.00  0.00    +0.000 OA
ATOM      9  C   UNL     1      49.670   7.044  16.371  0.00  0.00    +0.000 C 
ATOM     10  N   UNL     1      49.980   6.893  15.032  0.00  0.00    +0.000 N 
ATOM     11  H   UNL     1      50.877   6.476  14.850  0.00  0.00    +0.000 HD
BRANCH   9  12
ATOM     12  C   UNL     1      50.297   5.996  17.182  0.00  0.00    +0.000 A 
ATOM     13  C   UNL     1      51.666   5.959  17.461  0.00  0.00    +0.000 A 
ATOM     14  N   UNL     1      51.809   4.945  18.382  0.00  0.00    +0.000 N 
ATOM     15  C   UNL     1      51.006   3.971  17.811  0.00  0.00    +0.000 A 
ATOM     16  C   UNL     1      51.249   2.646  17.495  0.00  0.00    +0.000 A 
ATOM     17  C   UNL     1      50.167   1.942  16.971  0.00  0.00    +0.000 A 
ATOM     18  C   UNL     1      48.899   2.528  16.884  0.00  0.00    +0.000 A 
ATOM     19  C   UNL     1      48.709   3.900  17.124  0.00  0.00    +0.000 A 
ATOM     20  C   UNL     1      49.843   4.656  17.445  0.00  0.00    +0.000 A 
ATOM     21  H   UNL     1      51.618   5.171  19.345  0.00  0.00    +0.000 HD
ENDBRANCH   9  12
ENDBRANCH   7  10
ENDBRANCH   1   7
BRANCH   4  22
ATOM     22  C   UNL     1      44.260   6.346  11.932  0.00  0.00    +0.000 C 
BRANCH  22  23
ATOM     23  N   UNL     1      44.369   5.867  10.558  0.00  0.00    +0.000 NA
ATOM     24  H   UNL     1      45.334   5.972  10.248  0.00  0.00    +0.000 HD
BRANCH  23  25
ATOM     25  C   UNL     1      43.981   4.462  10.436  0.00  0.00    +0.000 C 
BRANCH  25  26
ATOM     26  C   UNL     1      44.862   3.767   9.430  0.00  0.00    +0.000 A 
ATOM     27  C   UNL     1      45.041   2.380   9.450  0.00  0.00    +0.000 A 
ATOM     28  C   UNL     1      45.828   1.768   8.481  0.00  0.00    +0.000 A 
ATOM     29  C   UNL     1      46.424   2.569   7.522  0.00  0.00    +0.000 A 
ATOM     30  N   UNL     1      46.295   3.913   7.479  0.00  0.00    +0.000 NA
ATOM     31  C   UNL     1      45.519   4.478   8.431  0.00  0.00    +0.000 A 
ENDBRANCH  25  26
ENDBRANCH  23  25
ENDBRANCH  22  23
ENDBRANCH   4  22
TORSDOF 7
ENDMDL
MODEL 8
REMARK VINA RESULT:    -6.911      2.526      9.596
REMARK INTER + INTRA:         -10.993
REMARK INTER:                 -10.282
REMARK INTRA:                  -0.712
REMARK UNBOUND:                -1.255
REMARK  Name = 
REMARK  7 active torsions:
REMARK  status: ('A' for Active; 'I' for Inactive)
REMARK    1  A    between atoms: C_2  and  C_20
REMARK    2  A    between atoms: N_3  and  C_4
REMARK    3  A    between atoms: C_4  and  C_5
REMARK    4  A    between atoms: C_8  and  C_9
REMARK    5  A    between atoms: C_9  and  N_10
REMARK    6  A    between atoms: N_10  and  C_11
REMARK    7  A    between atoms: C_11  and  C_12
REMARK                            x       y       z     vdW  Elec       q    Type
REMARK                         _______ _______ _______ _____ _____    ______ ____
ROOT
ATOM      1  C   UNL     1      46.446   6.514  12.498  0.00  0.00    +0.000 A 
ATOM      2  C   UNL     1      46.500   5.347  13.274  0.00  0.00    +0.000 A 
ATOM      3  C   UNL     1      47.335   5.279  14.397  0.00  0.00    +0.000 A 
ATOM      4  C   UNL     1      48.137   6.372  14.762  0.00  0.00    +0.000 A 
ATOM      5  C   UNL     1      48.079   7.533  13.981  0.00  0.00    +0.000 A 
ATOM      6  C   UNL     1      47.227   7.611  12.879  0.00  0.00    +0.000 A 
ENDROOT
BRANCH   1   7
ATOM      7  C   UNL     1      45.555   6.603  11.283  0.00  0.00    +0.000 C 
BRANCH   7  10
ATOM      8  O   UNL     1      43.233   5.353  10.377  0.00  0.00    +0.000 OA
ATOM      9  C   UNL     1      44.291   4.824  10.199  0.00  0.00    +0.000 C 
ATOM     10  N   UNL     1      45.510   5.352  10.579  0.00  0.00    +0.000 N 
ATOM     11  H   UNL     1      46.214   4.671  10.806  0.00  0.00    +0.000 HD
BRANCH   9  12
ATOM     12  C   UNL     1      44.457   3.526   9.536  0.00  0.00    +0.000 A 
ATOM     13  C   UNL     1      44.347   2.305  10.208  0.00  0.00    +0.000 A 
ATOM     14  N   UNL     1      44.388   1.353   9.213  0.00  0.00    +0.000 N 
ATOM     15  C   UNL     1      45.433   1.837   8.443  0.00  0.00    +0.000 A 
ATOM     16  C   UNL     1      46.586   1.235   7.973  0.00  0.00    +0.000 A 
ATOM     17  C   UNL     1      47.398   2.030   7.168  0.00  0.00    +0.000 A 
ATOM     18  C   UNL     1      46.996   3.315   6.783  0.00  0.00    +0.000 A 
ATOM     19  C   UNL     1      45.867   3.929   7.354  0.00  0.00    +0.000 A 
ATOM     20  C   UNL     1      45.169   3.206   8.328  0.00  0.00    +0.000 A 
ATOM     21  H   UNL     1      43.526   1.164   8.726  0.00  0.00    +0.000 HD
ENDBRANCH   9  12
ENDBRANCH   7  10
ENDBRANCH   1   7
BRANCH   4  22
ATOM     22  C   UNL     1      49.012   6.353  16.000  0.00  0.00    +0.000 C 
BRANCH  22  23
ATOM     23  N   UNL     1      48.262   5.974  17.192  0.00  0.00    +0.000 NA
ATOM     24  H   UNL     1      48.683   5.137  17.594  0.00  0.00    +0.000 HD
BRANCH  23  25
ATOM     25  C   UNL     1      48.263   7.034  18.200  0.00  0.00    +0.000 C 
BRANCH  25  26
ATOM     26  C   UNL     1      48.231   6.436  19.582  0.00  0.00    +0.000 A 
ATOM     27  C   UNL     1      47.617   7.099  20.652  0.00  0.00    +0.000 A 
ATOM     28  C   UNL     1      47.569   6.498  21.904  0.00  0.00    +0.000 A 
ATOM     29  C   UNL     1      48.151   5.250  22.053  0.00  0.00    +0.000 A 
ATOM     30  N   UNL     1      48.770   4.585  21.054  0.00  0.00    +0.000 NA
ATOM     31  C   UNL     1      48.796   5.193  19.845  0.00  0.00    +0.000 A 
ENDBRANCH  25  26
ENDBRANCH  23  25
ENDBRANCH  22  23
ENDBRANCH   4  22
TORSDOF 7
ENDMDL
MODEL 9
REMARK VINA RESULT:    -6.504      2.244      8.088
REMARK INTER + INTRA:         -10.420
REMARK INTER:                  -8.781
REMARK INTRA:                  -1.639
REMARK UNBOUND:                -1.255
REMARK  Name = 
REMARK  7 active torsions:
REMARK  status: ('A' for Active; 'I' for Inactive)
REMARK    1  A    between atoms: C_2  and  C_20
REMARK    2  A    between atoms: N_3  and  C_4
REMARK    3  A    between atoms: C_4  and  C_5
REMARK    4  A    between atoms: C_8  and  C_9
REMARK    5  A    between atoms: C_9  and  N_10
REMARK    6  A    between atoms: N_10  and  C_11
REMARK    7  A    between atoms: C_11  and  C_12
REMARK                            x       y       z     vdW  Elec       q    Type
REMARK                         _______ _______ _______ _____ _____    ______ ____
ROOT
ATOM      1  C   UNL     1      48.574   8.204  14.975  0.00  0.00    +0.000 A 
ATOM      2  C   UNL     1      49.633   7.302  14.800  0.00  0.00    +0.000 A 
ATOM      3  C   UNL     1      50.457   6.955  15.879  0.00  0.00    +0.000 A 
ATOM      4  C   UNL     1      50.244   7.509  17.151  0.00  0.00    +0.000 A 
ATOM      5  C   UNL     1      49.185   8.410  17.318  0.00  0.00    +0.000 A 
ATOM      6  C   UNL     1      48.347   8.734  16.252  0.00  0.00    +0.000 A 
ENDROOT
BRANCH   1   7
ATOM      7  C   UNL     1      47.678   8.590  13.824  0.00  0.00    +0.000 C 
BRANCH   7  10
ATOM      8  O   UNL     1      47.712   6.927  11.585  0.00  0.00    +0.000 OA
ATOM      9  C   UNL     1      46.832   6.813  12.388  0.00  0.00    +0.000 C 
ATOM     10  N   UNL     1      46.718   7.559  13.545  0.00  0.00    +0.000 N 
ATOM     11  H   UNL     1      45.775   7.711  13.859  0.00  0.00    +0.000 HD
BRANCH   9  12
ATOM     12  C   UNL     1      45.734   5.848  12.267  0.00  0.00    +0.000 A 
ATOM     13  C   UNL     1      45.337   5.006  13.310  0.00  0.00    +0.000 A 
ATOM     14  N   UNL     1      44.184   4.405  12.855  0.00  0.00    +0.000 N 
ATOM     15  C   UNL     1      44.563   4.078  11.563  0.00  0.00    +0.000 A 
ATOM     16  C   UNL     1      44.518   2.885  10.865  0.00  0.00    +0.000 A 
ATOM     17  C   UNL     1      44.944   2.944   9.539  0.00  0.00    +0.000 A 
ATOM     18  C   UNL     1      45.284   4.165   8.945  0.00  0.00    +0.000 A 
ATOM     19  C   UNL     1      45.410   5.339   9.707  0.00  0.00    +0.000 A 
ATOM     20  C   UNL     1      45.188   5.234  11.086  0.00  0.00    +0.000 A 
ATOM     21  H   UNL     1      43.327   4.927  12.949  0.00  0.00    +0.000 HD
ENDBRANCH   9  12
ENDBRANCH   7  10
ENDBRANCH   1   7
BRANCH   4  22
ATOM     22  C   UNL     1      51.082   7.117  18.352  0.00  0.00    +0.000 C 
BRANCH  22  23
ATOM     23  N   UNL     1      51.234   5.671  18.463  0.00  0.00    +0.000 NA
ATOM     24  H   UNL     1      52.055   5.468  19.033  0.00  0.00    +0.000 HD
BRANCH  23  25
ATOM     25  C   UNL     1      50.064   5.042  19.077  0.00  0.00    +0.000 C 
BRANCH  25  26
ATOM     26  C   UNL     1      49.307   4.242  18.050  0.00  0.00    +0.000 A 
ATOM     27  C   UNL     1      48.041   4.637  17.604  0.00  0.00    +0.000 A 
ATOM     28  C   UNL     1      47.389   3.897  16.624  0.00  0.00    +0.000 A 
ATOM     29  C   UNL     1      48.022   2.772  16.126  0.00  0.00    +0.000 A 
ATOM     30  N   UNL     1      49.233   2.344  16.542  0.00  0.00    +0.000 NA
ATOM     31  C   UNL     1      49.845   3.087  17.492  0.00  0.00    +0.000 A 
ENDBRANCH  25  26
ENDBRANCH  23  25
ENDBRANCH  22  23
ENDBRANCH   4  22
TORSDOF 7
ENDMDL
