MODEL 1
REMARK VINA RESULT:    -6.680      0.000      0.000
REMARK INTER + INTRA:          -8.797
REMARK INTER:                  -8.242
REMARK INTRA:                  -0.555
REMARK UNBOUND:                -0.555
REMARK  Name = 
REMARK  4 active torsions:
REMARK  status: ('A' for Active; 'I' for Inactive)
REMARK    1  A    between atoms: C_2  and  C_4
REMARK    2  A    between atoms: C_8  and  C_9
REMARK    3  A    between atoms: C_10  and  C_11
REMARK    4  A    between atoms: C_15  and  C_16
REMARK                            x       y       z     vdW  Elec       q    Type
REMARK                         _______ _______ _______ _____ _____    ______ ____
ROOT
ATOM      1  C   UNL     1      45.962   4.635  13.884  0.00  0.00    +0.000 C 
ATOM      2  C   UNL     1      46.729   4.419  14.779  0.00  0.00    +0.000 C 
ENDROOT
BRANCH   1   7
ATOM      3  C   UNL     1      44.573   4.722  10.427  0.00  0.00    +0.000 A 
ATOM      4  C   UNL     1      43.268   5.165  10.682  0.00  0.00    +0.000 A 
ATOM      5  C   UNL     1      42.864   5.433  11.990  0.00  0.00    +0.000 A 
ATOM      6  C   UNL     1      43.758   5.252  13.045  0.00  0.00    +0.000 A 
ATOM      7  C   UNL     1      45.058   4.807  12.792  0.00  0.00    +0.000 A 
ATOM      8  C   UNL     1      45.467   4.535  11.488  0.00  0.00    +0.000 A 
BRANCH   3  10
ATOM      9  N   UNL     1      44.395   3.391   8.398  0.00  0.00    +0.000 N 
ATOM     10  C   UNL     1      45.035   4.405   9.052  0.00  0.00    +0.000 C 
ATOM     11  O   UNL     1      45.930   5.043   8.511  0.00  0.00    +0.000 OA
ATOM     12  H   UNL     1      44.652   3.253   7.429  0.00  0.00    +0.000 HD
ATOM     13  H   UNL     1      43.502   3.030   8.703  0.00  0.00    +0.000 HD
ENDBRANCH   3  10
ENDBRANCH   1   7
BRANCH   2  14
ATOM     14  C   UNL     1      47.643   4.067  15.817  0.00  0.00    +0.000 A 
ATOM     15  C   UNL     1      48.105   2.757  15.898  0.00  0.00    +0.000 A 
ATOM     16  C   UNL     1      48.989   2.400  16.908  0.00  0.00    +0.000 A 
ATOM     17  C   UNL     1      49.401   3.353  17.841  0.00  0.00    +0.000 A 
ATOM     18  C   UNL     1      48.931   4.676  17.800  0.00  0.00    +0.000 A 
ATOM     19  C   UNL     1      48.061   5.024  16.750  0.00  0.00    +0.000 A 
BRANCH  18  20
ATOM     20  C   UNL     1      49.363   5.750  18.799  0.00  0.00    +0.000 C 
ATOM     21  C   UNL     1      49.948   5.235  20.130  0.00  0.00    +0.000 C 
ATOM     22  C   UNL     1      48.867   4.699  21.075  0.00  0.00    +0.000 C 
ATOM     23  N   UNL     1      47.821   5.686  21.343  0.00  0.00    +0.000 NA
ATOM     24  C   UNL     1      47.213   6.175  20.105  0.00  0.00    +0.000 C 
ATOM     25  C   UNL     1      48.247   6.759  19.142  0.00  0.00    +0.000 C 
ATOM     26  H   UNL     1      48.224   6.471  21.854  0.00  0.00    +0.000 HD
ENDBRANCH  18  20
ENDBRANCH   2  14
TORSDOF 4
ENDMDL
MODEL 2
REMARK VINA RESULT:    -6.600      1.814      2.085
REMARK INTER + INTRA:          -8.698
REMARK INTER:                  -8.136
REMARK INTRA:                  -0.562
REMARK UNBOUND:                -0.555
REMARK  Name = 
REMARK  4 active torsions:
REMARK  status: ('A' for Active; 'I' for Inactive)
REMARK    1  A    between atoms: C_2  and  C_4
REMARK    2  A    between atoms: C_8  and  C_9
REMARK    3  A    between atoms: C_10  and  C_11
REMARK    4  A    between atoms: C_15  and  C_16
REMARK                            x       y       z     vdW  Elec       q    Type
REMARK                         _______ _______ _______ _____ _____    ______ ____
ROOT
ATOM      1  C   UNL     1      46.876   4.674  14.242  0.00  0.00    +0.000 C 
ATOM      2  C   UNL     1      47.379   4.584  15.326  0.00  0.00    +0.000 C 
ENDROOT
BRANCH   1   7
ATOM      3  C   UNL     1      44.772   3.860  11.275  0.00  0.00    +0.000 A 
ATOM      4  C   UNL     1      44.891   5.046  10.538  0.00  0.00    +0.000 A 
ATOM      5  C   UNL     1      45.666   6.098  11.027  0.00  0.00    +0.000 A 
ATOM      6  C   UNL     1      46.317   5.970  12.254  0.00  0.00    +0.000 A 
ATOM      7  C   UNL     1      46.195   4.790  12.992  0.00  0.00    +0.000 A 
ATOM      8  C   UNL     1      45.421   3.736  12.509  0.00  0.00    +0.000 A 
BRANCH   3  10
ATOM      9  N   UNL     1      44.386   2.041   9.706  0.00  0.00    +0.000 N 
ATOM     10  C   UNL     1      43.939   2.726  10.801  0.00  0.00    +0.000 C 
ATOM     11  O   UNL     1      42.913   2.394  11.380  0.00  0.00    +0.000 OA
ATOM     12  H   UNL     1      43.862   1.212   9.455  0.00  0.00    +0.000 HD
ATOM     13  H   UNL     1      45.336   2.116   9.372  0.00  0.00    +0.000 HD
ENDBRANCH   3  10
ENDBRANCH   1   7
BRANCH   2  14
ATOM     14  C   UNL     1      47.889   4.492  16.655  0.00  0.00    +0.000 A 
ATOM     15  C   UNL     1      47.871   3.261  17.304  0.00  0.00    +0.000 A 
ATOM     16  C   UNL     1      48.358   3.160  18.601  0.00  0.00    +0.000 A 
ATOM     17  C   UNL     1      48.854   4.293  19.249  0.00  0.00    +0.000 A 
ATOM     18  C   UNL     1      48.861   5.553  18.628  0.00  0.00    +0.000 A 
ATOM     19  C   UNL     1      48.392   5.627  17.303  0.00  0.00    +0.000 A 
BRANCH  18  20
ATOM     20  C   UNL     1      49.400   6.816  19.301  0.00  0.00    +0.000 C 
ATOM     21  C   UNL     1      49.318   6.845  20.841  0.00  0.00    +0.000 C 
ATOM     22  C   UNL     1      47.896   7.106  21.346  0.00  0.00    +0.000 C 
ATOM     23  N   UNL     1      47.325   8.336  20.796  0.00  0.00    +0.000 NA
ATOM     24  C   UNL     1      47.351   8.334  19.333  0.00  0.00    +0.000 C 
ATOM     25  C   UNL     1      48.758   8.117  18.777  0.00  0.00    +0.000 C 
ATOM     26  H   UNL     1      47.857   9.135  21.141  0.00  0.00    +0.000 HD
ENDBRANCH  18  20
ENDBRANCH   2  14
TORSDOF 4
ENDMDL
MODEL 3
REMARK VINA RESULT:    -6.482      2.017      2.830
REMARK INTER + INTRA:          -8.553
REMARK INTER:                  -8.014
REMARK INTRA:                  -0.539
REMARK UNBOUND:                -0.555
REMARK  Name = 
REMARK  4 active torsions:
REMARK  status: ('A' for Active; 'I' for Inactive)
REMARK    1  A    between atoms: C_2  and  C_4
REMARK    2  A    between atoms: C_8  and  C_9
REMARK    3  A    between atoms: C_10  and  C_11
REMARK    4  A    between atoms: C_15  and  C_16
REMARK                            x       y       z     vdW  Elec       q    Type
REMARK                         _______ _______ _______ _____ _____    ______ ____
ROOT
ATOM      1  C   UNL     1      46.439   5.905  13.252  0.00  0.00    +0.000 C 
ATOM      2  C   UNL     1      47.349   6.131  13.999  0.00  0.00    +0.000 C 
ENDROOT
BRANCH   1   7
ATOM      3  C   UNL     1      44.556   4.678  10.279  0.00  0.00    +0.000 A 
ATOM      4  C   UNL     1      43.237   4.872  10.708  0.00  0.00    +0.000 A 
ATOM      5  C   UNL     1      42.984   5.408  11.972  0.00  0.00    +0.000 A 
ATOM      6  C   UNL     1      44.047   5.744  12.809  0.00  0.00    +0.000 A 
ATOM      7  C   UNL     1      45.363   5.547  12.384  0.00  0.00    +0.000 A 
ATOM      8  C   UNL     1      45.622   5.010  11.124  0.00  0.00    +0.000 A 
BRANCH   3  10
ATOM      9  N   UNL     1      44.328   2.866   8.671  0.00  0.00    +0.000 N 
ATOM     10  C   UNL     1      44.867   4.090   8.952  0.00  0.00    +0.000 C 
ATOM     11  O   UNL     1      45.549   4.685   8.127  0.00  0.00    +0.000 OA
ATOM     12  H   UNL     1      44.465   2.524   7.729  0.00  0.00    +0.000 HD
ATOM     13  H   UNL     1      43.565   2.476   9.206  0.00  0.00    +0.000 HD
ENDBRANCH   3  10
ENDBRANCH   1   7
BRANCH   2  14
ATOM     14  C   UNL     1      48.430   6.306  14.913  0.00  0.00    +0.000 A 
ATOM     15  C   UNL     1      49.411   7.251  14.629  0.00  0.00    +0.000 A 
ATOM     16  C   UNL     1      50.473   7.425  15.507  0.00  0.00    +0.000 A 
ATOM     17  C   UNL     1      50.557   6.647  16.663  0.00  0.00    +0.000 A 
ATOM     18  C   UNL     1      49.595   5.667  16.962  0.00  0.00    +0.000 A 
ATOM     19  C   UNL     1      48.511   5.529  16.075  0.00  0.00    +0.000 A 
BRANCH  18  20
ATOM     20  C   UNL     1      49.648   4.799  18.220  0.00  0.00    +0.000 C 
ATOM     21  C   UNL     1      51.056   4.388  18.695  0.00  0.00    +0.000 C 
ATOM     22  C   UNL     1      51.667   3.281  17.829  0.00  0.00    +0.000 C 
ATOM     23  N   UNL     1      50.808   2.100  17.745  0.00  0.00    +0.000 NA
ATOM     24  C   UNL     1      49.469   2.442  17.261  0.00  0.00    +0.000 C 
ATOM     25  C   UNL     1      48.798   3.514  18.118  0.00  0.00    +0.000 C 
ATOM     26  H   UNL     1      50.734   1.674  18.667  0.00  0.00    +0.000 HD
ENDBRANCH  18  20
ENDBRANCH   2  14
TORSDOF 4
ENDMDL
MODEL 4
REMARK VINA RESULT:    -6.428      3.014      8.926
REMARK INTER + INTRA:          -8.486
REMARK INTER:                  -8.115
REMARK INTRA:                  -0.371
REMARK UNBOUND:                -0.555
REMARK  Name = 
REMARK  4 active torsions:
REMARK  status: ('A' for Active; 'I' for Inactive)
REMARK    1  A    between atoms: C_2  and  C_4
REMARK    2  A    between atoms: C_8  and  C_9
REMARK    3  A    between atoms: C_10  and  C_11
REMARK    4  A    between atoms: C_15  and  C_16
REMARK                            x       y       z     vdW  Elec       q    Type
REMARK                         _______ _______ _______ _____ _____    ______ ____
ROOT
ATOM      1  C   UNL     1      47.678   4.952  15.847  0.00  0.00    +0.000 C 
ATOM      2  C   UNL     1      47.323   5.216  14.734  0.00  0.00    +0.000 C 
ENDROOT
BRANCH   1   7
ATOM      3  C   UNL     1      48.033   5.280  19.543  0.00  0.00    +0.000 A 
ATOM      4  C   UNL     1      48.966   4.269  19.805  0.00  0.00    +0.000 A 
ATOM      5  C   UNL     1      49.470   3.494  18.761  0.00  0.00    +0.000 A 
ATOM      6  C   UNL     1      49.037   3.722  17.455  0.00  0.00    +0.000 A 
ATOM      7  C   UNL     1      48.103   4.727  17.192  0.00  0.00    +0.000 A 
ATOM      8  C   UNL     1      47.595   5.503  18.232  0.00  0.00    +0.000 A 
BRANCH   3  10
ATOM      9  N   UNL     1      47.010   5.460  21.743  0.00  0.00    +0.000 N 
ATOM     10  C   UNL     1      47.457   6.112  20.629  0.00  0.00    +0.000 C 
ATOM     11  O   UNL     1      47.411   7.333  20.549  0.00  0.00    +0.000 OA
ATOM     12  H   UNL     1      46.713   6.045  22.513  0.00  0.00    +0.000 HD
ATOM     13  H   UNL     1      47.267   4.506  21.950  0.00  0.00    +0.000 HD
ENDBRANCH   3  10
ENDBRANCH   1   7
BRANCH   2  14
ATOM     14  C   UNL     1      46.898   5.624  13.434  0.00  0.00    +0.000 A 
ATOM     15  C   UNL     1      47.728   6.445  12.676  0.00  0.00    +0.000 A 
ATOM     16  C   UNL     1      47.322   6.855  11.413  0.00  0.00    +0.000 A 
ATOM     17  C   UNL     1      46.082   6.452  10.914  0.00  0.00    +0.000 A 
ATOM     18  C   UNL     1      45.212   5.646  11.667  0.00  0.00    +0.000 A 
ATOM     19  C   UNL     1      45.657   5.215  12.932  0.00  0.00    +0.000 A 
BRANCH  18  20
ATOM     20  C   UNL     1      43.849   5.178  11.155  0.00  0.00    +0.000 C 
ATOM     21  C   UNL     1      43.008   4.344  12.142  0.00  0.00    +0.000 C 
ATOM     22  C   UNL     1      43.521   2.907  12.279  0.00  0.00    +0.000 C 
ATOM     23  N   UNL     1      43.600   2.218  10.991  0.00  0.00    +0.000 NA
ATOM     24  C   UNL     1      44.422   2.959  10.034  0.00  0.00    +0.000 C 
ATOM     25  C   UNL     1      43.926   4.391   9.829  0.00  0.00    +0.000 C 
ATOM     26  H   UNL     1      42.661   2.106  10.613  0.00  0.00    +0.000 HD
ENDBRANCH  18  20
ENDBRANCH   2  14
TORSDOF 4
ENDMDL
MODEL 5
REMARK VINA RESULT:    -6.307      2.034      2.626
REMARK INTER + INTRA:          -8.337
REMARK INTER:                  -7.825
REMARK INTRA:                  -0.511
REMARK UNBOUND:                -0.555
REMARK  Name = 
REMARK  4 active torsions:
REMARK  status: ('A' for Active; 'I' for Inactive)
REMARK    1  A    between atoms: C_2  and  C_4
REMARK    2  A    between atoms: C_8  and  C_9
REMARK    3  A    between atoms: C_10  and  C_11
REMARK    4  A    between atoms: C_15  and  C_16
REMARK                            x       y       z     vdW  Elec       q    Type
REMARK                         _______ _______ _______ _____ _____    ______ ____
ROOT
ATOM      1  C   UNL     1      46.098   4.662  13.837  0.00  0.00    +0.000 C 
ATOM      2  C   UNL     1      46.858   4.543  14.757  0.00  0.00    +0.000 C 
ENDROOT
BRANCH   1   7
ATOM      3  C   UNL     1      44.464   4.505  10.492  0.00  0.00    +0.000 A 
ATOM      4  C   UNL     1      43.206   5.043  10.791  0.00  0.00    +0.000 A 
ATOM      5  C   UNL     1      42.913   5.454  12.092  0.00  0.00    +0.000 A 
ATOM      6  C   UNL     1      43.872   5.322  13.096  0.00  0.00    +0.000 A 
ATOM      7  C   UNL     1      45.126   4.782  12.799  0.00  0.00    +0.000 A 
ATOM      8  C   UNL     1      45.423   4.368  11.502  0.00  0.00    +0.000 A 
BRANCH   3  10
ATOM      9  N   UNL     1      44.316   2.820   8.743  0.00  0.00    +0.000 N 
ATOM     10  C   UNL     1      44.808   4.036   9.126  0.00  0.00    +0.000 C 
ATOM     11  O   UNL     1      45.475   4.719   8.359  0.00  0.00    +0.000 OA
ATOM     12  H   UNL     1      44.474   2.559   7.778  0.00  0.00    +0.000 HD
ATOM     13  H   UNL     1      43.564   2.362   9.236  0.00  0.00    +0.000 HD
ENDBRANCH   3  10
ENDBRANCH   1   7
BRANCH   2  14
ATOM     14  C   UNL     1      47.685   4.386  15.909  0.00  0.00    +0.000 A 
ATOM     15  C   UNL     1      47.661   3.179  16.600  0.00  0.00    +0.000 A 
ATOM     16  C   UNL     1      48.456   3.016  17.728  0.00  0.00    +0.000 A 
ATOM     17  C   UNL     1      49.266   4.064  18.166  0.00  0.00    +0.000 A 
ATOM     18  C   UNL     1      49.291   5.303  17.503  0.00  0.00    +0.000 A 
ATOM     19  C   UNL     1      48.502   5.436  16.346  0.00  0.00    +0.000 A 
BRANCH  18  20
ATOM     20  C   UNL     1      50.169   6.473  17.949  0.00  0.00    +0.000 C 
ATOM     21  C   UNL     1      50.478   7.532  16.871  0.00  0.00    +0.000 C 
ATOM     22  C   UNL     1      51.524   7.049  15.860  0.00  0.00    +0.000 C 
ATOM     23  N   UNL     1      52.765   6.620  16.503  0.00  0.00    +0.000 NA
ATOM     24  C   UNL     1      52.520   5.587  17.510  0.00  0.00    +0.000 C 
ATOM     25  C   UNL     1      51.513   6.035  18.569  0.00  0.00    +0.000 C 
ATOM     26  H   UNL     1      53.208   7.424  16.946  0.00  0.00    +0.000 HD
ENDBRANCH  18  20
ENDBRANCH   2  14
TORSDOF 4
ENDMDL
MODEL 6
REMARK VINA RESULT:    -5.941      1.919      2.496
REMARK INTER + INTRA:          -7.885
REMARK INTER:                  -7.672
REMARK INTRA:                  -0.213
REMARK UNBOUND:                -0.555
REMARK  Name = 
REMARK  4 active torsions:
REMARK  status: ('A' for Active; 'I' for Inactive)
REMARK    1  A    between atoms: C_2  and  C_4
REMARK    2  A    between atoms: C_8  and  C_9
REMARK    3  A    between atoms: C_10  and  C_11
REMARK    4  A    between atoms: C_15  and  C_16
REMARK                            x       y       z     vdW  Elec       q    Type
REMARK                         _______ _______ _______ _____ _____    ______ ____
ROOT
ATOM      1  C   UNL     1      46.707   6.112  12.876  0.00  0.00    +0.000 C 
ATOM      2  C   UNL     1      47.603   6.437  13.603  0.00  0.00    +0.000 C 
ENDROOT
BRANCH   1   7
ATOM      3  C   UNL     1      44.726   4.760  10.024  0.00  0.00    +0.000 A 
ATOM      4  C   UNL     1      43.428   4.844  10.545  0.00  0.00    +0.000 A 
ATOM      5  C   UNL     1      43.222   5.349  11.830  0.00  0.00    +0.000 A 
ATOM      6  C   UNL     1      44.310   5.763  12.597  0.00  0.00    +0.000 A 
ATOM      7  C   UNL     1      45.605   5.675  12.080  0.00  0.00    +0.000 A 
ATOM      8  C   UNL     1      45.817   5.170  10.798  0.00  0.00    +0.000 A 
BRANCH   3  10
ATOM      9  N   UNL     1      44.254   3.123   8.287  0.00  0.00    +0.000 N 
ATOM     10  C   UNL     1      44.989   4.209   8.671  0.00  0.00    +0.000 C 
ATOM     11  O   UNL     1      45.805   4.720   7.915  0.00  0.00    +0.000 OA
ATOM     12  H   UNL     1      44.373   2.821   7.328  0.00  0.00    +0.000 HD
ATOM     13  H   UNL     1      43.409   2.845   8.765  0.00  0.00    +0.000 HD
ENDBRANCH   3  10
ENDBRANCH   1   7
BRANCH   2  14
ATOM     14  C   UNL     1      48.625   6.774  14.539  0.00  0.00    +0.000 A 
ATOM     15  C   UNL     1      49.619   7.672  14.162  0.00  0.00    +0.000 A 
ATOM     16  C   UNL     1      50.625   8.003  15.062  0.00  0.00    +0.000 A 
ATOM     17  C   UNL     1      50.638   7.428  16.334  0.00  0.00    +0.000 A 
ATOM     18  C   UNL     1      49.663   6.498  16.732  0.00  0.00    +0.000 A 
ATOM     19  C   UNL     1      48.636   6.201  15.817  0.00  0.00    +0.000 A 
BRANCH  18  20
ATOM     20  C   UNL     1      49.640   5.850  18.117  0.00  0.00    +0.000 C 
ATOM     21  C   UNL     1      48.922   4.489  18.212  0.00  0.00    +0.000 C 
ATOM     22  C   UNL     1      47.397   4.629  18.183  0.00  0.00    +0.000 C 
ATOM     23  N   UNL     1      46.898   5.525  19.225  0.00  0.00    +0.000 NA
ATOM     24  C   UNL     1      47.529   6.844  19.148  0.00  0.00    +0.000 C 
ATOM     25  C   UNL     1      49.053   6.763  19.216  0.00  0.00    +0.000 C 
ATOM     26  H   UNL     1      47.087   5.114  20.138  0.00  0.00    +0.000 HD
ENDBRANCH  18  20
ENDBRANCH   2  14
TORSDOF 4
ENDMDL
MODEL 7
REMARK VINA RESULT:    -5.926      1.875      2.052
REMARK INTER + INTRA:          -7.867
REMARK INTER:                  -7.290
REMARK INTRA:                  -0.577
REMARK UNBOUND:                -0.555
REMARK  Name = 
REMARK  4 active torsions:
REMARK  status: ('A' for Active; 'I' for Inactive)
REMARK    1  A    between atoms: C_2  and  C_4
REMARK    2  A    between atoms: C_8  and  C_9
REMARK    3  A    between atoms: C_10  and  C_11
REMARK    4  A    between atoms: C_15  and  C_16
REMARK                            x       y       z     vdW  Elec       q    Type
REMARK                         _______ _______ _______ _____ _____    ______ ____
ROOT
ATOM      1  C   UNL     1      46.181   4.524  14.098  0.00  0.00    +0.000 C 
ATOM      2  C   UNL     1      46.932   4.223  14.982  0.00  0.00    +0.000 C 
ENDROOT
BRANCH   1   7
ATOM      3  C   UNL     1      44.380   6.741  11.704  0.00  0.00    +0.000 A 
ATOM      4  C   UNL     1      43.578   5.806  11.036  0.00  0.00    +0.000 A 
ATOM      5  C   UNL     1      43.639   4.456  11.385  0.00  0.00    +0.000 A 
ATOM      6  C   UNL     1      44.504   4.038  12.396  0.00  0.00    +0.000 A 
ATOM      7  C   UNL     1      45.307   4.969  13.060  0.00  0.00    +0.000 A 
ATOM      8  C   UNL     1      45.252   6.318  12.714  0.00  0.00    +0.000 A 
BRANCH   3  10
ATOM      9  N   UNL     1      43.222   8.665  10.767  0.00  0.00    +0.000 N 
ATOM     10  C   UNL     1      44.361   8.182  11.348  0.00  0.00    +0.000 C 
ATOM     11  O   UNL     1      45.308   8.918  11.591  0.00  0.00    +0.000 OA
ATOM     12  H   UNL     1      43.186   9.665  10.622  0.00  0.00    +0.000 HD
ATOM     13  H   UNL     1      42.347   8.162  10.793  0.00  0.00    +0.000 HD
ENDBRANCH   3  10
ENDBRANCH   1   7
BRANCH   2  14
ATOM     14  C   UNL     1      47.850   3.960  16.042  0.00  0.00    +0.000 A 
ATOM     15  C   UNL     1      48.449   2.707  16.124  0.00  0.00    +0.000 A 
ATOM     16  C   UNL     1      49.339   2.436  17.156  0.00  0.00    +0.000 A 
ATOM     17  C   UNL     1      49.619   3.416  18.109  0.00  0.00    +0.000 A 
ATOM     18  C   UNL     1      49.009   4.681  18.067  0.00  0.00    +0.000 A 
ATOM     19  C   UNL     1      48.136   4.945  16.995  0.00  0.00    +0.000 A 
BRANCH  18  20
ATOM     20  C   UNL     1      49.294   5.783  19.088  0.00  0.00    +0.000 C 
ATOM     21  C   UNL     1      49.781   5.308  20.473  0.00  0.00    +0.000 C 
ATOM     22  C   UNL     1      48.647   4.725  21.323  0.00  0.00    +0.000 C 
ATOM     23  N   UNL     1      47.533   5.659  21.483  0.00  0.00    +0.000 NA
ATOM     24  C   UNL     1      47.016   6.107  20.189  0.00  0.00    +0.000 C 
ATOM     25  C   UNL     1      48.101   6.736  19.317  0.00  0.00    +0.000 C 
ATOM     26  H   UNL     1      47.847   6.467  22.018  0.00  0.00    +0.000 HD
ENDBRANCH  18  20
ENDBRANCH   2  14
TORSDOF 4
ENDMDL
MODEL 8
REMARK VINA RESULT:    -5.900      6.364      8.389
REMARK INTER + INTRA:          -7.834
REMARK INTER:                  -7.257
REMARK INTRA:                  -0.577
REMARK UNBOUND:                -0.555
REMARK  Name = 
REMARK  4 active torsions:
REMARK  status: ('A' for Active; 'I' for Inactive)
REMARK    1  A    between atoms: C_2  and  C_4
REMARK    2  A    between atoms: C_8  and  C_9
REMARK    3  A    between atoms: C_10  and  C_11
REMARK    4  A    between atoms: C_15  and  C_16
REMARK                            x       y       z     vdW  Elec       q    Type
REMARK                         _______ _______ _______ _____ _____    ______ ____
ROOT
ATOM      1  C   UNL     1      47.807   7.148  12.157  0.00  0.00    +0.000 C 
ATOM      2  C   UNL     1      48.751   7.815  11.840  0.00  0.00    +0.000 C 
ENDROOT
BRANCH   1   7
ATOM      3  C   UNL     1      44.323   5.828  12.201  0.00  0.00    +0.000 A 
ATOM      4  C   UNL     1      44.474   4.721  13.048  0.00  0.00    +0.000 A 
ATOM      5  C   UNL     1      45.723   4.426  13.596  0.00  0.00    +0.000 A 
ATOM      6  C   UNL     1      46.822   5.230  13.295  0.00  0.00    +0.000 A 
ATOM      7  C   UNL     1      46.673   6.331  12.448  0.00  0.00    +0.000 A 
ATOM      8  C   UNL     1      45.428   6.630  11.895  0.00  0.00    +0.000 A 
BRANCH   3  10
ATOM      9  N   UNL     1      42.894   7.401  11.018  0.00  0.00    +0.000 N 
ATOM     10  C   UNL     1      43.016   6.162  11.581  0.00  0.00    +0.000 C 
ATOM     11  O   UNL     1      42.096   5.356  11.542  0.00  0.00    +0.000 OA
ATOM     12  H   UNL     1      42.035   7.579  10.513  0.00  0.00    +0.000 HD
ATOM     13  H   UNL     1      43.694   7.978  10.801  0.00  0.00    +0.000 HD
ENDBRANCH   3  10
ENDBRANCH   1   7
BRANCH   2  14
ATOM     14  C   UNL     1      49.863   8.576  11.371  0.00  0.00    +0.000 A 
ATOM     15  C   UNL     1      49.765   9.963  11.328  0.00  0.00    +0.000 A 
ATOM     16  C   UNL     1      50.838  10.715  10.866  0.00  0.00    +0.000 A 
ATOM     17  C   UNL     1      52.003  10.076  10.439  0.00  0.00    +0.000 A 
ATOM     18  C   UNL     1      52.121   8.676  10.446  0.00  0.00    +0.000 A 
ATOM     19  C   UNL     1      51.034   7.936  10.947  0.00  0.00    +0.000 A 
BRANCH  18  20
ATOM     20  C   UNL     1      53.382   7.940   9.992  0.00  0.00    +0.000 C 
ATOM     21  C   UNL     1      54.292   8.706   9.011  0.00  0.00    +0.000 C 
ATOM     22  C   UNL     1      53.723   8.739   7.589  0.00  0.00    +0.000 C 
ATOM     23  N   UNL     1      53.447   7.402   7.066  0.00  0.00    +0.000 NA
ATOM     24  C   UNL     1      52.554   6.652   7.951  0.00  0.00    +0.000 C 
ATOM     25  C   UNL     1      53.098   6.553   9.376  0.00  0.00    +0.000 C 
ATOM     26  H   UNL     1      54.325   6.894   6.965  0.00  0.00    +0.000 HD
ENDBRANCH  18  20
ENDBRANCH   2  14
TORSDOF 4
ENDMDL
MODEL 9
REMARK VINA RESULT:    -5.799      5.787      7.087
REMARK INTER + INTRA:          -7.710
REMARK INTER:                  -7.172
REMARK INTRA:                  -0.537
REMARK UNBOUND:                -0.555
REMARK  Name = 
REMARK  4 active torsions:
REMARK  status: ('A' for Active; 'I' for Inactive)
REMARK    1  A    between atoms: C_2  and  C_4
REMARK    2  A    between atoms: C_8  and  C_9
REMARK    3  A    between atoms: C_10  and  C_11
REMARK    4  A    between atoms: C_15  and  C_16
REMARK                            x       y       z     vdW  Elec       q    Type
REMARK                         _______ _______ _______ _____ _____    ______ ____
ROOT
ATOM      1  C   UNL     1      47.292   6.782  11.922  0.00  0.00    +0.000 C 
ATOM      2  C   UNL     1      48.375   7.289  12.017  0.00  0.00    +0.000 C 
ENDROOT
BRANCH   1   7
ATOM      3  C   UNL     1      44.432   4.653  10.841  0.00  0.00    +0.000 A 
ATOM      4  C   UNL     1      43.507   4.924  11.858  0.00  0.00    +0.000 A 
ATOM      5  C   UNL     1      43.836   5.807  12.886  0.00  0.00    +0.000 A 
ATOM      6  C   UNL     1      45.091   6.416  12.903  0.00  0.00    +0.000 A 
ATOM      7  C   UNL     1      46.016   6.144  11.892  0.00  0.00    +0.000 A 
ATOM      8  C   UNL     1      45.693   5.260  10.864  0.00  0.00    +0.000 A 
BRANCH   3  10
ATOM      9  N   UNL     1      44.164   4.192   8.467  0.00  0.00    +0.000 N 
ATOM     10  C   UNL     1      44.128   3.702   9.742  0.00  0.00    +0.000 C 
ATOM     11  O   UNL     1      43.887   2.521   9.960  0.00  0.00    +0.000 OA
ATOM     12  H   UNL     1      44.054   3.512   7.725  0.00  0.00    +0.000 HD
ATOM     13  H   UNL     1      44.607   5.070   8.238  0.00  0.00    +0.000 HD
ENDBRANCH   3  10
ENDBRANCH   1   7
BRANCH   2  14
ATOM     14  C   UNL     1      49.668   7.855  12.220  0.00  0.00    +0.000 A 
ATOM     15  C   UNL     1      49.975   8.417  13.456  0.00  0.00    +0.000 A 
ATOM     16  C   UNL     1      51.229   8.978  13.663  0.00  0.00    +0.000 A 
ATOM     17  C   UNL     1      52.168   8.986  12.631  0.00  0.00    +0.000 A 
ATOM     18  C   UNL     1      51.877   8.451  11.365  0.00  0.00    +0.000 A 
ATOM     19  C   UNL     1      50.613   7.858  11.186  0.00  0.00    +0.000 A 
BRANCH  18  20
ATOM     20  C   UNL     1      52.880   8.435  10.212  0.00  0.00    +0.000 C 
ATOM     21  C   UNL     1      52.779   7.235   9.248  0.00  0.00    +0.000 C 
ATOM     22  C   UNL     1      53.356   5.950   9.851  0.00  0.00    +0.000 C 
ATOM     23  N   UNL     1      54.740   6.113  10.295  0.00  0.00    +0.000 NA
ATOM     24  C   UNL     1      54.874   7.222  11.242  0.00  0.00    +0.000 C 
ATOM     25  C   UNL     1      54.350   8.539  10.671  0.00  0.00    +0.000 C 
ATOM     26  H   UNL     1      55.332   6.289   9.484  0.00  0.00    +0.000 HD
ENDBRANCH  18  20
ENDBRANCH   2  14
TORSDOF 4
ENDMDL
