MODEL 1
REMARK VINA RESULT:    -8.647      0.000      0.000
REMARK INTER + INTRA:         -13.820
REMARK INTER:                 -12.186
REMARK INTRA:                  -1.634
REMARK UNBOUND:                -1.634
REMARK  Name = 
REMARK  7 active torsions:
REMARK  status: ('A' for Active; 'I' for Inactive)
REMARK    1  A    between atoms: C_2  and  C_4
REMARK    2  A    between atoms: C_4  and  N_5
REMARK    3  A    between atoms: C_4  and  C_18
REMARK    4  A    between atoms: C_6  and  C_8
REMARK    5  A    between atoms: C_21  and  C_22
REMARK    6  A    between atoms: C_22  and  N_23
REMARK    7  A    between atoms: C_24  and  C_26
REMARK                            x       y       z     vdW  Elec       q    Type
REMARK                         _______ _______ _______ _____ _____    ______ ____
ROOT
ATOM      1  C   UNL     1      47.919   4.635  14.901  0.00  0.00    +0.000 C 
ENDROOT
BRANCH   1   2
ATOM      2  C   UNL     1      46.937   4.571  13.733  0.00  0.00    +0.000 A 
ATOM      3  C   UNL     1      46.598   5.741  13.031  0.00  0.00    +0.000 A 
ATOM      4  C   UNL     1      45.720   5.700  11.939  0.00  0.00    +0.000 A 
ATOM      5  C   UNL     1      45.154   4.488  11.526  0.00  0.00    +0.000 A 
ATOM      6  C   UNL     1      45.465   3.326  12.241  0.00  0.00    +0.000 A 
ATOM      7  C   UNL     1      46.328   3.370  13.342  0.00  0.00    +0.000 A 
BRANCH   5   8
ATOM      8  C   UNL     1      44.252   4.421  10.319  0.00  0.00    +0.000 C 
BRANCH   8   9
ATOM      9  N   UNL     1      44.799   3.546   9.306  0.00  0.00    +0.000 N 
ATOM     10  C   UNL     1      45.725   4.020   8.400  0.00  0.00    +0.000 C 
ATOM     11  O   UNL     1      46.124   5.178   8.390  0.00  0.00    +0.000 OA
ATOM     12  H   UNL     1      44.700   2.550   9.438  0.00  0.00    +0.000 HD
BRANCH  10  13
ATOM     13  C   UNL     1      46.258   3.033   7.420  0.00  0.00    +0.000 A 
ATOM     14  C   UNL     1      46.525   3.393   6.092  0.00  0.00    +0.000 A 
ATOM     15  C   UNL     1      47.055   2.451   5.207  0.00  0.00    +0.000 A 
ATOM     16  C   UNL     1      47.325   1.154   5.644  0.00  0.00    +0.000 A 
ATOM     17  C   UNL     1      47.072   0.794   6.967  0.00  0.00    +0.000 A 
ATOM     18  C   UNL     1      46.544   1.734   7.857  0.00  0.00    +0.000 A 
ENDBRANCH  10  13
ENDBRANCH   8   9
ENDBRANCH   5   8
ENDBRANCH   1   2
BRANCH   1  20
ATOM     19  N   UNL     1      46.770   3.554  16.834  0.00  0.00    +0.000 N 
ATOM     20  C   UNL     1      47.773   3.472  15.916  0.00  0.00    +0.000 C 
ATOM     21  O   UNL     1      48.521   2.492  15.916  0.00  0.00    +0.000 OA
ATOM     22  H   UNL     1      46.685   2.798  17.502  0.00  0.00    +0.000 HD
ATOM     23  H   UNL     1      46.109   4.318  16.870  0.00  0.00    +0.000 HD
ENDBRANCH   1  20
BRANCH   1  24
ATOM     24  N   UNL     1      47.735   5.848  15.681  0.00  0.00    +0.000 N 
ATOM     25  C   UNL     1      48.789   6.553  16.197  0.00  0.00    +0.000 C 
ATOM     26  O   UNL     1      49.955   6.270  15.953  0.00  0.00    +0.000 OA
ATOM     27  H   UNL     1      46.817   5.957  16.100  0.00  0.00    +0.000 HD
BRANCH  25  28
ATOM     28  C   UNL     1      48.415   7.702  17.021  0.00  0.00    +0.000 A 
ATOM     29  C   UNL     1      48.476   9.021  16.596  0.00  0.00    +0.000 A 
ATOM     30  S   UNL     1      48.193  10.146  17.854  0.00  0.00    +0.000 S 
ATOM     31  C   UNL     1      47.966   8.899  18.992  0.00  0.00    +0.000 A 
ATOM     32  N   UNL     1      47.760   9.170  20.309  0.00  0.00    +0.000 NA
ATOM     33  C   UNL     1      47.632   8.120  21.048  0.00  0.00    +0.000 A 
ATOM     34  N   UNL     1      47.647   6.825  20.587  0.00  0.00    +0.000 N 
ATOM     35  C   UNL     1      47.712   6.513  19.247  0.00  0.00    +0.000 A 
ATOM     36  O   UNL     1      47.441   5.388  18.847  0.00  0.00    +0.000 OA
ATOM     37  C   UNL     1      48.017   7.652  18.401  0.00  0.00    +0.000 A 
ATOM     38  H   UNL     1      47.432   6.057  21.202  0.00  0.00    +0.000 HD
ENDBRANCH  25  28
ENDBRANCH   1  24
TORSDOF 7
ENDMDL
MODEL 2
REMARK VINA RESULT:    -8.144      2.583      3.616
REMARK INTER + INTRA:         -13.111
REMARK INTER:                 -11.697
REMARK INTRA:                  -1.414
REMARK UNBOUND:                -1.634
REMARK  Name = 
REMARK  7 active torsions:
REMARK  status: ('A' for Active; 'I' for Inactive)
REMARK    1  A    between atoms: C_2  and  C_4
REMARK    2  A    between atoms: C_4  and  N_5
REMARK    3  A    between atoms: C_4  and  C_18
REMARK    4  A    between atoms: C_6  and  C_8
REMARK    5  A    between atoms: C_21  and  C_22
REMARK    6  A    between atoms: C_22  and  N_23
REMARK    7  A    between atoms: C_24  and  C_26
REMARK                            x       y       z     vdW  Elec       q    Type
REMARK                         _______ _______ _______ _____ _____    ______ ____
ROOT
ATOM      1  C   UNL     1      47.798   7.215  13.859  0.00  0.00    +0.000 C 
ENDROOT
BRANCH   1   2
ATOM      2  C   UNL     1      46.864   6.229  13.160  0.00  0.00    +0.000 A 
ATOM      3  C   UNL     1      46.147   6.624  12.017  0.00  0.00    +0.000 A 
ATOM      4  C   UNL     1      45.307   5.726  11.344  0.00  0.00    +0.000 A 
ATOM      5  C   UNL     1      45.158   4.412  11.802  0.00  0.00    +0.000 A 
ATOM      6  C   UNL     1      45.846   4.023  12.957  0.00  0.00    +0.000 A 
ATOM      7  C   UNL     1      46.671   4.925  13.638  0.00  0.00    +0.000 A 
BRANCH   5   8
ATOM      8  C   UNL     1      44.300   3.421  11.056  0.00  0.00    +0.000 C 
BRANCH   8   9
ATOM      9  N   UNL     1      45.053   2.759  10.014  0.00  0.00    +0.000 N 
ATOM     10  C   UNL     1      45.056   3.260   8.729  0.00  0.00    +0.000 C 
ATOM     11  O   UNL     1      44.432   4.261   8.396  0.00  0.00    +0.000 OA
ATOM     12  H   UNL     1      45.770   2.104  10.291  0.00  0.00    +0.000 HD
BRANCH  10  13
ATOM     13  C   UNL     1      45.892   2.531   7.735  0.00  0.00    +0.000 A 
ATOM     14  C   UNL     1      46.312   3.141   6.545  0.00  0.00    +0.000 A 
ATOM     15  C   UNL     1      47.123   2.438   5.650  0.00  0.00    +0.000 A 
ATOM     16  C   UNL     1      47.520   1.133   5.941  0.00  0.00    +0.000 A 
ATOM     17  C   UNL     1      47.114   0.526   7.129  0.00  0.00    +0.000 A 
ATOM     18  C   UNL     1      46.306   1.225   8.028  0.00  0.00    +0.000 A 
ENDBRANCH  10  13
ENDBRANCH   8   9
ENDBRANCH   5   8
ENDBRANCH   1   2
BRANCH   1  20
ATOM     19  N   UNL     1      49.790   7.421  12.371  0.00  0.00    +0.000 N 
ATOM     20  C   UNL     1      48.692   8.035  12.894  0.00  0.00    +0.000 C 
ATOM     21  O   UNL     1      48.443   9.203  12.588  0.00  0.00    +0.000 OA
ATOM     22  H   UNL     1      50.377   7.963  11.750  0.00  0.00    +0.000 HD
ATOM     23  H   UNL     1      50.034   6.459  12.563  0.00  0.00    +0.000 HD
ENDBRANCH   1  20
BRANCH   1  24
ATOM     24  N   UNL     1      48.723   6.528  14.746  0.00  0.00    +0.000 N 
ATOM     25  C   UNL     1      49.049   7.016  15.983  0.00  0.00    +0.000 C 
ATOM     26  O   UNL     1      48.509   8.004  16.466  0.00  0.00    +0.000 OA
ATOM     27  H   UNL     1      49.355   5.877  14.292  0.00  0.00    +0.000 HD
BRANCH  25  28
ATOM     28  C   UNL     1      50.055   6.237  16.706  0.00  0.00    +0.000 A 
ATOM     29  C   UNL     1      51.298   6.725  17.081  0.00  0.00    +0.000 A 
ATOM     30  S   UNL     1      52.333   5.513  17.706  0.00  0.00    +0.000 S 
ATOM     31  C   UNL     1      51.139   4.314  17.506  0.00  0.00    +0.000 A 
ATOM     32  N   UNL     1      51.396   3.007  17.780  0.00  0.00    +0.000 NA
ATOM     33  C   UNL     1      50.401   2.217  17.554  0.00  0.00    +0.000 A 
ATOM     34  N   UNL     1      49.159   2.618  17.121  0.00  0.00    +0.000 N 
ATOM     35  C   UNL     1      48.817   3.943  16.967  0.00  0.00    +0.000 A 
ATOM     36  O   UNL     1      47.646   4.284  16.858  0.00  0.00    +0.000 OA
ATOM     37  C   UNL     1      49.948   4.848  17.056  0.00  0.00    +0.000 A 
ATOM     38  H   UNL     1      48.396   1.964  17.069  0.00  0.00    +0.000 HD
ENDBRANCH  25  28
ENDBRANCH   1  24
TORSDOF 7
ENDMDL
MODEL 3
REMARK VINA RESULT:    -7.947      2.493      3.710
REMARK INTER + INTRA:         -12.833
REMARK INTER:                 -11.507
REMARK INTRA:                  -1.326
REMARK UNBOUND:                -1.634
REMARK  Name = 
REMARK  7 active torsions:
REMARK  status: ('A' for Active; 'I' for Inactive)
REMARK    1  A    between atoms: C_2  and  C_4
REMARK    2  A    between atoms: C_4  and  N_5
REMARK    3  A    between atoms: C_4  and  C_18
REMARK    4  A    between atoms: C_6  and  C_8
REMARK    5  A    between atoms: C_21  and  C_22
REMARK    6  A    between atoms: C_22  and  N_23
REMARK    7  A    between atoms: C_24  and  C_26
REMARK                            x       y       z     vdW  Elec       q    Type
REMARK                         _______ _______ _______ _____ _____    ______ ____
ROOT
ATOM      1  C   UNL     1      47.477   7.373  14.007  0.00  0.00    +0.000 C 
ENDROOT
BRANCH   1   2
ATOM      2  C   UNL     1      46.643   6.418  13.155  0.00  0.00    +0.000 A 
ATOM      3  C   UNL     1      46.681   5.035  13.401  0.00  0.00    +0.000 A 
ATOM      4  C   UNL     1      45.902   4.145  12.649  0.00  0.00    +0.000 A 
ATOM      5  C   UNL     1      45.070   4.616  11.627  0.00  0.00    +0.000 A 
ATOM      6  C   UNL     1      45.052   5.989  11.358  0.00  0.00    +0.000 A 
ATOM      7  C   UNL     1      45.843   6.876  12.097  0.00  0.00    +0.000 A 
BRANCH   5   8
ATOM      8  C   UNL     1      44.186   3.675  10.847  0.00  0.00    +0.000 C 
BRANCH   8   9
ATOM      9  N   UNL     1      44.948   2.939   9.862  0.00  0.00    +0.000 N 
ATOM     10  C   UNL     1      45.248   3.509   8.642  0.00  0.00    +0.000 C 
ATOM     11  O   UNL     1      44.891   4.637   8.321  0.00  0.00    +0.000 OA
ATOM     12  H   UNL     1      45.471   2.133  10.174  0.00  0.00    +0.000 HD
BRANCH  10  13
ATOM     13  C   UNL     1      46.069   2.687   7.711  0.00  0.00    +0.000 A 
ATOM     14  C   UNL     1      46.419   1.365   8.017  0.00  0.00    +0.000 A 
ATOM     15  C   UNL     1      47.162   0.611   7.105  0.00  0.00    +0.000 A 
ATOM     16  C   UNL     1      47.552   1.169   5.888  0.00  0.00    +0.000 A 
ATOM     17  C   UNL     1      47.197   2.481   5.573  0.00  0.00    +0.000 A 
ATOM     18  C   UNL     1      46.451   3.238   6.481  0.00  0.00    +0.000 A 
ENDBRANCH  10  13
ENDBRANCH   8   9
ENDBRANCH   5   8
ENDBRANCH   1   2
BRANCH   1  20
ATOM     19  N   UNL     1      47.993   9.663  13.160  0.00  0.00    +0.000 N 
ATOM     20  C   UNL     1      48.357   8.350  13.185  0.00  0.00    +0.000 C 
ATOM     21  O   UNL     1      49.360   7.984  12.568  0.00  0.00    +0.000 OA
ATOM     22  H   UNL     1      48.564  10.295  12.614  0.00  0.00    +0.000 HD
ATOM     23  H   UNL     1      47.198  10.030  13.666  0.00  0.00    +0.000 HD
ENDBRANCH   1  20
BRANCH   1  24
ATOM     24  N   UNL     1      48.406   6.647  14.858  0.00  0.00    +0.000 N 
ATOM     25  C   UNL     1      48.841   7.145  16.057  0.00  0.00    +0.000 C 
ATOM     26  O   UNL     1      48.402   8.182  16.539  0.00  0.00    +0.000 OA
ATOM     27  H   UNL     1      48.961   5.939  14.388  0.00  0.00    +0.000 HD
BRANCH  25  28
ATOM     28  C   UNL     1      49.832   6.317  16.743  0.00  0.00    +0.000 A 
ATOM     29  C   UNL     1      51.091   6.759  17.122  0.00  0.00    +0.000 A 
ATOM     30  S   UNL     1      52.100   5.501  17.696  0.00  0.00    +0.000 S 
ATOM     31  C   UNL     1      50.874   4.340  17.469  0.00  0.00    +0.000 A 
ATOM     32  N   UNL     1      51.099   3.019  17.697  0.00  0.00    +0.000 NA
ATOM     33  C   UNL     1      50.082   2.262  17.454  0.00  0.00    +0.000 A 
ATOM     34  N   UNL     1      48.846   2.710  17.048  0.00  0.00    +0.000 N 
ATOM     35  C   UNL     1      48.538   4.048  16.941  0.00  0.00    +0.000 A 
ATOM     36  O   UNL     1      47.375   4.422  16.856  0.00  0.00    +0.000 OA
ATOM     37  C   UNL     1      49.693   4.919  17.049  0.00  0.00    +0.000 A 
ATOM     38  H   UNL     1      48.066   2.077  16.982  0.00  0.00    +0.000 HD
ENDBRANCH  25  28
ENDBRANCH   1  24
TORSDOF 7
ENDMDL
MODEL 4
REMARK VINA RESULT:    -7.752      1.647      2.248
REMARK INTER + INTRA:         -12.558
REMARK INTER:                 -11.408
REMARK INTRA:                  -1.151
REMARK UNBOUND:                -1.634
REMARK  Name = 
REMARK  7 active torsions:
REMARK  status: ('A' for Active; 'I' for Inactive)
REMARK    1  A    between atoms: C_2  and  C_4
REMARK    2  A    between atoms: C_4  and  N_5
REMARK    3  A    between atoms: C_4  and  C_18
REMARK    4  A    between atoms: C_6  and  C_8
REMARK    5  A    between atoms: C_21  and  C_22
REMARK    6  A    between atoms: C_22  and  N_23
REMARK    7  A    between atoms: C_24  and  C_26
REMARK                            x       y       z     vdW  Elec       q    Type
REMARK                         _______ _______ _______ _____ _____    ______ ____
ROOT
ATOM      1  C   UNL     1      47.991   4.766  15.835  0.00  0.00    +0.000 C 
ENDROOT
BRANCH   1   2
ATOM      2  C   UNL     1      47.185   5.001  14.559  0.00  0.00    +0.000 A 
ATOM      3  C   UNL     1      47.455   6.118  13.749  0.00  0.00    +0.000 A 
ATOM      4  C   UNL     1      46.746   6.337  12.560  0.00  0.00    +0.000 A 
ATOM      5  C   UNL     1      45.744   5.447  12.154  0.00  0.00    +0.000 A 
ATOM      6  C   UNL     1      45.452   4.351  12.973  0.00  0.00    +0.000 A 
ATOM      7  C   UNL     1      46.148   4.142  14.168  0.00  0.00    +0.000 A 
BRANCH   5   8
ATOM      8  C   UNL     1      45.012   5.641  10.850  0.00  0.00    +0.000 C 
BRANCH   8   9
ATOM      9  N   UNL     1      45.641   4.896   9.782  0.00  0.00    +0.000 N 
ATOM     10  C   UNL     1      45.118   3.686   9.373  0.00  0.00    +0.000 C 
ATOM     11  O   UNL     1      44.125   3.177   9.878  0.00  0.00    +0.000 OA
ATOM     12  H   UNL     1      46.286   5.386   9.178  0.00  0.00    +0.000 HD
BRANCH  10  13
ATOM     13  C   UNL     1      45.814   3.013   8.240  0.00  0.00    +0.000 A 
ATOM     14  C   UNL     1      46.193   3.720   7.091  0.00  0.00    +0.000 A 
ATOM     15  C   UNL     1      46.874   3.065   6.062  0.00  0.00    +0.000 A 
ATOM     16  C   UNL     1      47.181   1.709   6.177  0.00  0.00    +0.000 A 
ATOM     17  C   UNL     1      46.815   1.003   7.324  0.00  0.00    +0.000 A 
ATOM     18  C   UNL     1      46.137   1.656   8.357  0.00  0.00    +0.000 A 
ENDBRANCH  10  13
ENDBRANCH   8   9
ENDBRANCH   5   8
ENDBRANCH   1   2
BRANCH   1  20
ATOM     19  N   UNL     1      48.446   2.399  16.479  0.00  0.00    +0.000 N 
ATOM     20  C   UNL     1      47.611   3.469  16.594  0.00  0.00    +0.000 C 
ATOM     21  O   UNL     1      46.596   3.379  17.288  0.00  0.00    +0.000 OA
ATOM     22  H   UNL     1      48.188   1.551  16.967  0.00  0.00    +0.000 HD
ATOM     23  H   UNL     1      49.305   2.418  15.946  0.00  0.00    +0.000 HD
ENDBRANCH   1  20
BRANCH   1  24
ATOM     24  N   UNL     1      47.790   5.842  16.792  0.00  0.00    +0.000 N 
ATOM     25  C   UNL     1      48.764   6.228  17.674  0.00  0.00    +0.000 C 
ATOM     26  O   UNL     1      49.898   5.765  17.648  0.00  0.00    +0.000 OA
ATOM     27  H   UNL     1      46.821   6.058  17.004  0.00  0.00    +0.000 HD
BRANCH  25  28
ATOM     28  C   UNL     1      48.362   7.272  18.616  0.00  0.00    +0.000 A 
ATOM     29  C   UNL     1      47.987   7.035  19.931  0.00  0.00    +0.000 A 
ATOM     30  S   UNL     1      47.355   8.422  20.709  0.00  0.00    +0.000 S 
ATOM     31  C   UNL     1      47.583   9.375  19.315  0.00  0.00    +0.000 A 
ATOM     32  N   UNL     1      47.174  10.671  19.269  0.00  0.00    +0.000 NA
ATOM     33  C   UNL     1      47.392  11.251  18.137  0.00  0.00    +0.000 A 
ATOM     34  N   UNL     1      48.021  10.668  17.061  0.00  0.00    +0.000 N 
ATOM     35  C   UNL     1      48.573   9.408  17.115  0.00  0.00    +0.000 A 
ATOM     36  O   UNL     1      49.361   9.028  16.258  0.00  0.00    +0.000 OA
ATOM     37  C   UNL     1      48.211   8.667  18.309  0.00  0.00    +0.000 A 
ATOM     38  H   UNL     1      48.256  11.212  16.247  0.00  0.00    +0.000 HD
ENDBRANCH  25  28
ENDBRANCH   1  24
TORSDOF 7
ENDMDL
MODEL 5
REMARK VINA RESULT:    -7.596      5.042      7.406
REMARK INTER + INTRA:         -12.339
REMARK INTER:                 -10.994
REMARK INTRA:                  -1.345
REMARK UNBOUND:                -1.634
REMARK  Name = 
REMARK  7 active torsions:
REMARK  status: ('A' for Active; 'I' for Inactive)
REMARK    1  A    between atoms: C_2  and  C_4
REMARK    2  A    between atoms: C_4  and  N_5
REMARK    3  A    between atoms: C_4  and  C_18
REMARK    4  A    between atoms: C_6  and  C_8
REMARK    5  A    between atoms: C_21  and  C_22
REMARK    6  A    between atoms: C_22  and  N_23
REMARK    7  A    between atoms: C_24  and  C_26
REMARK                            x       y       z     vdW  Elec       q    Type
REMARK                         _______ _______ _______ _____ _____    ______ ____
ROOT
ATOM      1  C   UNL     1      45.608   5.160  12.886  0.00  0.00    +0.000 C 
ENDROOT
BRANCH   1   2
ATOM      2  C   UNL     1      45.222   6.564  12.426  0.00  0.00    +0.000 A 
ATOM      3  C   UNL     1      44.233   6.738  11.442  0.00  0.00    +0.000 A 
ATOM      4  C   UNL     1      43.844   8.018  11.025  0.00  0.00    +0.000 A 
ATOM      5  C   UNL     1      44.439   9.158  11.579  0.00  0.00    +0.000 A 
ATOM      6  C   UNL     1      45.446   8.989  12.537  0.00  0.00    +0.000 A 
ATOM      7  C   UNL     1      45.846   7.710  12.939  0.00  0.00    +0.000 A 
BRANCH   5   8
ATOM      8  C   UNL     1      43.992  10.542  11.180  0.00  0.00    +0.000 C 
BRANCH   8   9
ATOM      9  N   UNL     1      42.796  10.930  11.895  0.00  0.00    +0.000 N 
ATOM     10  C   UNL     1      41.569  10.912  11.266  0.00  0.00    +0.000 C 
ATOM     11  O   UNL     1      41.418  10.585  10.094  0.00  0.00    +0.000 OA
ATOM     12  H   UNL     1      42.835  10.953  12.904  0.00  0.00    +0.000 HD
BRANCH  10  13
ATOM     13  C   UNL     1      40.392  11.292  12.097  0.00  0.00    +0.000 A 
ATOM     14  C   UNL     1      40.526  12.124  13.217  0.00  0.00    +0.000 A 
ATOM     15  C   UNL     1      39.397  12.487  13.954  0.00  0.00    +0.000 A 
ATOM     16  C   UNL     1      38.135  12.029  13.576  0.00  0.00    +0.000 A 
ATOM     17  C   UNL     1      37.995  11.210  12.455  0.00  0.00    +0.000 A 
ATOM     18  C   UNL     1      39.121  10.846  11.712  0.00  0.00    +0.000 A 
ENDBRANCH  10  13
ENDBRANCH   8   9
ENDBRANCH   5   8
ENDBRANCH   1   2
BRANCH   1  20
ATOM     19  N   UNL     1      44.503   2.946  12.562  0.00  0.00    +0.000 N 
ATOM     20  C   UNL     1      44.404   4.203  13.079  0.00  0.00    +0.000 C 
ATOM     21  O   UNL     1      43.378   4.537  13.677  0.00  0.00    +0.000 OA
ATOM     22  H   UNL     1      43.711   2.328  12.681  0.00  0.00    +0.000 HD
ATOM     23  H   UNL     1      45.327   2.604  12.085  0.00  0.00    +0.000 HD
ENDBRANCH   1  20
BRANCH   1  24
ATOM     24  N   UNL     1      46.280   5.193  14.175  0.00  0.00    +0.000 N 
ATOM     25  C   UNL     1      47.065   4.162  14.616  0.00  0.00    +0.000 C 
ATOM     26  O   UNL     1      47.336   3.192  13.918  0.00  0.00    +0.000 OA
ATOM     27  H   UNL     1      45.884   5.835  14.853  0.00  0.00    +0.000 HD
BRANCH  25  28
ATOM     28  C   UNL     1      47.599   4.331  15.968  0.00  0.00    +0.000 A 
ATOM     29  C   UNL     1      47.353   3.458  17.019  0.00  0.00    +0.000 A 
ATOM     30  S   UNL     1      47.923   4.043  18.523  0.00  0.00    +0.000 S 
ATOM     31  C   UNL     1      48.525   5.465  17.804  0.00  0.00    +0.000 A 
ATOM     32  N   UNL     1      49.080   6.456  18.552  0.00  0.00    +0.000 NA
ATOM     33  C   UNL     1      49.464   7.480  17.867  0.00  0.00    +0.000 A 
ATOM     34  N   UNL     1      49.386   7.586  16.497  0.00  0.00    +0.000 N 
ATOM     35  C   UNL     1      48.960   6.551  15.695  0.00  0.00    +0.000 A 
ATOM     36  O   UNL     1      49.164   6.566  14.487  0.00  0.00    +0.000 OA
ATOM     37  C   UNL     1      48.372   5.449  16.432  0.00  0.00    +0.000 A 
ATOM     38  H   UNL     1      49.803   8.366  16.017  0.00  0.00    +0.000 HD
ENDBRANCH  25  28
ENDBRANCH   1  24
TORSDOF 7
ENDMDL
MODEL 6
REMARK VINA RESULT:    -7.564      2.910      3.989
REMARK INTER + INTRA:         -12.293
REMARK INTER:                 -10.635
REMARK INTRA:                  -1.658
REMARK UNBOUND:                -1.634
REMARK  Name = 
REMARK  7 active torsions:
REMARK  status: ('A' for Active; 'I' for Inactive)
REMARK    1  A    between atoms: C_2  and  C_4
REMARK    2  A    between atoms: C_4  and  N_5
REMARK    3  A    between atoms: C_4  and  C_18
REMARK    4  A    between atoms: C_6  and  C_8
REMARK    5  A    between atoms: C_21  and  C_22
REMARK    6  A    between atoms: C_22  and  N_23
REMARK    7  A    between atoms: C_24  and  C_26
REMARK                            x       y       z     vdW  Elec       q    Type
REMARK                         _______ _______ _______ _____ _____    ______ ____
ROOT
ATOM      1  C   UNL     1      48.011   7.233  14.000  0.00  0.00    +0.000 C 
ENDROOT
BRANCH   1   2
ATOM      2  C   UNL     1      47.054   6.285  13.282  0.00  0.00    +0.000 A 
ATOM      3  C   UNL     1      46.447   6.674  12.074  0.00  0.00    +0.000 A 
ATOM      4  C   UNL     1      45.587   5.808  11.386  0.00  0.00    +0.000 A 
ATOM      5  C   UNL     1      45.307   4.532  11.890  0.00  0.00    +0.000 A 
ATOM      6  C   UNL     1      45.884   4.152  13.107  0.00  0.00    +0.000 A 
ATOM      7  C   UNL     1      46.729   5.023  13.804  0.00  0.00    +0.000 A 
BRANCH   5   8
ATOM      8  C   UNL     1      44.427   3.571  11.131  0.00  0.00    +0.000 C 
BRANCH   8   9
ATOM      9  N   UNL     1      45.169   2.895  10.090  0.00  0.00    +0.000 N 
ATOM     10  C   UNL     1      45.073   3.314   8.779  0.00  0.00    +0.000 C 
ATOM     11  O   UNL     1      44.367   4.250   8.422  0.00  0.00    +0.000 OA
ATOM     12  H   UNL     1      45.942   2.306  10.366  0.00  0.00    +0.000 HD
BRANCH  10  13
ATOM     13  C   UNL     1      45.904   2.578   7.786  0.00  0.00    +0.000 A 
ATOM     14  C   UNL     1      46.356   3.195   6.611  0.00  0.00    +0.000 A 
ATOM     15  C   UNL     1      47.162   2.486   5.717  0.00  0.00    +0.000 A 
ATOM     16  C   UNL     1      47.523   1.167   5.994  0.00  0.00    +0.000 A 
ATOM     17  C   UNL     1      47.086   0.553   7.167  0.00  0.00    +0.000 A 
ATOM     18  C   UNL     1      46.282   1.259   8.066  0.00  0.00    +0.000 A 
ENDBRANCH  10  13
ENDBRANCH   8   9
ENDBRANCH   5   8
ENDBRANCH   1   2
BRANCH   1  20
ATOM     19  N   UNL     1      49.991   7.447  12.496  0.00  0.00    +0.000 N 
ATOM     20  C   UNL     1      48.910   8.065  13.050  0.00  0.00    +0.000 C 
ATOM     21  O   UNL     1      48.680   9.247  12.783  0.00  0.00    +0.000 OA
ATOM     22  H   UNL     1      50.581   7.997  11.885  0.00  0.00    +0.000 HD
ATOM     23  H   UNL     1      50.218   6.474  12.655  0.00  0.00    +0.000 HD
ENDBRANCH   1  20
BRANCH   1  24
ATOM     24  N   UNL     1      48.933   6.504  14.856  0.00  0.00    +0.000 N 
ATOM     25  C   UNL     1      49.172   6.871  16.154  0.00  0.00    +0.000 C 
ATOM     26  O   UNL     1      48.554   7.771  16.709  0.00  0.00    +0.000 OA
ATOM     27  H   UNL     1      49.623   5.940  14.370  0.00  0.00    +0.000 HD
BRANCH  25  28
ATOM     28  C   UNL     1      50.187   6.073  16.841  0.00  0.00    +0.000 A 
ATOM     29  C   UNL     1      49.902   5.051  17.736  0.00  0.00    +0.000 A 
ATOM     30  S   UNL     1      51.291   4.462  18.544  0.00  0.00    +0.000 S 
ATOM     31  C   UNL     1      52.306   5.543  17.706  0.00  0.00    +0.000 A 
ATOM     32  N   UNL     1      53.636   5.622  17.978  0.00  0.00    +0.000 NA
ATOM     33  C   UNL     1      54.264   6.506  17.279  0.00  0.00    +0.000 A 
ATOM     34  N   UNL     1      53.694   7.288  16.301  0.00  0.00    +0.000 N 
ATOM     35  C   UNL     1      52.385   7.141  15.900  0.00  0.00    +0.000 A 
ATOM     36  O   UNL     1      51.987   7.640  14.855  0.00  0.00    +0.000 OA
ATOM     37  C   UNL     1      51.608   6.275  16.766  0.00  0.00    +0.000 A 
ATOM     38  H   UNL     1      54.264   7.880  15.719  0.00  0.00    +0.000 HD
ENDBRANCH  25  28
ENDBRANCH   1  24
TORSDOF 7
ENDMDL
MODEL 7
REMARK VINA RESULT:    -7.046      5.107      7.443
REMARK INTER + INTRA:         -11.564
REMARK INTER:                 -10.070
REMARK INTRA:                  -1.494
REMARK UNBOUND:                -1.634
REMARK  Name = 
REMARK  7 active torsions:
REMARK  status: ('A' for Active; 'I' for Inactive)
REMARK    1  A    between atoms: C_2  and  C_4
REMARK    2  A    between atoms: C_4  and  N_5
REMARK    3  A    between atoms: C_4  and  C_18
REMARK    4  A    between atoms: C_6  and  C_8
REMARK    5  A    between atoms: C_21  and  C_22
REMARK    6  A    between atoms: C_22  and  N_23
REMARK    7  A    between atoms: C_24  and  C_26
REMARK                            x       y       z     vdW  Elec       q    Type
REMARK                         _______ _______ _______ _____ _____    ______ ____
ROOT
ATOM      1  C   UNL     1      46.487   6.222  12.593  0.00  0.00    +0.000 C 
ENDROOT
BRANCH   1   2
ATOM      2  C   UNL     1      45.772   7.508  12.186  0.00  0.00    +0.000 A 
ATOM      3  C   UNL     1      46.272   8.756  12.600  0.00  0.00    +0.000 A 
ATOM      4  C   UNL     1      45.646   9.949  12.214  0.00  0.00    +0.000 A 
ATOM      5  C   UNL     1      44.501   9.925  11.409  0.00  0.00    +0.000 A 
ATOM      6  C   UNL     1      43.983   8.685  11.020  0.00  0.00    +0.000 A 
ATOM      7  C   UNL     1      44.597   7.493  11.419  0.00  0.00    +0.000 A 
BRANCH   5   8
ATOM      8  C   UNL     1      43.851  11.203  10.942  0.00  0.00    +0.000 C 
BRANCH   8   9
ATOM      9  N   UNL     1      42.683  11.515  11.735  0.00  0.00    +0.000 N 
ATOM     10  C   UNL     1      41.421  11.213  11.268  0.00  0.00    +0.000 C 
ATOM     11  O   UNL     1      41.214  10.686  10.181  0.00  0.00    +0.000 OA
ATOM     12  H   UNL     1      42.815  11.702  12.719  0.00  0.00    +0.000 HD
BRANCH  10  13
ATOM     13  C   UNL     1      40.284  11.537  12.174  0.00  0.00    +0.000 A 
ATOM     14  C   UNL     1      38.963  11.211  11.836  0.00  0.00    +0.000 A 
ATOM     15  C   UNL     1      37.924  11.501  12.725  0.00  0.00    +0.000 A 
ATOM     16  C   UNL     1      38.198  12.108  13.950  0.00  0.00    +0.000 A 
ATOM     17  C   UNL     1      39.512  12.424  14.296  0.00  0.00    +0.000 A 
ATOM     18  C   UNL     1      40.555  12.134  13.412  0.00  0.00    +0.000 A 
ENDBRANCH  10  13
ENDBRANCH   8   9
ENDBRANCH   5   8
ENDBRANCH   1   2
BRANCH   1  20
ATOM     19  N   UNL     1      45.008   4.473  13.584  0.00  0.00    +0.000 N 
ATOM     20  C   UNL     1      45.617   4.945  12.460  0.00  0.00    +0.000 C 
ATOM     21  O   UNL     1      45.461   4.355  11.389  0.00  0.00    +0.000 OA
ATOM     22  H   UNL     1      44.451   3.633  13.495  0.00  0.00    +0.000 HD
ATOM     23  H   UNL     1      45.077   4.925  14.486  0.00  0.00    +0.000 HD
ENDBRANCH   1  20
BRANCH   1  24
ATOM     24  N   UNL     1      46.895   6.262  13.988  0.00  0.00    +0.000 N 
ATOM     25  C   UNL     1      48.209   6.327  14.364  0.00  0.00    +0.000 C 
ATOM     26  O   UNL     1      49.121   6.456  13.556  0.00  0.00    +0.000 OA
ATOM     27  H   UNL     1      46.210   5.910  14.649  0.00  0.00    +0.000 HD
BRANCH  25  28
ATOM     28  C   UNL     1      48.439   6.281  15.808  0.00  0.00    +0.000 A 
ATOM     29  C   UNL     1      48.928   7.342  16.555  0.00  0.00    +0.000 A 
ATOM     30  S   UNL     1      49.301   6.911  18.169  0.00  0.00    +0.000 S 
ATOM     31  C   UNL     1      48.802   5.302  17.912  0.00  0.00    +0.000 A 
ATOM     32  N   UNL     1      48.929   4.358  18.883  0.00  0.00    +0.000 NA
ATOM     33  C   UNL     1      48.532   3.183  18.528  0.00  0.00    +0.000 A 
ATOM     34  N   UNL     1      47.977   2.873  17.308  0.00  0.00    +0.000 N 
ATOM     35  C   UNL     1      47.703   3.826  16.352  0.00  0.00    +0.000 A 
ATOM     36  O   UNL     1      46.964   3.578  15.408  0.00  0.00    +0.000 OA
ATOM     37  C   UNL     1      48.278   5.125  16.647  0.00  0.00    +0.000 A 
ATOM     38  H   UNL     1      47.588   1.961  17.136  0.00  0.00    +0.000 HD
ENDBRANCH  25  28
ENDBRANCH   1  24
TORSDOF 7
ENDMDL
MODEL 8
REMARK VINA RESULT:    -6.902      4.800      6.152
REMARK INTER + INTRA:         -11.361
REMARK INTER:                 -10.098
REMARK INTRA:                  -1.263
REMARK UNBOUND:                -1.634
REMARK  Name = 
REMARK  7 active torsions:
REMARK  status: ('A' for Active; 'I' for Inactive)
REMARK    1  A    between atoms: C_2  and  C_4
REMARK    2  A    between atoms: C_4  and  N_5
REMARK    3  A    between atoms: C_4  and  C_18
REMARK    4  A    between atoms: C_6  and  C_8
REMARK    5  A    between atoms: C_21  and  C_22
REMARK    6  A    between atoms: C_22  and  N_23
REMARK    7  A    between atoms: C_24  and  C_26
REMARK                            x       y       z     vdW  Elec       q    Type
REMARK                         _______ _______ _______ _____ _____    ______ ____
ROOT
ATOM      1  C   UNL     1      45.541   5.402  12.885  0.00  0.00    +0.000 C 
ENDROOT
BRANCH   1   2
ATOM      2  C   UNL     1      45.252   6.836  12.447  0.00  0.00    +0.000 A 
ATOM      3  C   UNL     1      44.304   7.090  11.440  0.00  0.00    +0.000 A 
ATOM      4  C   UNL     1      44.005   8.400  11.043  0.00  0.00    +0.000 A 
ATOM      5  C   UNL     1      44.651   9.490  11.638  0.00  0.00    +0.000 A 
ATOM      6  C   UNL     1      45.617   9.241  12.619  0.00  0.00    +0.000 A 
ATOM      7  C   UNL     1      45.928   7.932  13.004  0.00  0.00    +0.000 A 
BRANCH   5   8
ATOM      8  C   UNL     1      44.298  10.906  11.259  0.00  0.00    +0.000 C 
BRANCH   8   9
ATOM      9  N   UNL     1      44.803  11.235   9.943  0.00  0.00    +0.000 N 
ATOM     10  C   UNL     1      43.969  11.199   8.846  0.00  0.00    +0.000 C 
ATOM     11  O   UNL     1      42.786  10.886   8.910  0.00  0.00    +0.000 OA
ATOM     12  H   UNL     1      45.677  11.739   9.885  0.00  0.00    +0.000 HD
BRANCH  10  13
ATOM     13  C   UNL     1      44.572  11.592   7.542  0.00  0.00    +0.000 A 
ATOM     14  C   UNL     1      45.884  12.076   7.460  0.00  0.00    +0.000 A 
ATOM     15  C   UNL     1      46.430  12.404   6.216  0.00  0.00    +0.000 A 
ATOM     16  C   UNL     1      45.673  12.246   5.055  0.00  0.00    +0.000 A 
ATOM     17  C   UNL     1      44.370  11.753   5.130  0.00  0.00    +0.000 A 
ATOM     18  C   UNL     1      43.822  11.421   6.372  0.00  0.00    +0.000 A 
ENDBRANCH  10  13
ENDBRANCH   8   9
ENDBRANCH   5   8
ENDBRANCH   1   2
BRANCH   1  20
ATOM     19  N   UNL     1      44.332   3.223  12.755  0.00  0.00    +0.000 N 
ATOM     20  C   UNL     1      44.271   4.539  13.103  0.00  0.00    +0.000 C 
ATOM     21  O   UNL     1      43.228   4.997  13.574  0.00  0.00    +0.000 OA
ATOM     22  H   UNL     1      43.498   2.665  12.889  0.00  0.00    +0.000 HD
ATOM     23  H   UNL     1      45.165   2.782  12.389  0.00  0.00    +0.000 HD
ENDBRANCH   1  20
BRANCH   1  24
ATOM     24  N   UNL     1      46.246   5.370  14.156  0.00  0.00    +0.000 N 
ATOM     25  C   UNL     1      47.065   4.332  14.512  0.00  0.00    +0.000 C 
ATOM     26  O   UNL     1      47.337   3.414  13.748  0.00  0.00    +0.000 OA
ATOM     27  H   UNL     1      45.855   5.960  14.884  0.00  0.00    +0.000 HD
BRANCH  25  28
ATOM     28  C   UNL     1      47.630   4.429  15.858  0.00  0.00    +0.000 A 
ATOM     29  C   UNL     1      47.397   3.509  16.871  0.00  0.00    +0.000 A 
ATOM     30  S   UNL     1      48.008   4.014  18.388  0.00  0.00    +0.000 S 
ATOM     31  C   UNL     1      48.613   5.462  17.725  0.00  0.00    +0.000 A 
ATOM     32  N   UNL     1      49.198   6.408  18.506  0.00  0.00    +0.000 NA
ATOM     33  C   UNL     1      49.580   7.459  17.862  0.00  0.00    +0.000 A 
ATOM     34  N   UNL     1      49.472   7.632  16.502  0.00  0.00    +0.000 N 
ATOM     35  C   UNL     1      49.015   6.643  15.660  0.00  0.00    +0.000 A 
ATOM     36  O   UNL     1      49.191   6.714  14.450  0.00  0.00    +0.000 OA
ATOM     37  C   UNL     1      48.429   5.514  16.357  0.00  0.00    +0.000 A 
ATOM     38  H   UNL     1      49.890   8.429  16.050  0.00  0.00    +0.000 HD
ENDBRANCH  25  28
ENDBRANCH   1  24
TORSDOF 7
ENDMDL
MODEL 9
REMARK VINA RESULT:    -6.883      4.912      6.455
REMARK INTER + INTRA:         -11.334
REMARK INTER:                 -10.042
REMARK INTRA:                  -1.292
REMARK UNBOUND:                -1.634
REMARK  Name = 
REMARK  7 active torsions:
REMARK  status: ('A' for Active; 'I' for Inactive)
REMARK    1  A    between atoms: C_2  and  C_4
REMARK    2  A    between atoms: C_4  and  N_5
REMARK    3  A    between atoms: C_4  and  C_18
REMARK    4  A    between atoms: C_6  and  C_8
REMARK    5  A    between atoms: C_21  and  C_22
REMARK    6  A    between atoms: C_22  and  N_23
REMARK    7  A    between atoms: C_24  and  C_26
REMARK                            x       y       z     vdW  Elec       q    Type
REMARK                         _______ _______ _______ _____ _____    ______ ____
ROOT
ATOM      1  C   UNL     1      46.840   9.934  12.208  0.00  0.00    +0.000 C 
ENDROOT
BRANCH   1   2
ATOM      2  C   UNL     1      46.232   8.555  11.965  0.00  0.00    +0.000 A 
ATOM      3  C   UNL     1      47.019   7.399  12.113  0.00  0.00    +0.000 A 
ATOM      4  C   UNL     1      46.472   6.123  11.921  0.00  0.00    +0.000 A 
ATOM      5  C   UNL     1      45.126   5.970  11.571  0.00  0.00    +0.000 A 
ATOM      6  C   UNL     1      44.346   7.118  11.393  0.00  0.00    +0.000 A 
ATOM      7  C   UNL     1      44.896   8.393  11.567  0.00  0.00    +0.000 A 
BRANCH   5   8
ATOM      8  C   UNL     1      44.513   4.601  11.416  0.00  0.00    +0.000 C 
BRANCH   8   9
ATOM      9  N   UNL     1      45.276   3.788  10.494  0.00  0.00    +0.000 N 
ATOM     10  C   UNL     1      44.951   3.760   9.154  0.00  0.00    +0.000 C 
ATOM     11  O   UNL     1      44.018   4.393   8.675  0.00  0.00    +0.000 OA
ATOM     12  H   UNL     1      46.187   3.466  10.790  0.00  0.00    +0.000 HD
BRANCH  10  13
ATOM     13  C   UNL     1      45.819   2.923   8.279  0.00  0.00    +0.000 A 
ATOM     14  C   UNL     1      46.621   3.496   7.283  0.00  0.00    +0.000 A 
ATOM     15  C   UNL     1      47.449   2.685   6.502  0.00  0.00    +0.000 A 
ATOM     16  C   UNL     1      47.483   1.307   6.716  0.00  0.00    +0.000 A 
ATOM     17  C   UNL     1      46.695   0.734   7.713  0.00  0.00    +0.000 A 
ATOM     18  C   UNL     1      45.869   1.541   8.499  0.00  0.00    +0.000 A 
ENDBRANCH  10  13
ENDBRANCH   8   9
ENDBRANCH   5   8
ENDBRANCH   1   2
BRANCH   1  20
ATOM     19  N   UNL     1      44.995  11.615  12.187  0.00  0.00    +0.000 N 
ATOM     20  C   UNL     1      46.069  11.095  11.528  0.00  0.00    +0.000 C 
ATOM     21  O   UNL     1      46.392  11.555  10.431  0.00  0.00    +0.000 OA
ATOM     22  H   UNL     1      44.489  12.365  11.735  0.00  0.00    +0.000 HD
ATOM     23  H   UNL     1      44.696  11.299  13.100  0.00  0.00    +0.000 HD
ENDBRANCH   1  20
BRANCH   1  24
ATOM     24  N   UNL     1      48.193  10.015  11.681  0.00  0.00    +0.000 N 
ATOM     25  C   UNL     1      49.207  10.632  12.363  0.00  0.00    +0.000 C 
ATOM     26  O   UNL     1      49.069  11.066  13.500  0.00  0.00    +0.000 OA
ATOM     27  H   UNL     1      48.274   9.900  10.676  0.00  0.00    +0.000 HD
BRANCH  25  28
ATOM     28  C   UNL     1      50.483  10.688  11.649  0.00  0.00    +0.000 A 
ATOM     29  C   UNL     1      51.099  11.863  11.244  0.00  0.00    +0.000 A 
ATOM     30  S   UNL     1      52.457  11.595  10.238  0.00  0.00    +0.000 S 
ATOM     31  C   UNL     1      52.264   9.905  10.334  0.00  0.00    +0.000 A 
ATOM     32  N   UNL     1      53.062   9.060   9.629  0.00  0.00    +0.000 NA
ATOM     33  C   UNL     1      52.775   7.811   9.785  0.00  0.00    +0.000 A 
ATOM     34  N   UNL     1      51.791   7.328  10.617  0.00  0.00    +0.000 N 
ATOM     35  C   UNL     1      51.057   8.141  11.452  0.00  0.00    +0.000 A 
ATOM     36  O   UNL     1      50.400   7.670  12.372  0.00  0.00    +0.000 OA
ATOM     37  C   UNL     1      51.238   9.556  11.190  0.00  0.00    +0.000 A 
ATOM     38  H   UNL     1      51.693   6.339  10.776  0.00  0.00    +0.000 HD
ENDBRANCH  25  28
ENDBRANCH   1  24
TORSDOF 7
ENDMDL
