MODEL 1
REMARK VINA RESULT:    -8.297      0.000      0.000
REMARK INTER + INTRA:         -12.655
REMARK INTER:                 -11.693
REMARK INTRA:                  -0.962
REMARK UNBOUND:                -0.962
REMARK  Name = 
REMARK  7 active torsions:
REMARK  status: ('A' for Active; 'I' for Inactive)
REMARK    1  A    between atoms: C_2  and  C_20
REMARK    2  A    between atoms: N_3  and  C_4
REMARK    3  A    between atoms: C_4  and  C_5
REMARK    4  A    between atoms: C_9  and  C_10
REMARK    5  A    between atoms: C_10  and  N_11
REMARK    6  A    between atoms: N_11  and  C_12
REMARK    7  A    between atoms: C_12  and  C_13
REMARK                            x       y       z     vdW  Elec       q    Type
REMARK                         _______ _______ _______ _____ _____    ______ ____
ROOT
ATOM      1  C   UNL     1      46.348   7.035  12.583  0.00  0.00    +0.000 C 
ENDROOT
BRANCH   1   2
ATOM      2  C   UNL     1      45.200   6.162  12.175  0.00  0.00    +0.000 A 
ATOM      3  C   UNL     1      44.079   6.004  12.981  0.00  0.00    +0.000 A 
ATOM      4  N   UNL     1      43.065   5.158  12.701  0.00  0.00    +0.000 NA
ATOM      5  C   UNL     1      43.180   4.419  11.572  0.00  0.00    +0.000 A 
ATOM      6  C   UNL     1      44.256   4.490  10.691  0.00  0.00    +0.000 A 
ATOM      7  C   UNL     1      45.252   5.423  10.990  0.00  0.00    +0.000 A 
BRANCH   6   8
ATOM      8  C   UNL     1      44.299   3.637   9.449  0.00  0.00    +0.000 C 
BRANCH   8   9
ATOM      9  N   UNL     1      44.962   2.333   9.656  0.00  0.00    +0.000 NA
ATOM     10  H   UNL     1      44.320   1.726  10.166  0.00  0.00    +0.000 HD
BRANCH   9  11
ATOM     11  C   UNL     1      45.280   1.723   8.364  0.00  0.00    +0.000 C 
BRANCH  11  12
ATOM     12  C   UNL     1      46.696   1.982   7.802  0.00  0.00    +0.000 C 
ATOM     13  C   UNL     1      46.848   3.216   6.888  0.00  0.00    +0.000 C 
ATOM     14  C   UNL     1      47.020   2.948   5.393  0.00  0.00    +0.000 C 
ATOM     15  N   UNL     1      47.874   1.801   5.103  0.00  0.00    +0.000 NA
ATOM     16  C   UNL     1      47.297   0.605   5.716  0.00  0.00    +0.000 C 
ATOM     17  C   UNL     1      47.357   0.712   7.232  0.00  0.00    +0.000 C 
ATOM     18  H   UNL     1      48.807   1.962   5.484  0.00  0.00    +0.000 HD
ENDBRANCH  11  12
ENDBRANCH   9  11
ENDBRANCH   8   9
ENDBRANCH   6   8
ENDBRANCH   1   2
BRANCH   1  21
ATOM     19  N   UNL     1      49.164   6.672  13.258  0.00  0.00    +0.000 NA
ATOM     20  C   UNL     1      48.215   6.587  14.122  0.00  0.00    +0.000 C 
ATOM     21  N   UNL     1      46.877   6.679  13.877  0.00  0.00    +0.000 N 
ATOM     22  H   UNL     1      48.791   6.855  12.328  0.00  0.00    +0.000 HD
ATOM     23  H   UNL     1      46.298   7.009  14.653  0.00  0.00    +0.000 HD
BRANCH  20  24
ATOM     24  C   UNL     1      48.615   6.327  15.506  0.00  0.00    +0.000 A 
ATOM     25  C   UNL     1      49.291   7.297  16.234  0.00  0.00    +0.000 A 
ATOM     26  S   UNL     1      49.627   6.841  17.841  0.00  0.00    +0.000 S 
ATOM     27  C   UNL     1      48.848   5.343  17.634  0.00  0.00    +0.000 A 
ATOM     28  N   UNL     1      48.721   4.471  18.671  0.00  0.00    +0.000 NA
ATOM     29  C   UNL     1      48.073   3.395  18.378  0.00  0.00    +0.000 A 
ATOM     30  N   UNL     1      47.562   3.097  17.143  0.00  0.00    +0.000 N 
ATOM     31  C   UNL     1      47.707   3.926  16.053  0.00  0.00    +0.000 A 
ATOM     32  O   UNL     1      47.309   3.597  14.941  0.00  0.00    +0.000 OA
ATOM     33  C   UNL     1      48.384   5.174  16.341  0.00  0.00    +0.000 A 
ATOM     34  H   UNL     1      47.093   2.217  16.973  0.00  0.00    +0.000 HD
ENDBRANCH  20  24
ENDBRANCH   1  21
TORSDOF 7
ENDMDL
MODEL 2
REMARK VINA RESULT:    -8.123      1.982      2.726
REMARK INTER + INTRA:         -12.409
REMARK INTER:                 -11.595
REMARK INTRA:                  -0.813
REMARK UNBOUND:                -0.962
REMARK  Name = 
REMARK  7 active torsions:
REMARK  status: ('A' for Active; 'I' for Inactive)
REMARK    1  A    between atoms: C_2  and  C_20
REMARK    2  A    between atoms: N_3  and  C_4
REMARK    3  A    between atoms: C_4  and  C_5
REMARK    4  A    between atoms: C_9  and  C_10
REMARK    5  A    between atoms: C_10  and  N_11
REMARK    6  A    between atoms: N_11  and  C_12
REMARK    7  A    between atoms: C_12  and  C_13
REMARK                            x       y       z     vdW  Elec       q    Type
REMARK                         _______ _______ _______ _____ _____    ______ ____
ROOT
ATOM      1  C   UNL     1      46.239   3.783  14.391  0.00  0.00    +0.000 C 
ENDROOT
BRANCH   1   2
ATOM      2  C   UNL     1      46.144   4.506  13.082  0.00  0.00    +0.000 A 
ATOM      3  C   UNL     1      46.823   5.698  12.854  0.00  0.00    +0.000 A 
ATOM      4  N   UNL     1      46.695   6.433  11.729  0.00  0.00    +0.000 NA
ATOM      5  C   UNL     1      45.835   5.970  10.792  0.00  0.00    +0.000 A 
ATOM      6  C   UNL     1      45.099   4.794  10.911  0.00  0.00    +0.000 A 
ATOM      7  C   UNL     1      45.309   4.035  12.065  0.00  0.00    +0.000 A 
BRANCH   6   8
ATOM      8  C   UNL     1      44.169   4.346   9.812  0.00  0.00    +0.000 C 
BRANCH   8   9
ATOM      9  N   UNL     1      44.757   4.466   8.462  0.00  0.00    +0.000 NA
ATOM     10  H   UNL     1      45.583   5.062   8.526  0.00  0.00    +0.000 HD
BRANCH   9  11
ATOM     11  C   UNL     1      45.151   3.146   7.969  0.00  0.00    +0.000 C 
BRANCH  11  12
ATOM     12  C   UNL     1      46.630   2.969   7.558  0.00  0.00    +0.000 C 
ATOM     13  C   UNL     1      47.043   3.611   6.217  0.00  0.00    +0.000 C 
ATOM     14  C   UNL     1      47.292   2.660   5.047  0.00  0.00    +0.000 C 
ATOM     15  N   UNL     1      47.979   1.431   5.432  0.00  0.00    +0.000 NA
ATOM     16  C   UNL     1      47.177   0.725   6.431  0.00  0.00    +0.000 C 
ATOM     17  C   UNL     1      47.131   1.522   7.725  0.00  0.00    +0.000 C 
ATOM     18  H   UNL     1      48.892   1.657   5.827  0.00  0.00    +0.000 HD
ENDBRANCH  11  12
ENDBRANCH   9  11
ENDBRANCH   8   9
ENDBRANCH   6   8
ENDBRANCH   1   2
BRANCH   1  21
ATOM     19  N   UNL     1      46.570   3.360  17.260  0.00  0.00    +0.000 NA
ATOM     20  C   UNL     1      47.443   3.962  16.530  0.00  0.00    +0.000 C 
ATOM     21  N   UNL     1      47.334   4.254  15.203  0.00  0.00    +0.000 N 
ATOM     22  H   UNL     1      45.762   3.085  16.705  0.00  0.00    +0.000 HD
ATOM     23  H   UNL     1      48.213   4.334  14.685  0.00  0.00    +0.000 HD
BRANCH  20  24
ATOM     24  C   UNL     1      48.661   4.410  17.206  0.00  0.00    +0.000 A 
ATOM     25  C   UNL     1      48.716   5.670  17.789  0.00  0.00    +0.000 A 
ATOM     26  S   UNL     1      50.190   5.999  18.576  0.00  0.00    +0.000 S 
ATOM     27  C   UNL     1      50.796   4.456  18.199  0.00  0.00    +0.000 A 
ATOM     28  N   UNL     1      52.019   4.057  18.643  0.00  0.00    +0.000 NA
ATOM     29  C   UNL     1      52.331   2.849  18.316  0.00  0.00    +0.000 A 
ATOM     30  N   UNL     1      51.548   2.011  17.566  0.00  0.00    +0.000 N 
ATOM     31  C   UNL     1      50.325   2.386  17.056  0.00  0.00    +0.000 A 
ATOM     32  O   UNL     1      49.682   1.644  16.321  0.00  0.00    +0.000 OA
ATOM     33  C   UNL     1      49.904   3.719  17.439  0.00  0.00    +0.000 A 
ATOM     34  H   UNL     1      51.868   1.085  17.316  0.00  0.00    +0.000 HD
ENDBRANCH  20  24
ENDBRANCH   1  21
TORSDOF 7
ENDMDL
MODEL 3
REMARK VINA RESULT:    -7.516      1.711      2.644
REMARK INTER + INTRA:         -11.554
REMARK INTER:                 -10.531
REMARK INTRA:                  -1.023
REMARK UNBOUND:                -0.962
REMARK  Name = 
REMARK  7 active torsions:
REMARK  status: ('A' for Active; 'I' for Inactive)
REMARK    1  A    between atoms: C_2  and  C_20
REMARK    2  A    between atoms: N_3  and  C_4
REMARK    3  A    between atoms: C_4  and  C_5
REMARK    4  A    between atoms: C_9  and  C_10
REMARK    5  A    between atoms: C_10  and  N_11
REMARK    6  A    between atoms: N_11  and  C_12
REMARK    7  A    between atoms: C_12  and  C_13
REMARK                            x       y       z     vdW  Elec       q    Type
REMARK                         _______ _______ _______ _____ _____    ______ ____
ROOT
ATOM      1  C   UNL     1      46.718   3.484  13.739  0.00  0.00    +0.000 C 
ENDROOT
BRANCH   1   2
ATOM      2  C   UNL     1      45.872   4.369  12.875  0.00  0.00    +0.000 A 
ATOM      3  C   UNL     1      45.473   5.634  13.293  0.00  0.00    +0.000 A 
ATOM      4  N   UNL     1      44.635   6.427  12.593  0.00  0.00    +0.000 NA
ATOM      5  C   UNL     1      44.156   5.932  11.427  0.00  0.00    +0.000 A 
ATOM      6  C   UNL     1      44.483   4.681  10.910  0.00  0.00    +0.000 A 
ATOM      7  C   UNL     1      45.400   3.920  11.639  0.00  0.00    +0.000 A 
BRANCH   6   8
ATOM      8  C   UNL     1      43.911   4.212   9.597  0.00  0.00    +0.000 C 
BRANCH   8   9
ATOM      9  N   UNL     1      44.607   3.032   9.043  0.00  0.00    +0.000 NA
ATOM     10  H   UNL     1      43.964   2.240   9.071  0.00  0.00    +0.000 HD
BRANCH   9  11
ATOM     11  C   UNL     1      44.997   3.287   7.656  0.00  0.00    +0.000 C 
BRANCH  11  12
ATOM     12  C   UNL     1      46.486   3.075   7.301  0.00  0.00    +0.000 C 
ATOM     13  C   UNL     1      46.900   3.445   5.861  0.00  0.00    +0.000 C 
ATOM     14  C   UNL     1      47.190   2.286   4.909  0.00  0.00    +0.000 C 
ATOM     15  N   UNL     1      47.905   1.180   5.539  0.00  0.00    +0.000 NA
ATOM     16  C   UNL     1      47.109   0.667   6.654  0.00  0.00    +0.000 C 
ATOM     17  C   UNL     1      47.024   1.706   7.760  0.00  0.00    +0.000 C 
ATOM     18  H   UNL     1      48.806   1.509   5.888  0.00  0.00    +0.000 HD
ENDBRANCH  11  12
ENDBRANCH   9  11
ENDBRANCH   8   9
ENDBRANCH   6   8
ENDBRANCH   1   2
BRANCH   1  21
ATOM     19  N   UNL     1      48.490   2.387  15.782  0.00  0.00    +0.000 NA
ATOM     20  C   UNL     1      47.946   3.550  15.870  0.00  0.00    +0.000 C 
ATOM     21  N   UNL     1      47.061   4.105  14.995  0.00  0.00    +0.000 N 
ATOM     22  H   UNL     1      48.197   1.915  14.930  0.00  0.00    +0.000 HD
ATOM     23  H   UNL     1      47.047   5.127  14.955  0.00  0.00    +0.000 HD
BRANCH  20  24
ATOM     24  C   UNL     1      48.287   4.341  17.054  0.00  0.00    +0.000 A 
ATOM     25  C   UNL     1      48.104   3.814  18.326  0.00  0.00    +0.000 A 
ATOM     26  S   UNL     1      48.604   4.854  19.579  0.00  0.00    +0.000 S 
ATOM     27  C   UNL     1      49.118   6.033  18.467  0.00  0.00    +0.000 A 
ATOM     28  N   UNL     1      49.717   7.180  18.889  0.00  0.00    +0.000 NA
ATOM     29  C   UNL     1      50.090   7.962  17.934  0.00  0.00    +0.000 A 
ATOM     30  N   UNL     1      49.900   7.720  16.599  0.00  0.00    +0.000 N 
ATOM     31  C   UNL     1      49.258   6.597  16.127  0.00  0.00    +0.000 A 
ATOM     32  O   UNL     1      49.030   6.444  14.932  0.00  0.00    +0.000 OA
ATOM     33  C   UNL     1      48.863   5.658  17.159  0.00  0.00    +0.000 A 
ATOM     34  H   UNL     1      50.188   8.393  15.902  0.00  0.00    +0.000 HD
ENDBRANCH  20  24
ENDBRANCH   1  21
TORSDOF 7
ENDMDL
MODEL 4
REMARK VINA RESULT:    -7.381      4.344      9.736
REMARK INTER + INTRA:         -11.363
REMARK INTER:                  -9.851
REMARK INTRA:                  -1.513
REMARK UNBOUND:                -0.962
REMARK  Name = 
REMARK  7 active torsions:
REMARK  status: ('A' for Active; 'I' for Inactive)
REMARK    1  A    between atoms: C_2  and  C_20
REMARK    2  A    between atoms: N_3  and  C_4
REMARK    3  A    between atoms: C_4  and  C_5
REMARK    4  A    between atoms: C_9  and  C_10
REMARK    5  A    between atoms: C_10  and  N_11
REMARK    6  A    between atoms: N_11  and  C_12
REMARK    7  A    between atoms: C_12  and  C_13
REMARK                            x       y       z     vdW  Elec       q    Type
REMARK                         _______ _______ _______ _____ _____    ______ ____
ROOT
ATOM      1  C   UNL     1      47.304   3.571  16.928  0.00  0.00    +0.000 C 
ENDROOT
BRANCH   1   2
ATOM      2  C   UNL     1      48.780   3.323  17.016  0.00  0.00    +0.000 A 
ATOM      3  C   UNL     1      49.325   2.066  16.782  0.00  0.00    +0.000 A 
ATOM      4  N   UNL     1      50.634   1.773  16.941  0.00  0.00    +0.000 NA
ATOM      5  C   UNL     1      51.436   2.775  17.371  0.00  0.00    +0.000 A 
ATOM      6  C   UNL     1      51.002   4.071  17.640  0.00  0.00    +0.000 A 
ATOM      7  C   UNL     1      49.653   4.343  17.404  0.00  0.00    +0.000 A 
BRANCH   6   8
ATOM      8  C   UNL     1      51.967   5.130  18.107  0.00  0.00    +0.000 C 
BRANCH   8   9
ATOM      9  N   UNL     1      51.976   5.310  19.574  0.00  0.00    +0.000 NA
ATOM     10  H   UNL     1      52.946   5.304  19.890  0.00  0.00    +0.000 HD
BRANCH   9  11
ATOM     11  C   UNL     1      51.362   6.591  19.924  0.00  0.00    +0.000 C 
BRANCH  11  12
ATOM     12  C   UNL     1      50.138   6.542  20.866  0.00  0.00    +0.000 C 
ATOM     13  C   UNL     1      49.777   5.154  21.436  0.00  0.00    +0.000 C 
ATOM     14  C   UNL     1      48.533   4.476  20.863  0.00  0.00    +0.000 C 
ATOM     15  N   UNL     1      47.429   5.400  20.618  0.00  0.00    +0.000 NA
ATOM     16  C   UNL     1      47.863   6.430  19.675  0.00  0.00    +0.000 C 
ATOM     17  C   UNL     1      48.924   7.312  20.314  0.00  0.00    +0.000 C 
ATOM     18  H   UNL     1      47.148   5.839  21.496  0.00  0.00    +0.000 HD
ENDBRANCH  11  12
ENDBRANCH   9  11
ENDBRANCH   8   9
ENDBRANCH   6   8
ENDBRANCH   1   2
BRANCH   1  21
ATOM     19  N   UNL     1      47.163   3.174  14.040  0.00  0.00    +0.000 NA
ATOM     20  C   UNL     1      46.869   4.288  14.614  0.00  0.00    +0.000 C 
ATOM     21  N   UNL     1      46.971   4.572  15.943  0.00  0.00    +0.000 N 
ATOM     22  H   UNL     1      47.466   2.484  14.723  0.00  0.00    +0.000 HD
ATOM     23  H   UNL     1      46.338   5.291  16.301  0.00  0.00    +0.000 HD
BRANCH  20  24
ATOM     24  C   UNL     1      46.415   5.372  13.742  0.00  0.00    +0.000 A 
ATOM     25  C   UNL     1      47.241   6.458  13.485  0.00  0.00    +0.000 A 
ATOM     26  S   UNL     1      46.569   7.593  12.408  0.00  0.00    +0.000 S 
ATOM     27  C   UNL     1      45.163   6.657  12.215  0.00  0.00    +0.000 A 
ATOM     28  N   UNL     1      44.180   7.039  11.355  0.00  0.00    +0.000 NA
ATOM     29  C   UNL     1      43.193   6.212  11.282  0.00  0.00    +0.000 A 
ATOM     30  N   UNL     1      43.083   5.052  12.004  0.00  0.00    +0.000 N 
ATOM     31  C   UNL     1      44.030   4.649  12.919  0.00  0.00    +0.000 A 
ATOM     32  O   UNL     1      43.867   3.649  13.610  0.00  0.00    +0.000 OA
ATOM     33  C   UNL     1      45.186   5.519  13.003  0.00  0.00    +0.000 A 
ATOM     34  H   UNL     1      42.265   4.465  11.923  0.00  0.00    +0.000 HD
ENDBRANCH  20  24
ENDBRANCH   1  21
TORSDOF 7
ENDMDL
MODEL 5
REMARK VINA RESULT:    -7.319      2.949      8.390
REMARK INTER + INTRA:         -11.276
REMARK INTER:                 -10.152
REMARK INTRA:                  -1.124
REMARK UNBOUND:                -0.962
REMARK  Name = 
REMARK  7 active torsions:
REMARK  status: ('A' for Active; 'I' for Inactive)
REMARK    1  A    between atoms: C_2  and  C_20
REMARK    2  A    between atoms: N_3  and  C_4
REMARK    3  A    between atoms: C_4  and  C_5
REMARK    4  A    between atoms: C_9  and  C_10
REMARK    5  A    between atoms: C_10  and  N_11
REMARK    6  A    between atoms: N_11  and  C_12
REMARK    7  A    between atoms: C_12  and  C_13
REMARK                            x       y       z     vdW  Elec       q    Type
REMARK                         _______ _______ _______ _____ _____    ______ ____
ROOT
ATOM      1  C   UNL     1      47.121   8.027  12.177  0.00  0.00    +0.000 C 
ENDROOT
BRANCH   1   2
ATOM      2  C   UNL     1      48.331   7.984  13.060  0.00  0.00    +0.000 A 
ATOM      3  C   UNL     1      49.556   8.497  12.648  0.00  0.00    +0.000 A 
ATOM      4  N   UNL     1      50.693   8.397  13.368  0.00  0.00    +0.000 NA
ATOM      5  C   UNL     1      50.613   7.738  14.548  0.00  0.00    +0.000 A 
ATOM      6  C   UNL     1      49.445   7.181  15.061  0.00  0.00    +0.000 A 
ATOM      7  C   UNL     1      48.281   7.362  14.311  0.00  0.00    +0.000 A 
BRANCH   6   8
ATOM      8  C   UNL     1      49.443   6.472  16.391  0.00  0.00    +0.000 C 
BRANCH   8   9
ATOM      9  N   UNL     1      48.086   6.187  16.901  0.00  0.00    +0.000 NA
ATOM     10  H   UNL     1      47.613   5.582  16.229  0.00  0.00    +0.000 HD
BRANCH   9  11
ATOM     11  C   UNL     1      48.171   5.500  18.191  0.00  0.00    +0.000 C 
BRANCH  11  12
ATOM     12  C   UNL     1      48.126   3.956  18.162  0.00  0.00    +0.000 C 
ATOM     13  C   UNL     1      49.483   3.235  18.311  0.00  0.00    +0.000 C 
ATOM     14  C   UNL     1      50.058   2.585  17.054  0.00  0.00    +0.000 C 
ATOM     15  N   UNL     1      49.050   1.933  16.223  0.00  0.00    +0.000 NA
ATOM     16  C   UNL     1      48.055   2.922  15.810  0.00  0.00    +0.000 C 
ATOM     17  C   UNL     1      47.261   3.402  17.015  0.00  0.00    +0.000 C 
ATOM     18  H   UNL     1      48.593   1.192  16.756  0.00  0.00    +0.000 HD
ENDBRANCH  11  12
ENDBRANCH   9  11
ENDBRANCH   8   9
ENDBRANCH   6   8
ENDBRANCH   1   2
BRANCH   1  21
ATOM     19  N   UNL     1      44.464   7.517  11.082  0.00  0.00    +0.000 NA
ATOM     20  C   UNL     1      45.255   6.583  11.480  0.00  0.00    +0.000 C 
ATOM     21  N   UNL     1      46.478   6.741  12.061  0.00  0.00    +0.000 N 
ATOM     22  H   UNL     1      44.885   8.432  11.225  0.00  0.00    +0.000 HD
ATOM     23  H   UNL     1      47.140   5.971  11.936  0.00  0.00    +0.000 HD
BRANCH  20  24
ATOM     24  C   UNL     1      44.771   5.210  11.328  0.00  0.00    +0.000 A 
ATOM     25  C   UNL     1      44.035   4.609  12.341  0.00  0.00    +0.000 A 
ATOM     26  S   UNL     1      43.511   3.032  11.968  0.00  0.00    +0.000 S 
ATOM     27  C   UNL     1      44.217   3.107  10.423  0.00  0.00    +0.000 A 
ATOM     28  N   UNL     1      44.081   2.079   9.541  0.00  0.00    +0.000 NA
ATOM     29  C   UNL     1      44.633   2.291   8.395  0.00  0.00    +0.000 A 
ATOM     30  N   UNL     1      45.329   3.422   8.055  0.00  0.00    +0.000 N 
ATOM     31  C   UNL     1      45.532   4.466   8.929  0.00  0.00    +0.000 A 
ATOM     32  O   UNL     1      46.227   5.430   8.624  0.00  0.00    +0.000 OA
ATOM     33  C   UNL     1      44.887   4.300  10.216  0.00  0.00    +0.000 A 
ATOM     34  H   UNL     1      45.767   3.509   7.148  0.00  0.00    +0.000 HD
ENDBRANCH  20  24
ENDBRANCH   1  21
TORSDOF 7
ENDMDL
MODEL 6
REMARK VINA RESULT:    -7.133      3.752      9.366
REMARK INTER + INTRA:         -11.014
REMARK INTER:                  -9.301
REMARK INTRA:                  -1.713
REMARK UNBOUND:                -0.962
REMARK  Name = 
REMARK  7 active torsions:
REMARK  status: ('A' for Active; 'I' for Inactive)
REMARK    1  A    between atoms: C_2  and  C_20
REMARK    2  A    between atoms: N_3  and  C_4
REMARK    3  A    between atoms: C_4  and  C_5
REMARK    4  A    between atoms: C_9  and  C_10
REMARK    5  A    between atoms: C_10  and  N_11
REMARK    6  A    between atoms: N_11  and  C_12
REMARK    7  A    between atoms: C_12  and  C_13
REMARK                            x       y       z     vdW  Elec       q    Type
REMARK                         _______ _______ _______ _____ _____    ______ ____
ROOT
ATOM      1  C   UNL     1      48.328   6.172  15.110  0.00  0.00    +0.000 C 
ENDROOT
BRANCH   1   2
ATOM      2  C   UNL     1      48.492   5.118  16.163  0.00  0.00    +0.000 A 
ATOM      3  C   UNL     1      47.548   4.114  16.345  0.00  0.00    +0.000 A 
ATOM      4  N   UNL     1      47.605   3.201  17.339  0.00  0.00    +0.000 NA
ATOM      5  C   UNL     1      48.641   3.303  18.204  0.00  0.00    +0.000 A 
ATOM      6  C   UNL     1      49.642   4.267  18.123  0.00  0.00    +0.000 A 
ATOM      7  C   UNL     1      49.576   5.153  17.044  0.00  0.00    +0.000 A 
BRANCH   6   8
ATOM      8  C   UNL     1      50.768   4.303  19.125  0.00  0.00    +0.000 C 
BRANCH   8   9
ATOM      9  N   UNL     1      50.330   4.674  20.486  0.00  0.00    +0.000 NA
ATOM     10  H   UNL     1      50.888   4.144  21.156  0.00  0.00    +0.000 HD
BRANCH   9  11
ATOM     11  C   UNL     1      50.540   6.105  20.707  0.00  0.00    +0.000 C 
BRANCH  11  12
ATOM     12  C   UNL     1      49.275   6.989  20.794  0.00  0.00    +0.000 C 
ATOM     13  C   UNL     1      47.923   6.247  20.726  0.00  0.00    +0.000 C 
ATOM     14  C   UNL     1      47.127   6.385  19.429  0.00  0.00    +0.000 C 
ATOM     15  N   UNL     1      47.175   7.727  18.857  0.00  0.00    +0.000 NA
ATOM     16  C   UNL     1      48.566   8.081  18.578  0.00  0.00    +0.000 C 
ATOM     17  C   UNL     1      49.342   8.225  19.878  0.00  0.00    +0.000 C 
ATOM     18  H   UNL     1      46.780   8.396  19.519  0.00  0.00    +0.000 HD
ENDBRANCH  11  12
ENDBRANCH   9  11
ENDBRANCH   8   9
ENDBRANCH   6   8
ENDBRANCH   1   2
BRANCH   1  21
ATOM     19  N   UNL     1      47.847   6.867  12.316  0.00  0.00    +0.000 NA
ATOM     20  C   UNL     1      46.950   6.346  13.078  0.00  0.00    +0.000 C 
ATOM     21  N   UNL     1      47.075   6.055  14.404  0.00  0.00    +0.000 N 
ATOM     22  H   UNL     1      48.714   7.016  12.828  0.00  0.00    +0.000 HD
ATOM     23  H   UNL     1      46.485   5.297  14.757  0.00  0.00    +0.000 HD
BRANCH  20  24
ATOM     24  C   UNL     1      45.649   6.075  12.464  0.00  0.00    +0.000 A 
ATOM     25  C   UNL     1      44.915   7.107  11.894  0.00  0.00    +0.000 A 
ATOM     26  S   UNL     1      43.455   6.599  11.180  0.00  0.00    +0.000 S 
ATOM     27  C   UNL     1      43.767   4.974  11.574  0.00  0.00    +0.000 A 
ATOM     28  N   UNL     1      42.918   3.984  11.185  0.00  0.00    +0.000 NA
ATOM     29  C   UNL     1      43.303   2.799  11.518  0.00  0.00    +0.000 A 
ATOM     30  N   UNL     1      44.441   2.511  12.223  0.00  0.00    +0.000 N 
ATOM     31  C   UNL     1      45.305   3.482  12.678  0.00  0.00    +0.000 A 
ATOM     32  O   UNL     1      46.274   3.202  13.375  0.00  0.00    +0.000 OA
ATOM     33  C   UNL     1      44.945   4.830  12.285  0.00  0.00    +0.000 A 
ATOM     34  H   UNL     1      44.667   1.560  12.481  0.00  0.00    +0.000 HD
ENDBRANCH  20  24
ENDBRANCH   1  21
TORSDOF 7
ENDMDL
MODEL 7
REMARK VINA RESULT:    -6.991      4.134      8.342
REMARK INTER + INTRA:         -10.814
REMARK INTER:                  -9.236
REMARK INTRA:                  -1.577
REMARK UNBOUND:                -0.962
REMARK  Name = 
REMARK  7 active torsions:
REMARK  status: ('A' for Active; 'I' for Inactive)
REMARK    1  A    between atoms: C_2  and  C_20
REMARK    2  A    between atoms: N_3  and  C_4
REMARK    3  A    between atoms: C_4  and  C_5
REMARK    4  A    between atoms: C_9  and  C_10
REMARK    5  A    between atoms: C_10  and  N_11
REMARK    6  A    between atoms: N_11  and  C_12
REMARK    7  A    between atoms: C_12  and  C_13
REMARK                            x       y       z     vdW  Elec       q    Type
REMARK                         _______ _______ _______ _____ _____    ______ ____
ROOT
ATOM      1  C   UNL     1      48.586   8.746  14.759  0.00  0.00    +0.000 C 
ENDROOT
BRANCH   1   2
ATOM      2  C   UNL     1      48.501   8.870  16.250  0.00  0.00    +0.000 A 
ATOM      3  C   UNL     1      48.693  10.087  16.894  0.00  0.00    +0.000 A 
ATOM      4  N   UNL     1      48.720  10.231  18.236  0.00  0.00    +0.000 NA
ATOM      5  C   UNL     1      48.568   9.107  18.974  0.00  0.00    +0.000 A 
ATOM      6  C   UNL     1      48.373   7.835  18.441  0.00  0.00    +0.000 A 
ATOM      7  C   UNL     1      48.291   7.744  17.050  0.00  0.00    +0.000 A 
BRANCH   6   8
ATOM      8  C   UNL     1      48.201   6.636  19.338  0.00  0.00    +0.000 C 
BRANCH   8   9
ATOM      9  N   UNL     1      49.478   5.981  19.691  0.00  0.00    +0.000 NA
ATOM     10  H   UNL     1      49.588   6.024  20.704  0.00  0.00    +0.000 HD
BRANCH   9  11
ATOM     11  C   UNL     1      49.454   4.580  19.267  0.00  0.00    +0.000 C 
BRANCH  11  12
ATOM     12  C   UNL     1      49.687   4.303  17.765  0.00  0.00    +0.000 C 
ATOM     13  C   UNL     1      48.440   3.899  16.949  0.00  0.00    +0.000 C 
ATOM     14  C   UNL     1      48.340   2.433  16.527  0.00  0.00    +0.000 C 
ATOM     15  N   UNL     1      49.617   1.858  16.115  0.00  0.00    +0.000 NA
ATOM     16  C   UNL     1      50.566   1.950  17.223  0.00  0.00    +0.000 C 
ATOM     17  C   UNL     1      50.910   3.405  17.502  0.00  0.00    +0.000 C 
ATOM     18  H   UNL     1      49.981   2.373  15.312  0.00  0.00    +0.000 HD
ENDBRANCH  11  12
ENDBRANCH   9  11
ENDBRANCH   8   9
ENDBRANCH   6   8
ENDBRANCH   1   2
BRANCH   1  21
ATOM     19  N   UNL     1      49.117   6.470  13.010  0.00  0.00    +0.000 NA
ATOM     20  C   UNL     1      47.946   6.755  13.462  0.00  0.00    +0.000 C 
ATOM     21  N   UNL     1      47.606   7.831  14.226  0.00  0.00    +0.000 N 
ATOM     22  H   UNL     1      49.802   7.153  13.327  0.00  0.00    +0.000 HD
ATOM     23  H   UNL     1      46.794   7.712  14.837  0.00  0.00    +0.000 HD
BRANCH  20  24
ATOM     24  C   UNL     1      46.862   5.848  13.081  0.00  0.00    +0.000 A 
ATOM     25  C   UNL     1      46.925   4.502  13.416  0.00  0.00    +0.000 A 
ATOM     26  S   UNL     1      45.553   3.610  12.941  0.00  0.00    +0.000 S 
ATOM     27  C   UNL     1      44.807   4.999  12.303  0.00  0.00    +0.000 A 
ATOM     28  N   UNL     1      43.551   4.942  11.783  0.00  0.00    +0.000 NA
ATOM     29  C   UNL     1      43.098   6.078  11.375  0.00  0.00    +0.000 A 
ATOM     30  N   UNL     1      43.789   7.260  11.413  0.00  0.00    +0.000 N 
ATOM     31  C   UNL     1      45.079   7.357  11.886  0.00  0.00    +0.000 A 
ATOM     32  O   UNL     1      45.702   8.412  11.833  0.00  0.00    +0.000 OA
ATOM     33  C   UNL     1      45.617   6.117  12.406  0.00  0.00    +0.000 A 
ATOM     34  H   UNL     1      43.386   8.111  11.043  0.00  0.00    +0.000 HD
ENDBRANCH  20  24
ENDBRANCH   1  21
TORSDOF 7
ENDMDL
MODEL 8
REMARK VINA RESULT:    -6.955      3.678      5.821
REMARK INTER + INTRA:         -10.763
REMARK INTER:                  -8.732
REMARK INTRA:                  -2.031
REMARK UNBOUND:                -0.962
REMARK  Name = 
REMARK  7 active torsions:
REMARK  status: ('A' for Active; 'I' for Inactive)
REMARK    1  A    between atoms: C_2  and  C_20
REMARK    2  A    between atoms: N_3  and  C_4
REMARK    3  A    between atoms: C_4  and  C_5
REMARK    4  A    between atoms: C_9  and  C_10
REMARK    5  A    between atoms: C_10  and  N_11
REMARK    6  A    between atoms: N_11  and  C_12
REMARK    7  A    between atoms: C_12  and  C_13
REMARK                            x       y       z     vdW  Elec       q    Type
REMARK                         _______ _______ _______ _____ _____    ______ ____
ROOT
ATOM      1  C   UNL     1      46.956   4.043  14.403  0.00  0.00    +0.000 C 
ENDROOT
BRANCH   1   2
ATOM      2  C   UNL     1      46.041   4.713  13.423  0.00  0.00    +0.000 A 
ATOM      3  C   UNL     1      45.274   3.982  12.523  0.00  0.00    +0.000 A 
ATOM      4  N   UNL     1      44.509   4.541  11.560  0.00  0.00    +0.000 NA
ATOM      5  C   UNL     1      44.522   5.893  11.478  0.00  0.00    +0.000 A 
ATOM      6  C   UNL     1      45.252   6.726  12.321  0.00  0.00    +0.000 A 
ATOM      7  C   UNL     1      45.981   6.106  13.339  0.00  0.00    +0.000 A 
BRANCH   6   8
ATOM      8  C   UNL     1      45.201   8.224  12.165  0.00  0.00    +0.000 C 
BRANCH   8   9
ATOM      9  N   UNL     1      46.148   8.938  13.048  0.00  0.00    +0.000 NA
ATOM     10  H   UNL     1      46.736   8.245  13.511  0.00  0.00    +0.000 HD
BRANCH   9  11
ATOM     11  C   UNL     1      46.991   9.834  12.256  0.00  0.00    +0.000 C 
BRANCH  11  12
ATOM     12  C   UNL     1      48.478   9.442  12.108  0.00  0.00    +0.000 C 
ATOM     13  C   UNL     1      48.754   7.999  11.634  0.00  0.00    +0.000 C 
ATOM     14  C   UNL     1      49.282   7.019  12.681  0.00  0.00    +0.000 C 
ATOM     15  N   UNL     1      50.253   7.613  13.595  0.00  0.00    +0.000 NA
ATOM     16  C   UNL     1      49.631   8.736  14.294  0.00  0.00    +0.000 C 
ATOM     17  C   UNL     1      49.334   9.863  13.317  0.00  0.00    +0.000 C 
ATOM     18  H   UNL     1      51.061   7.946  13.068  0.00  0.00    +0.000 HD
ENDBRANCH  11  12
ENDBRANCH   9  11
ENDBRANCH   8   9
ENDBRANCH   6   8
ENDBRANCH   1   2
BRANCH   1  21
ATOM     19  N   UNL     1      46.844   3.242  17.208  0.00  0.00    +0.000 NA
ATOM     20  C   UNL     1      47.230   4.407  16.822  0.00  0.00    +0.000 C 
ATOM     21  N   UNL     1      47.249   4.878  15.543  0.00  0.00    +0.000 N 
ATOM     22  H   UNL     1      46.570   2.670  16.412  0.00  0.00    +0.000 HD
ATOM     23  H   UNL     1      47.939   5.606  15.340  0.00  0.00    +0.000 HD
BRANCH  20  24
ATOM     24  C   UNL     1      47.657   5.334  17.871  0.00  0.00    +0.000 A 
ATOM     25  C   UNL     1      46.865   5.533  18.994  0.00  0.00    +0.000 A 
ATOM     26  S   UNL     1      47.544   6.602  20.133  0.00  0.00    +0.000 S 
ATOM     27  C   UNL     1      48.940   6.811  19.184  0.00  0.00    +0.000 A 
ATOM     28  N   UNL     1      49.976   7.577  19.621  0.00  0.00    +0.000 NA
ATOM     29  C   UNL     1      50.983   7.610  18.816  0.00  0.00    +0.000 A 
ATOM     30  N   UNL     1      51.043   6.973  17.605  0.00  0.00    +0.000 N 
ATOM     31  C   UNL     1      50.002   6.226  17.100  0.00  0.00    +0.000 A 
ATOM     32  O   UNL     1      50.052   5.733  15.979  0.00  0.00    +0.000 OA
ATOM     33  C   UNL     1      48.864   6.113  17.991  0.00  0.00    +0.000 A 
ATOM     34  H   UNL     1      51.852   7.069  17.006  0.00  0.00    +0.000 HD
ENDBRANCH  20  24
ENDBRANCH   1  21
TORSDOF 7
ENDMDL
MODEL 9
REMARK VINA RESULT:    -6.685      6.598      9.881
REMARK INTER + INTRA:         -10.382
REMARK INTER:                  -9.312
REMARK INTRA:                  -1.070
REMARK UNBOUND:                -0.962
REMARK  Name = 
REMARK  7 active torsions:
REMARK  status: ('A' for Active; 'I' for Inactive)
REMARK    1  A    between atoms: C_2  and  C_20
REMARK    2  A    between atoms: N_3  and  C_4
REMARK    3  A    between atoms: C_4  and  C_5
REMARK    4  A    between atoms: C_9  and  C_10
REMARK    5  A    between atoms: C_10  and  N_11
REMARK    6  A    between atoms: N_11  and  C_12
REMARK    7  A    between atoms: C_12  and  C_13
REMARK                            x       y       z     vdW  Elec       q    Type
REMARK                         _______ _______ _______ _____ _____    ______ ____
ROOT
ATOM      1  C   UNL     1      42.144  10.792   9.736  0.00  0.00    +0.000 C 
ENDROOT
BRANCH   1   2
ATOM      2  C   UNL     1      43.390  10.887  10.563  0.00  0.00    +0.000 A 
ATOM      3  C   UNL     1      44.069  12.089  10.728  0.00  0.00    +0.000 A 
ATOM      4  N   UNL     1      45.244  12.205  11.383  0.00  0.00    +0.000 NA
ATOM      5  C   UNL     1      45.779  11.067  11.883  0.00  0.00    +0.000 A 
ATOM      6  C   UNL     1      45.194   9.808  11.777  0.00  0.00    +0.000 A 
ATOM      7  C   UNL     1      43.950   9.745  11.144  0.00  0.00    +0.000 A 
BRANCH   6   8
ATOM      8  C   UNL     1      45.856   8.592  12.374  0.00  0.00    +0.000 C 
BRANCH   8   9
ATOM      9  N   UNL     1      45.181   7.326  12.021  0.00  0.00    +0.000 NA
ATOM     10  H   UNL     1      45.338   7.146  11.029  0.00  0.00    +0.000 HD
BRANCH   9  11
ATOM     11  C   UNL     1      45.741   6.225  12.806  0.00  0.00    +0.000 C 
BRANCH  11  12
ATOM     12  C   UNL     1      44.812   5.022  13.081  0.00  0.00    +0.000 C 
ATOM     13  C   UNL     1      45.188   3.700  12.378  0.00  0.00    +0.000 C 
ATOM     14  C   UNL     1      44.307   3.269  11.206  0.00  0.00    +0.000 C 
ATOM     15  N   UNL     1      42.886   3.523  11.423  0.00  0.00    +0.000 NA
ATOM     16  C   UNL     1      42.681   4.953  11.645  0.00  0.00    +0.000 C 
ATOM     17  C   UNL     1      43.318   5.377  12.960  0.00  0.00    +0.000 C 
ATOM     18  H   UNL     1      42.565   3.002  12.240  0.00  0.00    +0.000 HD
ENDBRANCH  11  12
ENDBRANCH   9  11
ENDBRANCH   8   9
ENDBRANCH   6   8
ENDBRANCH   1   2
BRANCH   1  21
ATOM     19  N   UNL     1      40.436   9.195  11.483  0.00  0.00    +0.000 NA
ATOM     20  C   UNL     1      40.266  10.456  11.291  0.00  0.00    +0.000 C 
ATOM     21  N   UNL     1      40.976  11.256  10.445  0.00  0.00    +0.000 N 
ATOM     22  H   UNL     1      41.217   8.848  10.931  0.00  0.00    +0.000 HD
ATOM     23  H   UNL     1      41.026  12.246  10.696  0.00  0.00    +0.000 HD
BRANCH  20  24
ATOM     24  C   UNL     1      39.171  11.087  12.029  0.00  0.00    +0.000 A 
ATOM     25  C   UNL     1      39.435  12.091  12.952  0.00  0.00    +0.000 A 
ATOM     26  S   UNL     1      38.038  12.745  13.675  0.00  0.00    +0.000 S 
ATOM     27  C   UNL     1      37.026  11.736  12.753  0.00  0.00    +0.000 A 
ATOM     28  N   UNL     1      35.671  11.833  12.844  0.00  0.00    +0.000 NA
ATOM     29  C   UNL     1      35.032  11.035  12.058  0.00  0.00    +0.000 A 
ATOM     30  N   UNL     1      35.616  10.133  11.209  0.00  0.00    +0.000 N 
ATOM     31  C   UNL     1      36.980   9.967  11.117  0.00  0.00    +0.000 A 
ATOM     32  O   UNL     1      37.473   9.096  10.408  0.00  0.00    +0.000 OA
ATOM     33  C   UNL     1      37.747  10.877  11.943  0.00  0.00    +0.000 A 
ATOM     34  H   UNL     1      35.054   9.512  10.643  0.00  0.00    +0.000 HD
ENDBRANCH  20  24
ENDBRANCH   1  21
TORSDOF 7
ENDMDL
