MODEL 1
REMARK VINA RESULT:    -8.683      0.000      0.000
REMARK INTER + INTRA:         -12.711
REMARK INTER:                 -12.237
REMARK INTRA:                  -0.474
REMARK UNBOUND:                -0.474
REMARK  Name = 
REMARK  8 active torsions:
REMARK  status: ('A' for Active; 'I' for Inactive)
REMARK    1  A    between atoms: C_1  and  C_2
REMARK    2  A    between atoms: C_2  and  N_10
REMARK    3  A    between atoms: C_3  and  C_4
REMARK    4  A    between atoms: N_10  and  C_11
REMARK    5  A    between atoms: C_11  and  C_12
REMARK    6  A    between atoms: C_15  and  C_16
REMARK    7  A    between atoms: C_16  and  N_17
REMARK    8  A    between atoms: C_18  and  C_20
REMARK                            x       y       z     vdW  Elec       q    Type
REMARK                         _______ _______ _______ _____ _____    ______ ____
ROOT
ATOM      1  C   UNL     1      44.708   5.313  11.799  0.00  0.00    +0.000 A 
ATOM      2  C   UNL     1      45.480   6.423  11.432  0.00  0.00    +0.000 A 
ATOM      3  C   UNL     1      46.598   6.798  12.185  0.00  0.00    +0.000 A 
ATOM      4  C   UNL     1      46.971   6.069  13.322  0.00  0.00    +0.000 A 
ATOM      5  C   UNL     1      46.178   4.981  13.712  0.00  0.00    +0.000 A 
ATOM      6  C   UNL     1      45.063   4.605  12.956  0.00  0.00    +0.000 A 
ENDROOT
BRANCH   1   7
ATOM      7  C   UNL     1      43.494   4.906  10.993  0.00  0.00    +0.000 C 
BRANCH   7   8
ATOM      8  N   UNL     1      43.817   4.770   9.583  0.00  0.00    +0.000 N 
ATOM      9  H   UNL     1      43.635   5.586   9.004  0.00  0.00    +0.000 HD
BRANCH   8  11
ATOM     10  C   UNL     1      44.297   2.340   9.496  0.00  0.00    +0.000 C 
ATOM     11  C   UNL     1      44.540   3.745   8.984  0.00  0.00    +0.000 C 
ATOM     12  C   UNL     1      45.415   4.011   7.992  0.00  0.00    +0.000 C 
BRANCH  12  13
ATOM     13  C   UNL     1      46.208   3.032   7.240  0.00  0.00    +0.000 A 
ATOM     14  C   UNL     1      46.561   1.812   7.826  0.00  0.00    +0.000 A 
ATOM     15  C   UNL     1      47.289   0.864   7.103  0.00  0.00    +0.000 A 
ATOM     16  C   UNL     1      47.671   1.132   5.789  0.00  0.00    +0.000 A 
ATOM     17  C   UNL     1      47.327   2.348   5.200  0.00  0.00    +0.000 A 
ATOM     18  C   UNL     1      46.598   3.296   5.923  0.00  0.00    +0.000 A 
ENDBRANCH  12  13
ENDBRANCH   8  11
ENDBRANCH   7   8
ENDBRANCH   1   7
BRANCH   4  19
ATOM     19  C   UNL     1      48.201   6.443  14.108  0.00  0.00    +0.000 C 
BRANCH  19  20
ATOM     20  N   UNL     1      48.035   6.190  15.520  0.00  0.00    +0.000 N 
ATOM     21  C   UNL     1      49.128   6.195  16.363  0.00  0.00    +0.000 C 
ATOM     22  O   UNL     1      50.270   6.376  15.961  0.00  0.00    +0.000 OA
ATOM     23  H   UNL     1      47.099   6.188  15.899  0.00  0.00    +0.000 HD
BRANCH  21  24
ATOM     24  C   UNL     1      48.823   5.915  17.768  0.00  0.00    +0.000 A 
ATOM     25  C   UNL     1      49.015   4.652  18.308  0.00  0.00    +0.000 A 
ATOM     26  S   UNL     1      48.707   4.578  19.980  0.00  0.00    +0.000 S 
ATOM     27  C   UNL     1      48.313   6.231  20.029  0.00  0.00    +0.000 A 
ATOM     28  N   UNL     1      47.970   6.788  21.203  0.00  0.00    +0.000 NA
ATOM     29  C   UNL     1      47.663   8.080  21.102  0.00  0.00    +0.000 A 
ATOM     30  N   UNL     1      47.650   8.814  19.988  0.00  0.00    +0.000 NA
ATOM     31  C   UNL     1      48.009   8.202  18.847  0.00  0.00    +0.000 A 
ATOM     32 CL   UNL     1      47.847   9.136  17.440  0.00  0.00    +0.000 Cl
ATOM     33  C   UNL     1      48.381   6.858  18.790  0.00  0.00    +0.000 A 
ENDBRANCH  21  24
ENDBRANCH  19  20
ENDBRANCH   4  19
TORSDOF 7
ENDMDL
MODEL 2
REMARK VINA RESULT:    -8.628      1.442      1.888
REMARK INTER + INTRA:         -12.633
REMARK INTER:                 -12.207
REMARK INTRA:                  -0.426
REMARK UNBOUND:                -0.474
REMARK  Name = 
REMARK  8 active torsions:
REMARK  status: ('A' for Active; 'I' for Inactive)
REMARK    1  A    between atoms: C_1  and  C_2
REMARK    2  A    between atoms: C_2  and  N_10
REMARK    3  A    between atoms: C_3  and  C_4
REMARK    4  A    between atoms: N_10  and  C_11
REMARK    5  A    between atoms: C_11  and  C_12
REMARK    6  A    between atoms: C_15  and  C_16
REMARK    7  A    between atoms: C_16  and  N_17
REMARK    8  A    between atoms: C_18  and  C_20
REMARK                            x       y       z     vdW  Elec       q    Type
REMARK                         _______ _______ _______ _____ _____    ______ ____
ROOT
ATOM      1  C   UNL     1      44.818   5.269  11.781  0.00  0.00    +0.000 A 
ATOM      2  C   UNL     1      45.689   6.215  11.223  0.00  0.00    +0.000 A 
ATOM      3  C   UNL     1      46.846   6.611  11.904  0.00  0.00    +0.000 A 
ATOM      4  C   UNL     1      47.159   6.066  13.156  0.00  0.00    +0.000 A 
ATOM      5  C   UNL     1      46.270   5.149  13.732  0.00  0.00    +0.000 A 
ATOM      6  C   UNL     1      45.116   4.751  13.049  0.00  0.00    +0.000 A 
ENDROOT
BRANCH   1   7
ATOM      7  C   UNL     1      43.562   4.842  11.053  0.00  0.00    +0.000 C 
BRANCH   7   8
ATOM      8  N   UNL     1      43.804   4.683   9.629  0.00  0.00    +0.000 N 
ATOM      9  H   UNL     1      43.556   5.476   9.044  0.00  0.00    +0.000 HD
BRANCH   8  11
ATOM     10  C   UNL     1      44.293   2.256   9.499  0.00  0.00    +0.000 C 
ATOM     11  C   UNL     1      44.529   3.670   9.011  0.00  0.00    +0.000 C 
ATOM     12  C   UNL     1      45.400   3.956   8.020  0.00  0.00    +0.000 C 
BRANCH  12  13
ATOM     13  C   UNL     1      46.193   2.992   7.249  0.00  0.00    +0.000 A 
ATOM     14  C   UNL     1      46.573   1.774   7.822  0.00  0.00    +0.000 A 
ATOM     15  C   UNL     1      47.302   0.840   7.081  0.00  0.00    +0.000 A 
ATOM     16  C   UNL     1      47.658   1.122   5.762  0.00  0.00    +0.000 A 
ATOM     17  C   UNL     1      47.287   2.336   5.186  0.00  0.00    +0.000 A 
ATOM     18  C   UNL     1      46.557   3.270   5.927  0.00  0.00    +0.000 A 
ENDBRANCH  12  13
ENDBRANCH   8  11
ENDBRANCH   7   8
ENDBRANCH   1   7
BRANCH   4  19
ATOM     19  C   UNL     1      48.428   6.457  13.870  0.00  0.00    +0.000 C 
BRANCH  19  20
ATOM     20  N   UNL     1      48.190   6.768  15.260  0.00  0.00    +0.000 N 
ATOM     21  C   UNL     1      49.236   6.788  16.160  0.00  0.00    +0.000 C 
ATOM     22  O   UNL     1      50.386   6.516  15.840  0.00  0.00    +0.000 OA
ATOM     23  H   UNL     1      47.287   7.139  15.519  0.00  0.00    +0.000 HD
BRANCH  21  24
ATOM     24  C   UNL     1      48.856   7.108  17.538  0.00  0.00    +0.000 A 
ATOM     25  C   UNL     1      48.469   8.391  17.897  0.00  0.00    +0.000 A 
ATOM     26  S   UNL     1      47.961   8.515  19.516  0.00  0.00    +0.000 S 
ATOM     27  C   UNL     1      48.242   6.860  19.781  0.00  0.00    +0.000 A 
ATOM     28  N   UNL     1      47.980   6.336  20.991  0.00  0.00    +0.000 NA
ATOM     29  C   UNL     1      48.264   5.037  21.074  0.00  0.00    +0.000 A 
ATOM     30  N   UNL     1      48.777   4.267  20.113  0.00  0.00    +0.000 NA
ATOM     31  C   UNL     1      49.009   4.847  18.923  0.00  0.00    +0.000 A 
ATOM     32 CL   UNL     1      49.785   3.865  17.777  0.00  0.00    +0.000 Cl
ATOM     33  C   UNL     1      48.743   6.194  18.668  0.00  0.00    +0.000 A 
ENDBRANCH  21  24
ENDBRANCH  19  20
ENDBRANCH   4  19
TORSDOF 7
ENDMDL
MODEL 3
REMARK VINA RESULT:    -8.367      2.257      2.758
REMARK INTER + INTRA:         -12.265
REMARK INTER:                 -11.420
REMARK INTRA:                  -0.845
REMARK UNBOUND:                -0.474
REMARK  Name = 
REMARK  8 active torsions:
REMARK  status: ('A' for Active; 'I' for Inactive)
REMARK    1  A    between atoms: C_1  and  C_2
REMARK    2  A    between atoms: C_2  and  N_10
REMARK    3  A    between atoms: C_3  and  C_4
REMARK    4  A    between atoms: N_10  and  C_11
REMARK    5  A    between atoms: C_11  and  C_12
REMARK    6  A    between atoms: C_15  and  C_16
REMARK    7  A    between atoms: C_16  and  N_17
REMARK    8  A    between atoms: C_18  and  C_20
REMARK                            x       y       z     vdW  Elec       q    Type
REMARK                         _______ _______ _______ _____ _____    ______ ____
ROOT
ATOM      1  C   UNL     1      43.990   6.412  11.686  0.00  0.00    +0.000 A 
ATOM      2  C   UNL     1      44.391   7.667  11.209  0.00  0.00    +0.000 A 
ATOM      3  C   UNL     1      45.446   8.359  11.816  0.00  0.00    +0.000 A 
ATOM      4  C   UNL     1      46.125   7.808  12.910  0.00  0.00    +0.000 A 
ATOM      5  C   UNL     1      45.700   6.571  13.412  0.00  0.00    +0.000 A 
ATOM      6  C   UNL     1      44.648   5.878  12.803  0.00  0.00    +0.000 A 
ENDROOT
BRANCH   1   7
ATOM      7  C   UNL     1      42.845   5.662  11.039  0.00  0.00    +0.000 C 
BRANCH   7   8
ATOM      8  N   UNL     1      43.106   4.234  10.998  0.00  0.00    +0.000 N 
ATOM      9  H   UNL     1      42.329   3.632  11.261  0.00  0.00    +0.000 HD
BRANCH   8  11
ATOM     10  C   UNL     1      45.138   2.869  11.384  0.00  0.00    +0.000 C 
ATOM     11  C   UNL     1      44.208   3.598  10.438  0.00  0.00    +0.000 C 
ATOM     12  C   UNL     1      44.423   3.641   9.106  0.00  0.00    +0.000 C 
BRANCH  12  13
ATOM     13  C   UNL     1      45.510   2.983   8.373  0.00  0.00    +0.000 A 
ATOM     14  C   UNL     1      45.684   1.598   8.467  0.00  0.00    +0.000 A 
ATOM     15  C   UNL     1      46.699   0.963   7.747  0.00  0.00    +0.000 A 
ATOM     16  C   UNL     1      47.547   1.710   6.930  0.00  0.00    +0.000 A 
ATOM     17  C   UNL     1      47.382   3.092   6.835  0.00  0.00    +0.000 A 
ATOM     18  C   UNL     1      46.367   3.727   7.555  0.00  0.00    +0.000 A 
ENDBRANCH  12  13
ENDBRANCH   8  11
ENDBRANCH   7   8
ENDBRANCH   1   7
BRANCH   4  19
ATOM     19  C   UNL     1      47.291   8.531  13.535  0.00  0.00    +0.000 C 
BRANCH  19  20
ATOM     20  N   UNL     1      47.711   7.909  14.769  0.00  0.00    +0.000 N 
ATOM     21  C   UNL     1      48.713   6.959  14.766  0.00  0.00    +0.000 C 
ATOM     22  O   UNL     1      49.260   6.581  13.739  0.00  0.00    +0.000 OA
ATOM     23  H   UNL     1      47.387   8.305  15.640  0.00  0.00    +0.000 HD
BRANCH  21  24
ATOM     24  C   UNL     1      49.036   6.402  16.082  0.00  0.00    +0.000 A 
ATOM     25  C   UNL     1      49.869   7.075  16.963  0.00  0.00    +0.000 A 
ATOM     26  S   UNL     1      50.017   6.305  18.474  0.00  0.00    +0.000 S 
ATOM     27  C   UNL     1      48.970   5.055  17.994  0.00  0.00    +0.000 A 
ATOM     28  N   UNL     1      48.678   4.075  18.865  0.00  0.00    +0.000 NA
ATOM     29  C   UNL     1      47.867   3.147  18.359  0.00  0.00    +0.000 A 
ATOM     30  N   UNL     1      47.370   3.107  17.122  0.00  0.00    +0.000 NA
ATOM     31  C   UNL     1      47.693   4.120  16.300  0.00  0.00    +0.000 A 
ATOM     32 CL   UNL     1      47.150   3.958  14.700  0.00  0.00    +0.000 Cl
ATOM     33  C   UNL     1      48.513   5.181  16.686  0.00  0.00    +0.000 A 
ENDBRANCH  21  24
ENDBRANCH  19  20
ENDBRANCH   4  19
TORSDOF 7
ENDMDL
MODEL 4
REMARK VINA RESULT:    -7.339      2.749      3.195
REMARK INTER + INTRA:         -10.817
REMARK INTER:                 -10.440
REMARK INTRA:                  -0.377
REMARK UNBOUND:                -0.474
REMARK  Name = 
REMARK  8 active torsions:
REMARK  status: ('A' for Active; 'I' for Inactive)
REMARK    1  A    between atoms: C_1  and  C_2
REMARK    2  A    between atoms: C_2  and  N_10
REMARK    3  A    between atoms: C_3  and  C_4
REMARK    4  A    between atoms: N_10  and  C_11
REMARK    5  A    between atoms: C_11  and  C_12
REMARK    6  A    between atoms: C_15  and  C_16
REMARK    7  A    between atoms: C_16  and  N_17
REMARK    8  A    between atoms: C_18  and  C_20
REMARK                            x       y       z     vdW  Elec       q    Type
REMARK                         _______ _______ _______ _____ _____    ______ ____
ROOT
ATOM      1  C   UNL     1      45.072   6.752  11.878  0.00  0.00    +0.000 A 
ATOM      2  C   UNL     1      46.332   6.272  11.495  0.00  0.00    +0.000 A 
ATOM      3  C   UNL     1      47.482   7.045  11.690  0.00  0.00    +0.000 A 
ATOM      4  C   UNL     1      47.398   8.315  12.276  0.00  0.00    +0.000 A 
ATOM      5  C   UNL     1      46.135   8.811  12.625  0.00  0.00    +0.000 A 
ATOM      6  C   UNL     1      44.986   8.036  12.434  0.00  0.00    +0.000 A 
ENDROOT
BRANCH   1   7
ATOM      7  C   UNL     1      43.824   5.924  11.664  0.00  0.00    +0.000 C 
BRANCH   7   8
ATOM      8  N   UNL     1      43.764   5.399  10.311  0.00  0.00    +0.000 N 
ATOM      9  H   UNL     1      43.333   6.005   9.617  0.00  0.00    +0.000 HD
BRANCH   8  11
ATOM     10  C   UNL     1      44.105   2.950  10.487  0.00  0.00    +0.000 C 
ATOM     11  C   UNL     1      44.415   4.273   9.818  0.00  0.00    +0.000 C 
ATOM     12  C   UNL     1      45.281   4.376   8.788  0.00  0.00    +0.000 C 
BRANCH  12  13
ATOM     13  C   UNL     1      46.000   3.275   8.138  0.00  0.00    +0.000 A 
ATOM     14  C   UNL     1      45.722   1.950   8.486  0.00  0.00    +0.000 A 
ATOM     15  C   UNL     1      46.383   0.897   7.847  0.00  0.00    +0.000 A 
ATOM     16  C   UNL     1      47.327   1.166   6.856  0.00  0.00    +0.000 A 
ATOM     17  C   UNL     1      47.612   2.485   6.507  0.00  0.00    +0.000 A 
ATOM     18  C   UNL     1      46.951   3.538   7.146  0.00  0.00    +0.000 A 
ENDBRANCH  12  13
ENDBRANCH   8  11
ENDBRANCH   7   8
ENDBRANCH   1   7
BRANCH   4  19
ATOM     19  C   UNL     1      48.641   9.129  12.529  0.00  0.00    +0.000 C 
BRANCH  19  20
ATOM     20  N   UNL     1      49.526   8.483  13.468  0.00  0.00    +0.000 N 
ATOM     21  C   UNL     1      49.457   8.783  14.814  0.00  0.00    +0.000 C 
ATOM     22  O   UNL     1      48.681   9.617  15.264  0.00  0.00    +0.000 OA
ATOM     23  H   UNL     1      50.065   7.690  13.150  0.00  0.00    +0.000 HD
BRANCH  21  24
ATOM     24  C   UNL     1      50.416   8.065  15.655  0.00  0.00    +0.000 A 
ATOM     25  C   UNL     1      51.618   8.646  16.034  0.00  0.00    +0.000 A 
ATOM     26  S   UNL     1      52.527   7.684  17.102  0.00  0.00    +0.000 S 
ATOM     27  C   UNL     1      51.341   6.466  17.092  0.00  0.00    +0.000 A 
ATOM     28  N   UNL     1      51.527   5.363  17.837  0.00  0.00    +0.000 NA
ATOM     29  C   UNL     1      50.538   4.479  17.722  0.00  0.00    +0.000 A 
ATOM     30  N   UNL     1      49.452   4.588  16.956  0.00  0.00    +0.000 NA
ATOM     31  C   UNL     1      49.318   5.717  16.240  0.00  0.00    +0.000 A 
ATOM     32 CL   UNL     1      47.994   5.753  15.180  0.00  0.00    +0.000 Cl
ATOM     33  C   UNL     1      50.257   6.751  16.268  0.00  0.00    +0.000 A 
ENDBRANCH  21  24
ENDBRANCH  19  20
ENDBRANCH   4  19
TORSDOF 7
ENDMDL
MODEL 5
REMARK VINA RESULT:    -7.283      1.843      2.446
REMARK INTER + INTRA:         -10.738
REMARK INTER:                 -10.633
REMARK INTRA:                  -0.104
REMARK UNBOUND:                -0.474
REMARK  Name = 
REMARK  8 active torsions:
REMARK  status: ('A' for Active; 'I' for Inactive)
REMARK    1  A    between atoms: C_1  and  C_2
REMARK    2  A    between atoms: C_2  and  N_10
REMARK    3  A    between atoms: C_3  and  C_4
REMARK    4  A    between atoms: N_10  and  C_11
REMARK    5  A    between atoms: C_11  and  C_12
REMARK    6  A    between atoms: C_15  and  C_16
REMARK    7  A    between atoms: C_16  and  N_17
REMARK    8  A    between atoms: C_18  and  C_20
REMARK                            x       y       z     vdW  Elec       q    Type
REMARK                         _______ _______ _______ _____ _____    ______ ____
ROOT
ATOM      1  C   UNL     1      44.934   5.025  12.503  0.00  0.00    +0.000 A 
ATOM      2  C   UNL     1      45.824   4.265  13.275  0.00  0.00    +0.000 A 
ATOM      3  C   UNL     1      46.956   4.855  13.848  0.00  0.00    +0.000 A 
ATOM      4  C   UNL     1      47.222   6.218  13.665  0.00  0.00    +0.000 A 
ATOM      5  C   UNL     1      46.354   6.970  12.862  0.00  0.00    +0.000 A 
ATOM      6  C   UNL     1      45.220   6.381  12.293  0.00  0.00    +0.000 A 
ENDROOT
BRANCH   1   7
ATOM      7  C   UNL     1      43.711   4.392  11.875  0.00  0.00    +0.000 C 
BRANCH   7   8
ATOM      8  N   UNL     1      44.076   3.286  11.006  0.00  0.00    +0.000 N 
ATOM      9  H   UNL     1      43.610   2.402  11.193  0.00  0.00    +0.000 HD
BRANCH   8  11
ATOM     10  C   UNL     1      45.178   4.733   9.322  0.00  0.00    +0.000 C 
ATOM     11  C   UNL     1      44.811   3.353   9.828  0.00  0.00    +0.000 C 
ATOM     12  C   UNL     1      45.173   2.226   9.180  0.00  0.00    +0.000 C 
BRANCH  12  13
ATOM     13  C   UNL     1      45.984   2.142   7.960  0.00  0.00    +0.000 A 
ATOM     14  C   UNL     1      46.764   1.007   7.711  0.00  0.00    +0.000 A 
ATOM     15  C   UNL     1      47.514   0.908   6.536  0.00  0.00    +0.000 A 
ATOM     16  C   UNL     1      47.490   1.946   5.604  0.00  0.00    +0.000 A 
ATOM     17  C   UNL     1      46.718   3.081   5.848  0.00  0.00    +0.000 A 
ATOM     18  C   UNL     1      45.968   3.180   7.023  0.00  0.00    +0.000 A 
ENDBRANCH  12  13
ENDBRANCH   8  11
ENDBRANCH   7   8
ENDBRANCH   1   7
BRANCH   4  19
ATOM     19  C   UNL     1      48.416   6.865  14.319  0.00  0.00    +0.000 C 
BRANCH  19  20
ATOM     20  N   UNL     1      48.525   6.507  15.714  0.00  0.00    +0.000 N 
ATOM     21  C   UNL     1      48.676   7.485  16.675  0.00  0.00    +0.000 C 
ATOM     22  O   UNL     1      48.757   8.675  16.399  0.00  0.00    +0.000 OA
ATOM     23  H   UNL     1      48.312   5.557  15.982  0.00  0.00    +0.000 HD
BRANCH  21  24
ATOM     24  C   UNL     1      48.783   6.987  18.049  0.00  0.00    +0.000 A 
ATOM     25  C   UNL     1      47.754   7.167  18.961  0.00  0.00    +0.000 A 
ATOM     26  S   UNL     1      48.040   6.411  20.459  0.00  0.00    +0.000 S 
ATOM     27  C   UNL     1      49.543   5.821  19.929  0.00  0.00    +0.000 A 
ATOM     28  N   UNL     1      50.283   5.071  20.763  0.00  0.00    +0.000 NA
ATOM     29  C   UNL     1      51.447   4.692  20.236  0.00  0.00    +0.000 A 
ATOM     30  N   UNL     1      51.914   4.997  19.025  0.00  0.00    +0.000 NA
ATOM     31  C   UNL     1      51.123   5.744  18.234  0.00  0.00    +0.000 A 
ATOM     32 CL   UNL     1      51.814   6.219  16.759  0.00  0.00    +0.000 Cl
ATOM     33  C   UNL     1      49.865   6.201  18.631  0.00  0.00    +0.000 A 
ENDBRANCH  21  24
ENDBRANCH  19  20
ENDBRANCH   4  19
TORSDOF 7
ENDMDL
MODEL 6
REMARK VINA RESULT:    -7.124      4.177     10.586
REMARK INTER + INTRA:         -10.514
REMARK INTER:                  -8.905
REMARK INTRA:                  -1.609
REMARK UNBOUND:                -0.474
REMARK  Name = 
REMARK  8 active torsions:
REMARK  status: ('A' for Active; 'I' for Inactive)
REMARK    1  A    between atoms: C_1  and  C_2
REMARK    2  A    between atoms: C_2  and  N_10
REMARK    3  A    between atoms: C_3  and  C_4
REMARK    4  A    between atoms: N_10  and  C_11
REMARK    5  A    between atoms: C_11  and  C_12
REMARK    6  A    between atoms: C_15  and  C_16
REMARK    7  A    between atoms: C_16  and  N_17
REMARK    8  A    between atoms: C_18  and  C_20
REMARK                            x       y       z     vdW  Elec       q    Type
REMARK                         _______ _______ _______ _____ _____    ______ ____
ROOT
ATOM      1  C   UNL     1      49.909   5.330  17.907  0.00  0.00    +0.000 A 
ATOM      2  C   UNL     1      50.758   6.273  17.311  0.00  0.00    +0.000 A 
ATOM      3  C   UNL     1      50.371   6.950  16.150  0.00  0.00    +0.000 A 
ATOM      4  C   UNL     1      49.124   6.702  15.560  0.00  0.00    +0.000 A 
ATOM      5  C   UNL     1      48.291   5.733  16.133  0.00  0.00    +0.000 A 
ATOM      6  C   UNL     1      48.676   5.059  17.297  0.00  0.00    +0.000 A 
ENDROOT
BRANCH   1   7
ATOM      7  C   UNL     1      50.324   4.590  19.160  0.00  0.00    +0.000 C 
BRANCH   7   8
ATOM      8  N   UNL     1      49.570   5.042  20.316  0.00  0.00    +0.000 N 
ATOM      9  H   UNL     1      49.433   4.356  21.054  0.00  0.00    +0.000 HD
BRANCH   8  11
ATOM     10  C   UNL     1      50.308   7.270  21.114  0.00  0.00    +0.000 C 
ATOM     11  C   UNL     1      49.210   6.350  20.622  0.00  0.00    +0.000 C 
ATOM     12  C   UNL     1      47.932   6.761  20.481  0.00  0.00    +0.000 C 
BRANCH  12  13
ATOM     13  C   UNL     1      47.418   8.114  20.720  0.00  0.00    +0.000 A 
ATOM     14  C   UNL     1      47.246   9.000  19.651  0.00  0.00    +0.000 A 
ATOM     15  C   UNL     1      46.727  10.279  19.869  0.00  0.00    +0.000 A 
ATOM     16  C   UNL     1      46.379  10.679  21.159  0.00  0.00    +0.000 A 
ATOM     17  C   UNL     1      46.552   9.803  22.229  0.00  0.00    +0.000 A 
ATOM     18  C   UNL     1      47.071   8.524  22.011  0.00  0.00    +0.000 A 
ENDBRANCH  12  13
ENDBRANCH   8  11
ENDBRANCH   7   8
ENDBRANCH   1   7
BRANCH   4  19
ATOM     19  C   UNL     1      48.687   7.464  14.335  0.00  0.00    +0.000 C 
BRANCH  19  20
ATOM     20  N   UNL     1      47.371   7.066  13.895  0.00  0.00    +0.000 N 
ATOM     21  C   UNL     1      47.116   6.858  12.554  0.00  0.00    +0.000 C 
ATOM     22  O   UNL     1      47.963   7.030  11.688  0.00  0.00    +0.000 OA
ATOM     23  H   UNL     1      46.701   6.774  14.592  0.00  0.00    +0.000 HD
BRANCH  21  24
ATOM     24  C   UNL     1      45.739   6.467  12.243  0.00  0.00    +0.000 A 
ATOM     25  C   UNL     1      44.830   7.381  11.730  0.00  0.00    +0.000 A 
ATOM     26  S   UNL     1      43.327   6.689  11.334  0.00  0.00    +0.000 S 
ATOM     27  C   UNL     1      43.849   5.151  11.833  0.00  0.00    +0.000 A 
ATOM     28  N   UNL     1      43.008   4.107  11.728  0.00  0.00    +0.000 NA
ATOM     29  C   UNL     1      43.530   2.965  12.174  0.00  0.00    +0.000 A 
ATOM     30  N   UNL     1      44.742   2.792  12.702  0.00  0.00    +0.000 NA
ATOM     31  C   UNL     1      45.539   3.872  12.773  0.00  0.00    +0.000 A 
ATOM     32 CL   UNL     1      47.015   3.633  13.574  0.00  0.00    +0.000 Cl
ATOM     33  C   UNL     1      45.149   5.136  12.327  0.00  0.00    +0.000 A 
ENDBRANCH  21  24
ENDBRANCH  19  20
ENDBRANCH   4  19
TORSDOF 7
ENDMDL
MODEL 7
REMARK VINA RESULT:    -6.950      5.838      8.254
REMARK INTER + INTRA:         -10.269
REMARK INTER:                  -9.107
REMARK INTRA:                  -1.162
REMARK UNBOUND:                -0.474
REMARK  Name = 
REMARK  8 active torsions:
REMARK  status: ('A' for Active; 'I' for Inactive)
REMARK    1  A    between atoms: C_1  and  C_2
REMARK    2  A    between atoms: C_2  and  N_10
REMARK    3  A    between atoms: C_3  and  C_4
REMARK    4  A    between atoms: N_10  and  C_11
REMARK    5  A    between atoms: C_11  and  C_12
REMARK    6  A    between atoms: C_15  and  C_16
REMARK    7  A    between atoms: C_16  and  N_17
REMARK    8  A    between atoms: C_18  and  C_20
REMARK                            x       y       z     vdW  Elec       q    Type
REMARK                         _______ _______ _______ _____ _____    ______ ____
ROOT
ATOM      1  C   UNL     1      46.968   8.490  12.692  0.00  0.00    +0.000 A 
ATOM      2  C   UNL     1      47.689   9.372  11.876  0.00  0.00    +0.000 A 
ATOM      3  C   UNL     1      49.085   9.301  11.804  0.00  0.00    +0.000 A 
ATOM      4  C   UNL     1      49.790   8.343  12.544  0.00  0.00    +0.000 A 
ATOM      5  C   UNL     1      49.073   7.485  13.389  0.00  0.00    +0.000 A 
ATOM      6  C   UNL     1      47.678   7.554  13.458  0.00  0.00    +0.000 A 
ENDROOT
BRANCH   1   7
ATOM      7  C   UNL     1      45.459   8.567  12.780  0.00  0.00    +0.000 C 
BRANCH   7   8
ATOM      8  N   UNL     1      44.871   7.248  12.940  0.00  0.00    +0.000 N 
ATOM      9  H   UNL     1      44.537   7.021  13.874  0.00  0.00    +0.000 HD
BRANCH   8  11
ATOM     10  C   UNL     1      43.094   6.425  11.422  0.00  0.00    +0.000 C 
ATOM     11  C   UNL     1      44.518   6.359  11.931  0.00  0.00    +0.000 C 
ATOM     12  C   UNL     1      45.420   5.483  11.441  0.00  0.00    +0.000 C 
BRANCH  12  13
ATOM     13  C   UNL     1      45.206   4.524  10.352  0.00  0.00    +0.000 A 
ATOM     14  C   UNL     1      45.629   4.828   9.054  0.00  0.00    +0.000 A 
ATOM     15  C   UNL     1      45.454   3.905   8.019  0.00  0.00    +0.000 A 
ATOM     16  C   UNL     1      44.854   2.673   8.278  0.00  0.00    +0.000 A 
ATOM     17  C   UNL     1      44.426   2.366   9.568  0.00  0.00    +0.000 A 
ATOM     18  C   UNL     1      44.600   3.288  10.603  0.00  0.00    +0.000 A 
ENDBRANCH  12  13
ENDBRANCH   8  11
ENDBRANCH   7   8
ENDBRANCH   1   7
BRANCH   4  19
ATOM     19  C   UNL     1      51.289   8.234  12.433  0.00  0.00    +0.000 C 
BRANCH  19  20
ATOM     20  N   UNL     1      51.697   7.704  11.153  0.00  0.00    +0.000 N 
ATOM     21  C   UNL     1      53.036   7.589  10.839  0.00  0.00    +0.000 C 
ATOM     22  O   UNL     1      53.925   7.953  11.598  0.00  0.00    +0.000 OA
ATOM     23  H   UNL     1      50.998   7.261  10.574  0.00  0.00    +0.000 HD
BRANCH  21  24
ATOM     24  C   UNL     1      53.311   7.045   9.507  0.00  0.00    +0.000 A 
ATOM     25  C   UNL     1      53.607   5.702   9.326  0.00  0.00    +0.000 A 
ATOM     26  S   UNL     1      53.779   5.263   7.690  0.00  0.00    +0.000 S 
ATOM     27  C   UNL     1      53.460   6.853   7.180  0.00  0.00    +0.000 A 
ATOM     28  N   UNL     1      53.448   7.129   5.865  0.00  0.00    +0.000 NA
ATOM     29  C   UNL     1      53.210   8.412   5.600  0.00  0.00    +0.000 A 
ATOM     30  N   UNL     1      53.014   9.390   6.486  0.00  0.00    +0.000 NA
ATOM     31  C   UNL     1      53.031   9.049   7.786  0.00  0.00    +0.000 A 
ATOM     32 CL   UNL     1      52.914  10.344   8.876  0.00  0.00    +0.000 Cl
ATOM     33  C   UNL     1      53.245   7.742   8.227  0.00  0.00    +0.000 A 
ENDBRANCH  21  24
ENDBRANCH  19  20
ENDBRANCH   4  19
TORSDOF 7
ENDMDL
MODEL 8
REMARK VINA RESULT:    -6.808      4.133     10.644
REMARK INTER + INTRA:         -10.069
REMARK INTER:                  -8.643
REMARK INTRA:                  -1.426
REMARK UNBOUND:                -0.474
REMARK  Name = 
REMARK  8 active torsions:
REMARK  status: ('A' for Active; 'I' for Inactive)
REMARK    1  A    between atoms: C_1  and  C_2
REMARK    2  A    between atoms: C_2  and  N_10
REMARK    3  A    between atoms: C_3  and  C_4
REMARK    4  A    between atoms: N_10  and  C_11
REMARK    5  A    between atoms: C_11  and  C_12
REMARK    6  A    between atoms: C_15  and  C_16
REMARK    7  A    between atoms: C_16  and  N_17
REMARK    8  A    between atoms: C_18  and  C_20
REMARK                            x       y       z     vdW  Elec       q    Type
REMARK                         _______ _______ _______ _____ _____    ______ ____
ROOT
ATOM      1  C   UNL     1      49.391   6.551  19.044  0.00  0.00    +0.000 A 
ATOM      2  C   UNL     1      48.055   6.200  19.284  0.00  0.00    +0.000 A 
ATOM      3  C   UNL     1      47.383   5.319  18.429  0.00  0.00    +0.000 A 
ATOM      4  C   UNL     1      48.032   4.768  17.316  0.00  0.00    +0.000 A 
ATOM      5  C   UNL     1      49.355   5.147  17.054  0.00  0.00    +0.000 A 
ATOM      6  C   UNL     1      50.028   6.024  17.912  0.00  0.00    +0.000 A 
ENDROOT
BRANCH   1   7
ATOM      7  C   UNL     1      50.121   7.508  19.961  0.00  0.00    +0.000 C 
BRANCH   7   8
ATOM      8  N   UNL     1      49.975   8.882  19.515  0.00  0.00    +0.000 N 
ATOM      9  H   UNL     1      50.486   9.134  18.672  0.00  0.00    +0.000 HD
BRANCH   8  11
ATOM     10  C   UNL     1      49.568  10.865  20.945  0.00  0.00    +0.000 C 
ATOM     11  C   UNL     1      49.058   9.820  19.975  0.00  0.00    +0.000 C 
ATOM     12  C   UNL     1      47.773   9.784  19.563  0.00  0.00    +0.000 C 
BRANCH  12  13
ATOM     13  C   UNL     1      46.711  10.730  19.925  0.00  0.00    +0.000 A 
ATOM     14  C   UNL     1      45.776  10.394  20.909  0.00  0.00    +0.000 A 
ATOM     15  C   UNL     1      44.781  11.303  21.279  0.00  0.00    +0.000 A 
ATOM     16  C   UNL     1      44.717  12.554  20.665  0.00  0.00    +0.000 A 
ATOM     17  C   UNL     1      45.644  12.893  19.680  0.00  0.00    +0.000 A 
ATOM     18  C   UNL     1      46.638  11.984  19.310  0.00  0.00    +0.000 A 
ENDBRANCH  12  13
ENDBRANCH   8  11
ENDBRANCH   7   8
ENDBRANCH   1   7
BRANCH   4  19
ATOM     19  C   UNL     1      47.324   3.784  16.421  0.00  0.00    +0.000 C 
BRANCH  19  20
ATOM     20  N   UNL     1      46.528   4.447  15.415  0.00  0.00    +0.000 N 
ATOM     21  C   UNL     1      46.785   4.241  14.075  0.00  0.00    +0.000 C 
ATOM     22  O   UNL     1      47.698   3.528  13.680  0.00  0.00    +0.000 OA
ATOM     23  H   UNL     1      45.682   4.916  15.706  0.00  0.00    +0.000 HD
BRANCH  21  24
ATOM     24  C   UNL     1      45.912   4.981  13.160  0.00  0.00    +0.000 A 
ATOM     25  C   UNL     1      44.840   4.363  12.531  0.00  0.00    +0.000 A 
ATOM     26  S   UNL     1      43.893   5.431  11.605  0.00  0.00    +0.000 S 
ATOM     27  C   UNL     1      44.885   6.747  12.021  0.00  0.00    +0.000 A 
ATOM     28  N   UNL     1      44.586   7.969  11.546  0.00  0.00    +0.000 NA
ATOM     29  C   UNL     1      45.452   8.907  11.926  0.00  0.00    +0.000 A 
ATOM     30  N   UNL     1      46.539   8.734  12.680  0.00  0.00    +0.000 NA
ATOM     31  C   UNL     1      46.780   7.491  13.130  0.00  0.00    +0.000 A 
ATOM     32 CL   UNL     1      48.242   7.294  13.968  0.00  0.00    +0.000 Cl
ATOM     33  C   UNL     1      45.955   6.403  12.840  0.00  0.00    +0.000 A 
ENDBRANCH  21  24
ENDBRANCH  19  20
ENDBRANCH   4  19
TORSDOF 7
ENDMDL
MODEL 9
REMARK VINA RESULT:    -6.805      3.611      5.270
REMARK INTER + INTRA:         -10.064
REMARK INTER:                  -8.131
REMARK INTRA:                  -1.934
REMARK UNBOUND:                -0.474
REMARK  Name = 
REMARK  8 active torsions:
REMARK  status: ('A' for Active; 'I' for Inactive)
REMARK    1  A    between atoms: C_1  and  C_2
REMARK    2  A    between atoms: C_2  and  N_10
REMARK    3  A    between atoms: C_3  and  C_4
REMARK    4  A    between atoms: N_10  and  C_11
REMARK    5  A    between atoms: C_11  and  C_12
REMARK    6  A    between atoms: C_15  and  C_16
REMARK    7  A    between atoms: C_16  and  N_17
REMARK    8  A    between atoms: C_18  and  C_20
REMARK                            x       y       z     vdW  Elec       q    Type
REMARK                         _______ _______ _______ _____ _____    ______ ____
ROOT
ATOM      1  C   UNL     1      48.213  10.055  12.449  0.00  0.00    +0.000 A 
ATOM      2  C   UNL     1      48.840   8.935  11.889  0.00  0.00    +0.000 A 
ATOM      3  C   UNL     1      50.004   8.406  12.460  0.00  0.00    +0.000 A 
ATOM      4  C   UNL     1      50.563   8.985  13.607  0.00  0.00    +0.000 A 
ATOM      5  C   UNL     1      49.958  10.129  14.145  0.00  0.00    +0.000 A 
ATOM      6  C   UNL     1      48.793  10.654  13.577  0.00  0.00    +0.000 A 
ENDROOT
BRANCH   1   7
ATOM      7  C   UNL     1      46.958  10.636  11.833  0.00  0.00    +0.000 C 
BRANCH   7   8
ATOM      8  N   UNL     1      45.764  10.036  12.401  0.00  0.00    +0.000 N 
ATOM      9  H   UNL     1      45.280  10.589  13.104  0.00  0.00    +0.000 HD
BRANCH   8  11
ATOM     10  C   UNL     1      43.978   9.126  10.943  0.00  0.00    +0.000 C 
ATOM     11  C   UNL     1      45.094   8.907  11.943  0.00  0.00    +0.000 C 
ATOM     12  C   UNL     1      45.438   7.678  12.384  0.00  0.00    +0.000 C 
BRANCH  12  13
ATOM     13  C   UNL     1      44.855   6.401  11.957  0.00  0.00    +0.000 A 
ATOM     14  C   UNL     1      45.321   5.767  10.800  0.00  0.00    +0.000 A 
ATOM     15  C   UNL     1      44.791   4.535  10.407  0.00  0.00    +0.000 A 
ATOM     16  C   UNL     1      43.790   3.932  11.168  0.00  0.00    +0.000 A 
ATOM     17  C   UNL     1      43.317   4.562  12.319  0.00  0.00    +0.000 A 
ATOM     18  C   UNL     1      43.848   5.793  12.713  0.00  0.00    +0.000 A 
ENDBRANCH  12  13
ENDBRANCH   8  11
ENDBRANCH   7   8
ENDBRANCH   1   7
BRANCH   4  19
ATOM     19  C   UNL     1      51.790   8.390  14.250  0.00  0.00    +0.000 C 
BRANCH  19  20
ATOM     20  N   UNL     1      51.479   7.195  14.998  0.00  0.00    +0.000 N 
ATOM     21  C   UNL     1      51.079   7.281  16.316  0.00  0.00    +0.000 C 
ATOM     22  O   UNL     1      51.000   8.347  16.913  0.00  0.00    +0.000 OA
ATOM     23  H   UNL     1      51.389   6.324  14.494  0.00  0.00    +0.000 HD
BRANCH  21  24
ATOM     24  C   UNL     1      50.803   5.995  16.961  0.00  0.00    +0.000 A 
ATOM     25  C   UNL     1      51.727   5.406  17.813  0.00  0.00    +0.000 A 
ATOM     26  S   UNL     1      51.157   3.977  18.541  0.00  0.00    +0.000 S 
ATOM     27  C   UNL     1      49.663   4.108  17.742  0.00  0.00    +0.000 A 
ATOM     28  N   UNL     1      48.718   3.178  17.964  0.00  0.00    +0.000 NA
ATOM     29  C   UNL     1      47.605   3.383  17.261  0.00  0.00    +0.000 A 
ATOM     30  N   UNL     1      47.377   4.369  16.392  0.00  0.00    +0.000 NA
ATOM     31  C   UNL     1      48.357   5.272  16.220  0.00  0.00    +0.000 A 
ATOM     32 CL   UNL     1      48.076   6.426  15.009  0.00  0.00    +0.000 Cl
ATOM     33  C   UNL     1      49.575   5.211  16.899  0.00  0.00    +0.000 A 
ENDBRANCH  21  24
ENDBRANCH  19  20
ENDBRANCH   4  19
TORSDOF 7
ENDMDL
