MODEL 1
REMARK VINA RESULT:    -7.092      0.000      0.000
REMARK INTER + INTRA:          -9.228
REMARK INTER:                  -8.750
REMARK INTRA:                  -0.478
REMARK UNBOUND:                -0.478
REMARK  Name = 
REMARK  4 active torsions:
REMARK  status: ('A' for Active; 'I' for Inactive)
REMARK    1  A    between atoms: C_2  and  C_4
REMARK    2  A    between atoms: C_8  and  C_9
REMARK    3  A    between atoms: C_9  and  S_10
REMARK    4  A    between atoms: S_10  and  C_11
REMARK                            x       y       z     vdW  Elec       q    Type
REMARK                         _______ _______ _______ _____ _____    ______ ____
ROOT
ATOM      1  S   UNL     1      44.723   5.758  11.724  0.00  0.00    +0.000 S 
ENDROOT
BRANCH   1   2
ATOM      2  C   UNL     1      46.365   6.051  12.377  0.00  0.00    +0.000 A 
ATOM      3  C   UNL     1      47.336   6.859  11.808  0.00  0.00    +0.000 A 
ATOM      4  C   UNL     1      48.501   7.068  12.535  0.00  0.00    +0.000 A 
ATOM      5  N   UNL     1      48.749   6.538  13.756  0.00  0.00    +0.000 NA
ATOM      6  C   UNL     1      47.818   5.737  14.310  0.00  0.00    +0.000 A 
ATOM      7  N   UNL     1      48.004   5.250  15.586  0.00  0.00    +0.000 N 
ATOM      8  C   UNL     1      47.528   3.934  16.014  0.00  0.00    +0.000 C 
ATOM      9  C   UNL     1      47.002   4.059  17.452  0.00  0.00    +0.000 C 
ATOM     10  O   UNL     1      48.016   4.566  18.337  0.00  0.00    +0.000 OA
ATOM     11  C   UNL     1      48.480   5.857  17.890  0.00  0.00    +0.000 C 
ATOM     12  C   UNL     1      49.049   5.802  16.457  0.00  0.00    +0.000 C 
ATOM     13  C   UNL     1      46.625   5.488  13.630  0.00  0.00    +0.000 A 
ENDBRANCH   1   2
BRANCH   1  14
ATOM     14  C   UNL     1      44.946   5.773   9.920  0.00  0.00    +0.000 C 
BRANCH  14  19
ATOM     15  C   UNL     1      46.242   2.809   7.865  0.00  0.00    +0.000 A 
ATOM     16  C   UNL     1      45.538   1.745   8.436  0.00  0.00    +0.000 A 
ATOM     17  C   UNL     1      44.609   1.991   9.447  0.00  0.00    +0.000 A 
ATOM     18  C   UNL     1      44.403   3.293   9.911  0.00  0.00    +0.000 A 
ATOM     19  C   UNL     1      45.136   4.368   9.386  0.00  0.00    +0.000 A 
ATOM     20  C   UNL     1      46.045   4.113   8.345  0.00  0.00    +0.000 A 
BRANCH  15  22
ATOM     21  N   UNL     1      47.123   3.374   5.662  0.00  0.00    +0.000 N 
ATOM     22  C   UNL     1      47.235   2.592   6.778  0.00  0.00    +0.000 C 
ATOM     23  O   UNL     1      48.137   1.770   6.884  0.00  0.00    +0.000 OA
ATOM     24  H   UNL     1      47.859   3.286   4.974  0.00  0.00    +0.000 HD
ATOM     25  H   UNL     1      46.567   4.217   5.646  0.00  0.00    +0.000 HD
ENDBRANCH  15  22
ENDBRANCH  14  19
ENDBRANCH   1  14
TORSDOF 4
ENDMDL
MODEL 2
REMARK VINA RESULT:    -6.659      5.199     10.947
REMARK INTER + INTRA:          -8.694
REMARK INTER:                  -8.325
REMARK INTRA:                  -0.369
REMARK UNBOUND:                -0.478
REMARK  Name = 
REMARK  4 active torsions:
REMARK  status: ('A' for Active; 'I' for Inactive)
REMARK    1  A    between atoms: C_2  and  C_4
REMARK    2  A    between atoms: C_8  and  C_9
REMARK    3  A    between atoms: C_9  and  S_10
REMARK    4  A    between atoms: S_10  and  C_11
REMARK                            x       y       z     vdW  Elec       q    Type
REMARK                         _______ _______ _______ _____ _____    ______ ____
ROOT
ATOM      1  S   UNL     1      47.756   1.445   5.831  0.00  0.00    +0.000 S 
ENDROOT
BRANCH   1   2
ATOM      2  C   UNL     1      46.887   0.647   4.485  0.00  0.00    +0.000 A 
ATOM      3  C   UNL     1      46.249   1.285   3.434  0.00  0.00    +0.000 A 
ATOM      4  C   UNL     1      45.745   0.490   2.412  0.00  0.00    +0.000 A 
ATOM      5  N   UNL     1      45.836  -0.860   2.376  0.00  0.00    +0.000 NA
ATOM      6  C   UNL     1      46.439  -1.492   3.402  0.00  0.00    +0.000 A 
ATOM      7  N   UNL     1      46.621  -2.857   3.354  0.00  0.00    +0.000 N 
ATOM      8  C   UNL     1      46.581  -3.708   4.545  0.00  0.00    +0.000 C 
ATOM      9  C   UNL     1      47.666  -4.786   4.400  0.00  0.00    +0.000 C 
ATOM     10  O   UNL     1      47.484  -5.553   3.196  0.00  0.00    +0.000 OA
ATOM     11  C   UNL     1      47.514  -4.694   2.037  0.00  0.00    +0.000 C 
ATOM     12  C   UNL     1      46.429  -3.599   2.102  0.00  0.00    +0.000 C 
ATOM     13  C   UNL     1      46.967  -0.749   4.459  0.00  0.00    +0.000 A 
ENDBRANCH   1   2
BRANCH   1  14
ATOM     14  C   UNL     1      46.826   0.965   7.318  0.00  0.00    +0.000 C 
BRANCH  14  19
ATOM     15  C   UNL     1      44.940   3.169   9.822  0.00  0.00    +0.000 A 
ATOM     16  C   UNL     1      45.132   4.440   9.275  0.00  0.00    +0.000 A 
ATOM     17  C   UNL     1      45.826   4.579   8.073  0.00  0.00    +0.000 A 
ATOM     18  C   UNL     1      46.354   3.457   7.430  0.00  0.00    +0.000 A 
ATOM     19  C   UNL     1      46.215   2.178   7.990  0.00  0.00    +0.000 A 
ATOM     20  C   UNL     1      45.486   2.044   9.184  0.00  0.00    +0.000 A 
BRANCH  15  22
ATOM     21  N   UNL     1      44.937   2.695  12.215  0.00  0.00    +0.000 N 
ATOM     22  C   UNL     1      44.199   2.974  11.098  0.00  0.00    +0.000 C 
ATOM     23  O   UNL     1      42.981   3.088  11.159  0.00  0.00    +0.000 OA
ATOM     24  H   UNL     1      44.432   2.661  13.091  0.00  0.00    +0.000 HD
ATOM     25  H   UNL     1      45.935   2.844  12.256  0.00  0.00    +0.000 HD
ENDBRANCH  15  22
ENDBRANCH  14  19
ENDBRANCH   1  14
TORSDOF 4
ENDMDL
MODEL 3
REMARK VINA RESULT:    -6.605      2.184      3.217
REMARK INTER + INTRA:          -8.628
REMARK INTER:                  -8.066
REMARK INTRA:                  -0.562
REMARK UNBOUND:                -0.478
REMARK  Name = 
REMARK  4 active torsions:
REMARK  status: ('A' for Active; 'I' for Inactive)
REMARK    1  A    between atoms: C_2  and  C_4
REMARK    2  A    between atoms: C_8  and  C_9
REMARK    3  A    between atoms: C_9  and  S_10
REMARK    4  A    between atoms: S_10  and  C_11
REMARK                            x       y       z     vdW  Elec       q    Type
REMARK                         _______ _______ _______ _____ _____    ______ ____
ROOT
ATOM      1  S   UNL     1      44.277   5.942  11.803  0.00  0.00    +0.000 S 
ENDROOT
BRANCH   1   2
ATOM      2  C   UNL     1      45.629   5.751  12.961  0.00  0.00    +0.000 A 
ATOM      3  C   UNL     1      45.916   4.615  13.699  0.00  0.00    +0.000 A 
ATOM      4  C   UNL     1      47.088   4.613  14.444  0.00  0.00    +0.000 A 
ATOM      5  N   UNL     1      47.964   5.644  14.496  0.00  0.00    +0.000 NA
ATOM      6  C   UNL     1      47.686   6.761  13.796  0.00  0.00    +0.000 A 
ATOM      7  N   UNL     1      48.598   7.794  13.762  0.00  0.00    +0.000 N 
ATOM      8  C   UNL     1      48.205   9.202  13.686  0.00  0.00    +0.000 C 
ATOM      9  C   UNL     1      49.189   9.924  12.754  0.00  0.00    +0.000 C 
ATOM     10  O   UNL     1      50.545   9.779  13.212  0.00  0.00    +0.000 OA
ATOM     11  C   UNL     1      50.908   8.385  13.292  0.00  0.00    +0.000 C 
ATOM     12  C   UNL     1      49.974   7.598  14.235  0.00  0.00    +0.000 C 
ATOM     13  C   UNL     1      46.524   6.824  13.027  0.00  0.00    +0.000 A 
ENDBRANCH   1   2
BRANCH   1  14
ATOM     14  C   UNL     1      45.075   5.916  10.169  0.00  0.00    +0.000 C 
BRANCH  14  19
ATOM     15  C   UNL     1      45.969   2.902   7.978  0.00  0.00    +0.000 A 
ATOM     16  C   UNL     1      45.264   1.876   8.614  0.00  0.00    +0.000 A 
ATOM     17  C   UNL     1      44.462   2.167   9.718  0.00  0.00    +0.000 A 
ATOM     18  C   UNL     1      44.384   3.474  10.207  0.00  0.00    +0.000 A 
ATOM     19  C   UNL     1      45.123   4.508   9.613  0.00  0.00    +0.000 A 
ATOM     20  C   UNL     1      45.902   4.210   8.481  0.00  0.00    +0.000 A 
BRANCH  15  22
ATOM     21  N   UNL     1      47.028   3.672   5.920  0.00  0.00    +0.000 N 
ATOM     22  C   UNL     1      46.828   2.637   6.792  0.00  0.00    +0.000 C 
ATOM     23  O   UNL     1      47.364   1.550   6.614  0.00  0.00    +0.000 OA
ATOM     24  H   UNL     1      47.690   3.509   5.173  0.00  0.00    +0.000 HD
ATOM     25  H   UNL     1      46.821   4.630   6.161  0.00  0.00    +0.000 HD
ENDBRANCH  15  22
ENDBRANCH  14  19
ENDBRANCH   1  14
TORSDOF 4
ENDMDL
MODEL 4
REMARK VINA RESULT:    -6.582      3.354      7.564
REMARK INTER + INTRA:          -8.599
REMARK INTER:                  -7.930
REMARK INTRA:                  -0.669
REMARK UNBOUND:                -0.478
REMARK  Name = 
REMARK  4 active torsions:
REMARK  status: ('A' for Active; 'I' for Inactive)
REMARK    1  A    between atoms: C_2  and  C_4
REMARK    2  A    between atoms: C_8  and  C_9
REMARK    3  A    between atoms: C_9  and  S_10
REMARK    4  A    between atoms: S_10  and  C_11
REMARK                            x       y       z     vdW  Elec       q    Type
REMARK                         _______ _______ _______ _____ _____    ______ ____
ROOT
ATOM      1  S   UNL     1      49.332   7.300  13.805  0.00  0.00    +0.000 S 
ENDROOT
BRANCH   1   2
ATOM      2  C   UNL     1      47.658   7.692  13.305  0.00  0.00    +0.000 A 
ATOM      3  C   UNL     1      47.151   8.962  13.080  0.00  0.00    +0.000 A 
ATOM      4  C   UNL     1      45.864   9.056  12.566  0.00  0.00    +0.000 A 
ATOM      5  N   UNL     1      45.076   7.995  12.272  0.00  0.00    +0.000 NA
ATOM      6  C   UNL     1      45.553   6.756  12.504  0.00  0.00    +0.000 A 
ATOM      7  N   UNL     1      44.809   5.655  12.138  0.00  0.00    +0.000 N 
ATOM      8  C   UNL     1      44.820   4.399  12.891  0.00  0.00    +0.000 C 
ATOM      9  C   UNL     1      44.781   3.239  11.886  0.00  0.00    +0.000 C 
ATOM     10  O   UNL     1      43.629   3.329  11.028  0.00  0.00    +0.000 OA
ATOM     11  C   UNL     1      43.631   4.578  10.307  0.00  0.00    +0.000 C 
ATOM     12  C   UNL     1      43.644   5.794  11.256  0.00  0.00    +0.000 C 
ATOM     13  C   UNL     1      46.840   6.595  13.019  0.00  0.00    +0.000 A 
ENDBRANCH   1   2
BRANCH   1  14
ATOM     14  C   UNL     1      49.479   7.996  15.478  0.00  0.00    +0.000 C 
BRANCH  14  19
ATOM     15  C   UNL     1      47.896   4.916  17.118  0.00  0.00    +0.000 A 
ATOM     16  C   UNL     1      47.686   5.371  18.423  0.00  0.00    +0.000 A 
ATOM     17  C   UNL     1      48.010   6.686  18.758  0.00  0.00    +0.000 A 
ATOM     18  C   UNL     1      48.568   7.539  17.803  0.00  0.00    +0.000 A 
ATOM     19  C   UNL     1      48.832   7.086  16.502  0.00  0.00    +0.000 A 
ATOM     20  C   UNL     1      48.472   5.770  16.165  0.00  0.00    +0.000 A 
BRANCH  15  22
ATOM     21  N   UNL     1      46.982   2.720  17.661  0.00  0.00    +0.000 N 
ATOM     22  C   UNL     1      47.556   3.524  16.715  0.00  0.00    +0.000 C 
ATOM     23  O   UNL     1      47.752   3.116  15.577  0.00  0.00    +0.000 OA
ATOM     24  H   UNL     1      46.668   1.811  17.350  0.00  0.00    +0.000 HD
ATOM     25  H   UNL     1      46.578   3.088  18.511  0.00  0.00    +0.000 HD
ENDBRANCH  15  22
ENDBRANCH  14  19
ENDBRANCH   1  14
TORSDOF 4
ENDMDL
MODEL 5
REMARK VINA RESULT:    -6.350      2.085      2.908
REMARK INTER + INTRA:          -8.313
REMARK INTER:                  -7.842
REMARK INTRA:                  -0.470
REMARK UNBOUND:                -0.478
REMARK  Name = 
REMARK  4 active torsions:
REMARK  status: ('A' for Active; 'I' for Inactive)
REMARK    1  A    between atoms: C_2  and  C_4
REMARK    2  A    between atoms: C_8  and  C_9
REMARK    3  A    between atoms: C_9  and  S_10
REMARK    4  A    between atoms: S_10  and  C_11
REMARK                            x       y       z     vdW  Elec       q    Type
REMARK                         _______ _______ _______ _____ _____    ______ ____
ROOT
ATOM      1  S   UNL     1      47.518   7.344  11.977  0.00  0.00    +0.000 S 
ENDROOT
BRANCH   1   2
ATOM      2  C   UNL     1      48.764   7.358  13.264  0.00  0.00    +0.000 A 
ATOM      3  C   UNL     1      49.939   8.093  13.253  0.00  0.00    +0.000 A 
ATOM      4  C   UNL     1      50.715   8.076  14.404  0.00  0.00    +0.000 A 
ATOM      5  N   UNL     1      50.402   7.392  15.530  0.00  0.00    +0.000 NA
ATOM      6  C   UNL     1      49.271   6.660  15.545  0.00  0.00    +0.000 A 
ATOM      7  N   UNL     1      48.883   6.021  16.702  0.00  0.00    +0.000 N 
ATOM      8  C   UNL     1      48.180   4.736  16.706  0.00  0.00    +0.000 C 
ATOM      9  C   UNL     1      47.121   4.773  17.818  0.00  0.00    +0.000 C 
ATOM     10  O   UNL     1      47.717   5.052  19.098  0.00  0.00    +0.000 OA
ATOM     11  C   UNL     1      48.415   6.315  19.068  0.00  0.00    +0.000 C 
ATOM     12  C   UNL     1      49.516   6.341  17.987  0.00  0.00    +0.000 C 
ATOM     13  C   UNL     1      48.447   6.637  14.419  0.00  0.00    +0.000 A 
ENDBRANCH   1   2
BRANCH   1  14
ATOM     14  C   UNL     1      45.954   7.082  12.866  0.00  0.00    +0.000 C 
BRANCH  14  19
ATOM     15  C   UNL     1      44.633   4.645  10.221  0.00  0.00    +0.000 A 
ATOM     16  C   UNL     1      43.563   4.053  10.897  0.00  0.00    +0.000 A 
ATOM     17  C   UNL     1      43.238   4.476  12.185  0.00  0.00    +0.000 A 
ATOM     18  C   UNL     1      43.996   5.468  12.813  0.00  0.00    +0.000 A 
ATOM     19  C   UNL     1      45.104   6.039  12.170  0.00  0.00    +0.000 A 
ATOM     20  C   UNL     1      45.403   5.629  10.859  0.00  0.00    +0.000 A 
BRANCH  15  22
ATOM     21  N   UNL     1      44.334   3.170   8.301  0.00  0.00    +0.000 N 
ATOM     22  C   UNL     1      45.009   4.230   8.842  0.00  0.00    +0.000 C 
ATOM     23  O   UNL     1      45.863   4.827   8.199  0.00  0.00    +0.000 OA
ATOM     24  H   UNL     1      44.529   2.959   7.331  0.00  0.00    +0.000 HD
ATOM     25  H   UNL     1      43.468   2.825   8.690  0.00  0.00    +0.000 HD
ENDBRANCH  15  22
ENDBRANCH  14  19
ENDBRANCH   1  14
TORSDOF 4
ENDMDL
MODEL 6
REMARK VINA RESULT:    -6.247      3.380      7.651
REMARK INTER + INTRA:          -8.186
REMARK INTER:                  -7.606
REMARK INTRA:                  -0.580
REMARK UNBOUND:                -0.478
REMARK  Name = 
REMARK  4 active torsions:
REMARK  status: ('A' for Active; 'I' for Inactive)
REMARK    1  A    between atoms: C_2  and  C_4
REMARK    2  A    between atoms: C_8  and  C_9
REMARK    3  A    between atoms: C_9  and  S_10
REMARK    4  A    between atoms: S_10  and  C_11
REMARK                            x       y       z     vdW  Elec       q    Type
REMARK                         _______ _______ _______ _____ _____    ______ ____
ROOT
ATOM      1  S   UNL     1      49.322   7.141  14.416  0.00  0.00    +0.000 S 
ENDROOT
BRANCH   1   2
ATOM      2  C   UNL     1      47.686   7.534  13.802  0.00  0.00    +0.000 A 
ATOM      3  C   UNL     1      47.170   8.806  13.613  0.00  0.00    +0.000 A 
ATOM      4  C   UNL     1      45.928   8.909  13.000  0.00  0.00    +0.000 A 
ATOM      5  N   UNL     1      45.192   7.854  12.577  0.00  0.00    +0.000 NA
ATOM      6  C   UNL     1      45.677   6.611  12.772  0.00  0.00    +0.000 A 
ATOM      7  N   UNL     1      44.991   5.523  12.279  0.00  0.00    +0.000 N 
ATOM      8  C   UNL     1      44.970   4.223  12.952  0.00  0.00    +0.000 C 
ATOM      9  C   UNL     1      45.040   3.127  11.879  0.00  0.00    +0.000 C 
ATOM     10  O   UNL     1      43.962   3.249  10.934  0.00  0.00    +0.000 OA
ATOM     11  C   UNL     1      43.994   4.541  10.293  0.00  0.00    +0.000 C 
ATOM     12  C   UNL     1      43.901   5.696  11.312  0.00  0.00    +0.000 C 
ATOM     13  C   UNL     1      46.920   6.442  13.382  0.00  0.00    +0.000 A 
ENDBRANCH   1   2
BRANCH   1  14
ATOM     14  C   UNL     1      49.247   7.540  16.188  0.00  0.00    +0.000 C 
BRANCH  14  19
ATOM     15  C   UNL     1      49.078   3.914  17.417  0.00  0.00    +0.000 A 
ATOM     16  C   UNL     1      48.281   4.043  18.558  0.00  0.00    +0.000 A 
ATOM     17  C   UNL     1      47.758   5.290  18.900  0.00  0.00    +0.000 A 
ATOM     18  C   UNL     1      48.052   6.414  18.125  0.00  0.00    +0.000 A 
ATOM     19  C   UNL     1      48.891   6.314  17.004  0.00  0.00    +0.000 A 
ATOM     20  C   UNL     1      49.385   5.048  16.648  0.00  0.00    +0.000 A 
BRANCH  15  22
ATOM     21  N   UNL     1      50.662   2.095  17.775  0.00  0.00    +0.000 N 
ATOM     22  C   UNL     1      49.648   2.601  17.010  0.00  0.00    +0.000 C 
ATOM     23  O   UNL     1      49.213   1.979  16.049  0.00  0.00    +0.000 OA
ATOM     24  H   UNL     1      50.975   1.160  17.547  0.00  0.00    +0.000 HD
ATOM     25  H   UNL     1      50.869   2.444  18.700  0.00  0.00    +0.000 HD
ENDBRANCH  15  22
ENDBRANCH  14  19
ENDBRANCH   1  14
TORSDOF 4
ENDMDL
MODEL 7
REMARK VINA RESULT:    -6.231      1.921      2.395
REMARK INTER + INTRA:          -8.166
REMARK INTER:                  -7.893
REMARK INTRA:                  -0.273
REMARK UNBOUND:                -0.478
REMARK  Name = 
REMARK  4 active torsions:
REMARK  status: ('A' for Active; 'I' for Inactive)
REMARK    1  A    between atoms: C_2  and  C_4
REMARK    2  A    between atoms: C_8  and  C_9
REMARK    3  A    between atoms: C_9  and  S_10
REMARK    4  A    between atoms: S_10  and  C_11
REMARK                            x       y       z     vdW  Elec       q    Type
REMARK                         _______ _______ _______ _____ _____    ______ ____
ROOT
ATOM      1  S   UNL     1      44.907   5.282  11.530  0.00  0.00    +0.000 S 
ENDROOT
BRANCH   1   2
ATOM      2  C   UNL     1      45.521   6.907  11.963  0.00  0.00    +0.000 A 
ATOM      3  C   UNL     1      44.968   8.117  11.577  0.00  0.00    +0.000 A 
ATOM      4  C   UNL     1      45.509   9.273  12.125  0.00  0.00    +0.000 A 
ATOM      5  N   UNL     1      46.536   9.295  13.006  0.00  0.00    +0.000 NA
ATOM      6  C   UNL     1      47.094   8.124  13.374  0.00  0.00    +0.000 A 
ATOM      7  N   UNL     1      48.084   8.108  14.333  0.00  0.00    +0.000 N 
ATOM      8  C   UNL     1      49.188   7.146  14.320  0.00  0.00    +0.000 C 
ATOM      9  C   UNL     1      49.471   6.723  15.769  0.00  0.00    +0.000 C 
ATOM     10  O   UNL     1      49.771   7.861  16.597  0.00  0.00    +0.000 OA
ATOM     11  C   UNL     1      48.676   8.801  16.585  0.00  0.00    +0.000 C 
ATOM     12  C   UNL     1      48.352   9.291  15.158  0.00  0.00    +0.000 C 
ATOM     13  C   UNL     1      46.594   6.928  12.859  0.00  0.00    +0.000 A 
ENDBRANCH   1   2
BRANCH   1  14
ATOM     14  C   UNL     1      44.815   5.302   9.714  0.00  0.00    +0.000 C 
BRANCH  14  19
ATOM     15  C   UNL     1      46.488   2.579   7.599  0.00  0.00    +0.000 A 
ATOM     16  C   UNL     1      45.893   1.422   8.112  0.00  0.00    +0.000 A 
ATOM     17  C   UNL     1      44.918   1.527   9.104  0.00  0.00    +0.000 A 
ATOM     18  C   UNL     1      44.555   2.779   9.606  0.00  0.00    +0.000 A 
ATOM     19  C   UNL     1      45.175   3.947   9.139  0.00  0.00    +0.000 A 
ATOM     20  C   UNL     1      46.133   3.834   8.116  0.00  0.00    +0.000 A 
BRANCH  15  22
ATOM     21  N   UNL     1      47.263   3.171   5.364  0.00  0.00    +0.000 N 
ATOM     22  C   UNL     1      47.526   2.514   6.535  0.00  0.00    +0.000 C 
ATOM     23  O   UNL     1      48.586   1.925   6.703  0.00  0.00    +0.000 OA
ATOM     24  H   UNL     1      48.014   3.202   4.687  0.00  0.00    +0.000 HD
ATOM     25  H   UNL     1      46.534   3.865   5.284  0.00  0.00    +0.000 HD
ENDBRANCH  15  22
ENDBRANCH  14  19
ENDBRANCH   1  14
TORSDOF 4
ENDMDL
MODEL 8
REMARK VINA RESULT:    -5.561      3.576      4.135
REMARK INTER + INTRA:          -7.340
REMARK INTER:                  -7.077
REMARK INTRA:                  -0.263
REMARK UNBOUND:                -0.478
REMARK  Name = 
REMARK  4 active torsions:
REMARK  status: ('A' for Active; 'I' for Inactive)
REMARK    1  A    between atoms: C_2  and  C_4
REMARK    2  A    between atoms: C_8  and  C_9
REMARK    3  A    between atoms: C_9  and  S_10
REMARK    4  A    between atoms: S_10  and  C_11
REMARK                            x       y       z     vdW  Elec       q    Type
REMARK                         _______ _______ _______ _____ _____    ______ ____
ROOT
ATOM      1  S   UNL     1      46.176   5.775  11.659  0.00  0.00    +0.000 S 
ENDROOT
BRANCH   1   2
ATOM      2  C   UNL     1      46.645   7.490  11.868  0.00  0.00    +0.000 A 
ATOM      3  C   UNL     1      45.790   8.537  12.173  0.00  0.00    +0.000 A 
ATOM      4  C   UNL     1      46.362   9.777  12.429  0.00  0.00    +0.000 A 
ATOM      5  N   UNL     1      47.692  10.028  12.400  0.00  0.00    +0.000 NA
ATOM      6  C   UNL     1      48.531   9.021  12.088  0.00  0.00    +0.000 A 
ATOM      7  N   UNL     1      49.893   9.224  12.132  0.00  0.00    +0.000 N 
ATOM      8  C   UNL     1      50.827   8.562  11.220  0.00  0.00    +0.000 C 
ATOM      9  C   UNL     1      52.087   8.187  12.015  0.00  0.00    +0.000 C 
ATOM     10  O   UNL     1      52.681   9.344  12.630  0.00  0.00    +0.000 OA
ATOM     11  C   UNL     1      51.740   9.987  13.514  0.00  0.00    +0.000 C 
ATOM     12  C   UNL     1      50.455  10.417  12.776  0.00  0.00    +0.000 C 
ATOM     13  C   UNL     1      48.018   7.751  11.821  0.00  0.00    +0.000 A 
ENDBRANCH   1   2
BRANCH   1  14
ATOM     14  C   UNL     1      45.301   5.737  10.066  0.00  0.00    +0.000 C 
BRANCH  14  19
ATOM     15  C   UNL     1      46.290   2.927   7.655  0.00  0.00    +0.000 A 
ATOM     16  C   UNL     1      45.675   1.821   8.249  0.00  0.00    +0.000 A 
ATOM     17  C   UNL     1      44.902   1.991   9.397  0.00  0.00    +0.000 A 
ATOM     18  C   UNL     1      44.764   3.257   9.972  0.00  0.00    +0.000 A 
ATOM     19  C   UNL     1      45.413   4.371   9.419  0.00  0.00    +0.000 A 
ATOM     20  C   UNL     1      46.162   4.195   8.243  0.00  0.00    +0.000 A 
BRANCH  15  22
ATOM     21  N   UNL     1      48.463   2.622   6.590  0.00  0.00    +0.000 N 
ATOM     22  C   UNL     1      47.116   2.792   6.425  0.00  0.00    +0.000 C 
ATOM     23  O   UNL     1      46.615   2.800   5.307  0.00  0.00    +0.000 OA
ATOM     24  H   UNL     1      49.000   2.434   5.754  0.00  0.00    +0.000 HD
ATOM     25  H   UNL     1      48.870   2.357   7.476  0.00  0.00    +0.000 HD
ENDBRANCH  15  22
ENDBRANCH  14  19
ENDBRANCH   1  14
TORSDOF 4
ENDMDL
MODEL 9
REMARK VINA RESULT:    -5.379      3.844      9.214
REMARK INTER + INTRA:          -7.115
REMARK INTER:                  -6.703
REMARK INTRA:                  -0.413
REMARK UNBOUND:                -0.478
REMARK  Name = 
REMARK  4 active torsions:
REMARK  status: ('A' for Active; 'I' for Inactive)
REMARK    1  A    between atoms: C_2  and  C_4
REMARK    2  A    between atoms: C_8  and  C_9
REMARK    3  A    between atoms: C_9  and  S_10
REMARK    4  A    between atoms: S_10  and  C_11
REMARK                            x       y       z     vdW  Elec       q    Type
REMARK                         _______ _______ _______ _____ _____    ______ ____
ROOT
ATOM      1  S   UNL     1      48.974   7.604  15.259  0.00  0.00    +0.000 S 
ENDROOT
BRANCH   1   2
ATOM      2  C   UNL     1      48.073   6.083  14.978  0.00  0.00    +0.000 A 
ATOM      3  C   UNL     1      48.165   4.929  15.739  0.00  0.00    +0.000 A 
ATOM      4  C   UNL     1      47.285   3.895  15.444  0.00  0.00    +0.000 A 
ATOM      5  N   UNL     1      46.348   3.941  14.468  0.00  0.00    +0.000 NA
ATOM      6  C   UNL     1      46.263   5.052  13.710  0.00  0.00    +0.000 A 
ATOM      7  N   UNL     1      45.266   5.162  12.764  0.00  0.00    +0.000 N 
ATOM      8  C   UNL     1      45.444   5.874  11.498  0.00  0.00    +0.000 C 
ATOM      9  C   UNL     1      44.144   6.628  11.185  0.00  0.00    +0.000 C 
ATOM     10  O   UNL     1      43.019   5.731  11.132  0.00  0.00    +0.000 OA
ATOM     11  C   UNL     1      42.870   5.031  12.385  0.00  0.00    +0.000 C 
ATOM     12  C   UNL     1      44.134   4.227  12.752  0.00  0.00    +0.000 C 
ATOM     13  C   UNL     1      47.118   6.126  13.957  0.00  0.00    +0.000 A 
ENDBRANCH   1   2
BRANCH   1  14
ATOM     14  C   UNL     1      49.967   7.274  16.745  0.00  0.00    +0.000 C 
BRANCH  14  19
ATOM     15  C   UNL     1      48.371   6.199  20.060  0.00  0.00    +0.000 A 
ATOM     16  C   UNL     1      47.527   7.281  20.327  0.00  0.00    +0.000 A 
ATOM     17  C   UNL     1      47.437   8.332  19.414  0.00  0.00    +0.000 A 
ATOM     18  C   UNL     1      48.208   8.320  18.248  0.00  0.00    +0.000 A 
ATOM     19  C   UNL     1      49.097   7.266  17.986  0.00  0.00    +0.000 A 
ATOM     20  C   UNL     1      49.156   6.197  18.896  0.00  0.00    +0.000 A 
BRANCH  15  22
ATOM     21  N   UNL     1      48.527   3.798  20.460  0.00  0.00    +0.000 N 
ATOM     22  C   UNL     1      48.490   5.054  21.002  0.00  0.00    +0.000 C 
ATOM     23  O   UNL     1      48.583   5.221  22.212  0.00  0.00    +0.000 OA
ATOM     24  H   UNL     1      48.706   3.036  21.101  0.00  0.00    +0.000 HD
ATOM     25  H   UNL     1      48.709   3.637  19.480  0.00  0.00    +0.000 HD
ENDBRANCH  15  22
ENDBRANCH  14  19
ENDBRANCH   1  14
TORSDOF 4
ENDMDL
