MODEL 1
REMARK VINA RESULT:    -7.968      0.000      0.000
REMARK INTER + INTRA:         -12.042
REMARK INTER:                 -11.228
REMARK INTRA:                  -0.814
REMARK UNBOUND:                -0.814
REMARK  Name = 
REMARK  7 active torsions:
REMARK  status: ('A' for Active; 'I' for Inactive)
REMARK    1  A    between atoms: C_2  and  C_4
REMARK    2  A    between atoms: C_7  and  C_8
REMARK    3  A    between atoms: C_8  and  C_9
REMARK    4  A    between atoms: C_9  and  O_10
REMARK    5  A    between atoms: O_10  and  C_11
REMARK    6  A    between atoms: C_15  and  O_16
REMARK    7  A    between atoms: O_16  and  C_17
REMARK                            x       y       z     vdW  Elec       q    Type
REMARK                         _______ _______ _______ _____ _____    ______ ____
ROOT
ATOM      1  C   UNL     1      44.156   3.680  11.769  0.00  0.00    +0.000 C 
ENDROOT
BRANCH   1   2
ATOM      2  C   UNL     1      43.802   4.060  10.330  0.00  0.00    +0.000 C 
BRANCH   2   6
ATOM      3  C   UNL     1      46.592   2.384   7.485  0.00  0.00    +0.000 A 
ATOM      4  C   UNL     1      46.390   3.766   7.537  0.00  0.00    +0.000 A 
ATOM      5  C   UNL     1      45.490   4.309   8.461  0.00  0.00    +0.000 A 
ATOM      6  C   UNL     1      44.785   3.476   9.342  0.00  0.00    +0.000 A 
ATOM      7  C   UNL     1      44.973   2.089   9.263  0.00  0.00    +0.000 A 
ATOM      8  C   UNL     1      45.866   1.545   8.337  0.00  0.00    +0.000 A 
BRANCH   3  10
ATOM      9  N   UNL     1      48.622   2.517   6.144  0.00  0.00    +0.000 N 
ATOM     10  C   UNL     1      47.547   1.763   6.527  0.00  0.00    +0.000 C 
ATOM     11  O   UNL     1      47.407   0.615   6.128  0.00  0.00    +0.000 OA
ATOM     12  H   UNL     1      49.324   2.041   5.591  0.00  0.00    +0.000 HD
ATOM     13  H   UNL     1      48.906   3.343   6.650  0.00  0.00    +0.000 HD
ENDBRANCH   3  10
ENDBRANCH   2   6
ENDBRANCH   1   2
BRANCH   1  14
ATOM     14  O   UNL     1      44.226   4.867  12.570  0.00  0.00    +0.000 OA
BRANCH  14  15
ATOM     15  C   UNL     1      45.482   5.393  12.742  0.00  0.00    +0.000 A 
ATOM     16  C   UNL     1      46.079   6.332  11.899  0.00  0.00    +0.000 A 
ATOM     17  C   UNL     1      47.354   6.825  12.187  0.00  0.00    +0.000 A 
ATOM     18  C   UNL     1      48.048   6.380  13.313  0.00  0.00    +0.000 A 
ATOM     19  C   UNL     1      47.461   5.440  14.157  0.00  0.00    +0.000 A 
ATOM     20  C   UNL     1      46.172   4.966  13.880  0.00  0.00    +0.000 A 
BRANCH  19  21
ATOM     21  O   UNL     1      48.048   4.947  15.296  0.00  0.00    +0.000 OA
BRANCH  21  22
ATOM     22  C   UNL     1      47.252   4.145  16.202  0.00  0.00    +0.000 C 
ATOM     23  C   UNL     1      47.176   4.583  17.679  0.00  0.00    +0.000 C 
ATOM     24  N   UNL     1      47.586   3.240  18.116  0.00  0.00    +0.000 NA
ATOM     25  C   UNL     1      47.952   2.880  16.740  0.00  0.00    +0.000 C 
ATOM     26  H   UNL     1      46.832   2.677  18.508  0.00  0.00    +0.000 HD
ENDBRANCH  21  22
ENDBRANCH  19  21
ENDBRANCH  14  15
ENDBRANCH   1  14
TORSDOF 7
ENDMDL
MODEL 2
REMARK VINA RESULT:    -7.139      3.078      4.224
REMARK INTER + INTRA:         -10.875
REMARK INTER:                  -9.916
REMARK INTRA:                  -0.959
REMARK UNBOUND:                -0.814
REMARK  Name = 
REMARK  7 active torsions:
REMARK  status: ('A' for Active; 'I' for Inactive)
REMARK    1  A    between atoms: C_2  and  C_4
REMARK    2  A    between atoms: C_7  and  C_8
REMARK    3  A    between atoms: C_8  and  C_9
REMARK    4  A    between atoms: C_9  and  O_10
REMARK    5  A    between atoms: O_10  and  C_11
REMARK    6  A    between atoms: C_15  and  O_16
REMARK    7  A    between atoms: O_16  and  C_17
REMARK                            x       y       z     vdW  Elec       q    Type
REMARK                         _______ _______ _______ _____ _____    ______ ____
ROOT
ATOM      1  C   UNL     1      43.918   3.237  11.948  0.00  0.00    +0.000 C 
ENDROOT
BRANCH   1   2
ATOM      2  C   UNL     1      43.594   3.867  10.592  0.00  0.00    +0.000 C 
BRANCH   2   6
ATOM      3  C   UNL     1      46.529   2.835   7.590  0.00  0.00    +0.000 A 
ATOM      4  C   UNL     1      46.211   4.176   7.827  0.00  0.00    +0.000 A 
ATOM      5  C   UNL     1      45.264   4.510   8.803  0.00  0.00    +0.000 A 
ATOM      6  C   UNL     1      44.628   3.509   9.550  0.00  0.00    +0.000 A 
ATOM      7  C   UNL     1      44.932   2.166   9.285  0.00  0.00    +0.000 A 
ATOM      8  C   UNL     1      45.872   1.830   8.308  0.00  0.00    +0.000 A 
BRANCH   3  10
ATOM      9  N   UNL     1      47.454   3.031   5.345  0.00  0.00    +0.000 N 
ATOM     10  C   UNL     1      47.538   2.433   6.572  0.00  0.00    +0.000 C 
ATOM     11  O   UNL     1      48.430   1.636   6.827  0.00  0.00    +0.000 OA
ATOM     12  H   UNL     1      48.217   2.840   4.706  0.00  0.00    +0.000 HD
ATOM     13  H   UNL     1      46.915   3.870   5.192  0.00  0.00    +0.000 HD
ENDBRANCH   3  10
ENDBRANCH   2   6
ENDBRANCH   1   2
BRANCH   1  14
ATOM     14  O   UNL     1      43.893   4.250  12.961  0.00  0.00    +0.000 OA
BRANCH  14  15
ATOM     15  C   UNL     1      44.965   5.108  12.968  0.00  0.00    +0.000 A 
ATOM     16  C   UNL     1      46.305   4.714  12.946  0.00  0.00    +0.000 A 
ATOM     17  C   UNL     1      47.319   5.675  12.924  0.00  0.00    +0.000 A 
ATOM     18  C   UNL     1      47.007   7.035  12.930  0.00  0.00    +0.000 A 
ATOM     19  C   UNL     1      45.673   7.435  12.956  0.00  0.00    +0.000 A 
ATOM     20  C   UNL     1      44.657   6.471  12.953  0.00  0.00    +0.000 A 
BRANCH  19  21
ATOM     21  O   UNL     1      45.255   8.743  12.950  0.00  0.00    +0.000 OA
BRANCH  21  22
ATOM     22  C   UNL     1      45.200   9.454  11.690  0.00  0.00    +0.000 C 
ATOM     23  C   UNL     1      45.997  10.769  11.565  0.00  0.00    +0.000 C 
ATOM     24  N   UNL     1      44.791  11.476  11.108  0.00  0.00    +0.000 NA
ATOM     25  C   UNL     1      43.949  10.335  11.492  0.00  0.00    +0.000 C 
ATOM     26  H   UNL     1      44.780  11.685  10.110  0.00  0.00    +0.000 HD
ENDBRANCH  21  22
ENDBRANCH  19  21
ENDBRANCH  14  15
ENDBRANCH   1  14
TORSDOF 7
ENDMDL
MODEL 3
REMARK VINA RESULT:    -6.954      2.564      3.396
REMARK INTER + INTRA:         -10.613
REMARK INTER:                  -9.594
REMARK INTRA:                  -1.019
REMARK UNBOUND:                -0.814
REMARK  Name = 
REMARK  7 active torsions:
REMARK  status: ('A' for Active; 'I' for Inactive)
REMARK    1  A    between atoms: C_2  and  C_4
REMARK    2  A    between atoms: C_7  and  C_8
REMARK    3  A    between atoms: C_8  and  C_9
REMARK    4  A    between atoms: C_9  and  O_10
REMARK    5  A    between atoms: O_10  and  C_11
REMARK    6  A    between atoms: C_15  and  O_16
REMARK    7  A    between atoms: O_16  and  C_17
REMARK                            x       y       z     vdW  Elec       q    Type
REMARK                         _______ _______ _______ _____ _____    ______ ____
ROOT
ATOM      1  C   UNL     1      43.193   4.492  11.224  0.00  0.00    +0.000 C 
ENDROOT
BRANCH   1   2
ATOM      2  C   UNL     1      43.810   5.001   9.920  0.00  0.00    +0.000 C 
BRANCH   2   6
ATOM      3  C   UNL     1      46.209   1.965   7.993  0.00  0.00    +0.000 A 
ATOM      4  C   UNL     1      46.410   3.315   7.688  0.00  0.00    +0.000 A 
ATOM      5  C   UNL     1      45.636   4.298   8.315  0.00  0.00    +0.000 A 
ATOM      6  C   UNL     1      44.657   3.942   9.253  0.00  0.00    +0.000 A 
ATOM      7  C   UNL     1      44.443   2.584   9.531  0.00  0.00    +0.000 A 
ATOM      8  C   UNL     1      45.211   1.601   8.902  0.00  0.00    +0.000 A 
BRANCH   3  10
ATOM      9  N   UNL     1      47.829   1.247   6.321  0.00  0.00    +0.000 N 
ATOM     10  C   UNL     1      47.016   0.886   7.360  0.00  0.00    +0.000 C 
ATOM     11  O   UNL     1      46.991  -0.265   7.772  0.00  0.00    +0.000 OA
ATOM     12  H   UNL     1      48.460   0.530   5.982  0.00  0.00    +0.000 HD
ATOM     13  H   UNL     1      48.073   2.209   6.138  0.00  0.00    +0.000 HD
ENDBRANCH   3  10
ENDBRANCH   2   6
ENDBRANCH   1   2
BRANCH   1  14
ATOM     14  O   UNL     1      43.503   5.404  12.285  0.00  0.00    +0.000 OA
BRANCH  14  15
ATOM     15  C   UNL     1      44.779   5.320  12.785  0.00  0.00    +0.000 A 
ATOM     16  C   UNL     1      45.421   4.133  13.143  0.00  0.00    +0.000 A 
ATOM     17  C   UNL     1      46.736   4.160  13.614  0.00  0.00    +0.000 A 
ATOM     18  C   UNL     1      47.420   5.370  13.738  0.00  0.00    +0.000 A 
ATOM     19  C   UNL     1      46.784   6.558  13.387  0.00  0.00    +0.000 A 
ATOM     20  C   UNL     1      45.475   6.527  12.892  0.00  0.00    +0.000 A 
BRANCH  19  21
ATOM     21  O   UNL     1      47.368   7.800  13.456  0.00  0.00    +0.000 OA
BRANCH  21  22
ATOM     22  C   UNL     1      48.731   7.958  12.995  0.00  0.00    +0.000 C 
ATOM     23  C   UNL     1      49.280   9.392  12.839  0.00  0.00    +0.000 C 
ATOM     24  N   UNL     1      49.685   9.105  11.455  0.00  0.00    +0.000 NA
ATOM     25  C   UNL     1      48.919   7.851  11.467  0.00  0.00    +0.000 C 
ATOM     26  H   UNL     1      50.689   8.979  11.328  0.00  0.00    +0.000 HD
ENDBRANCH  21  22
ENDBRANCH  19  21
ENDBRANCH  14  15
ENDBRANCH   1  14
TORSDOF 7
ENDMDL
MODEL 4
REMARK VINA RESULT:    -6.933      1.488      8.210
REMARK INTER + INTRA:         -10.584
REMARK INTER:                  -9.814
REMARK INTRA:                  -0.770
REMARK UNBOUND:                -0.814
REMARK  Name = 
REMARK  7 active torsions:
REMARK  status: ('A' for Active; 'I' for Inactive)
REMARK    1  A    between atoms: C_2  and  C_4
REMARK    2  A    between atoms: C_7  and  C_8
REMARK    3  A    between atoms: C_8  and  C_9
REMARK    4  A    between atoms: C_9  and  O_10
REMARK    5  A    between atoms: O_10  and  C_11
REMARK    6  A    between atoms: C_15  and  O_16
REMARK    7  A    between atoms: O_16  and  C_17
REMARK                            x       y       z     vdW  Elec       q    Type
REMARK                         _______ _______ _______ _____ _____    ______ ____
ROOT
ATOM      1  C   UNL     1      45.604   6.313  12.034  0.00  0.00    +0.000 C 
ENDROOT
BRANCH   1   2
ATOM      2  C   UNL     1      47.091   6.350  12.393  0.00  0.00    +0.000 C 
BRANCH   2   6
ATOM      3  C   UNL     1      47.849   4.636  16.289  0.00  0.00    +0.000 A 
ATOM      4  C   UNL     1      48.435   5.855  15.934  0.00  0.00    +0.000 A 
ATOM      5  C   UNL     1      48.186   6.412  14.674  0.00  0.00    +0.000 A 
ATOM      6  C   UNL     1      47.349   5.757  13.759  0.00  0.00    +0.000 A 
ATOM      7  C   UNL     1      46.789   4.522  14.113  0.00  0.00    +0.000 A 
ATOM      8  C   UNL     1      47.041   3.962  15.368  0.00  0.00    +0.000 A 
BRANCH   3  10
ATOM      9  N   UNL     1      47.267   2.964  17.963  0.00  0.00    +0.000 N 
ATOM     10  C   UNL     1      48.076   4.012  17.621  0.00  0.00    +0.000 C 
ATOM     11  O   UNL     1      48.972   4.386  18.365  0.00  0.00    +0.000 OA
ATOM     12  H   UNL     1      47.511   2.474  18.815  0.00  0.00    +0.000 HD
ATOM     13  H   UNL     1      46.714   2.468  17.280  0.00  0.00    +0.000 HD
ENDBRANCH   3  10
ENDBRANCH   2   6
ENDBRANCH   1   2
BRANCH   1  14
ATOM     14  O   UNL     1      45.461   6.168  10.616  0.00  0.00    +0.000 OA
BRANCH  14  15
ATOM     15  C   UNL     1      45.163   4.902  10.177  0.00  0.00    +0.000 A 
ATOM     16  C   UNL     1      44.529   3.920  10.939  0.00  0.00    +0.000 A 
ATOM     17  C   UNL     1      44.245   2.671  10.380  0.00  0.00    +0.000 A 
ATOM     18  C   UNL     1      44.598   2.389   9.060  0.00  0.00    +0.000 A 
ATOM     19  C   UNL     1      45.235   3.362   8.295  0.00  0.00    +0.000 A 
ATOM     20  C   UNL     1      45.496   4.622   8.849  0.00  0.00    +0.000 A 
BRANCH  19  21
ATOM     21  O   UNL     1      45.612   3.195   6.985  0.00  0.00    +0.000 OA
BRANCH  21  22
ATOM     22  C   UNL     1      47.017   3.030   6.677  0.00  0.00    +0.000 C 
ATOM     23  C   UNL     1      47.401   2.663   5.228  0.00  0.00    +0.000 C 
ATOM     24  N   UNL     1      48.188   1.517   5.709  0.00  0.00    +0.000 NA
ATOM     25  C   UNL     1      47.610   1.657   7.053  0.00  0.00    +0.000 C 
ATOM     26  H   UNL     1      49.197   1.655   5.673  0.00  0.00    +0.000 HD
ENDBRANCH  21  22
ENDBRANCH  19  21
ENDBRANCH  14  15
ENDBRANCH   1  14
TORSDOF 7
ENDMDL
MODEL 5
REMARK VINA RESULT:    -6.702      2.240      3.702
REMARK INTER + INTRA:         -10.258
REMARK INTER:                  -9.885
REMARK INTRA:                  -0.373
REMARK UNBOUND:                -0.814
REMARK  Name = 
REMARK  7 active torsions:
REMARK  status: ('A' for Active; 'I' for Inactive)
REMARK    1  A    between atoms: C_2  and  C_4
REMARK    2  A    between atoms: C_7  and  C_8
REMARK    3  A    between atoms: C_8  and  C_9
REMARK    4  A    between atoms: C_9  and  O_10
REMARK    5  A    between atoms: O_10  and  C_11
REMARK    6  A    between atoms: C_15  and  O_16
REMARK    7  A    between atoms: O_16  and  C_17
REMARK                            x       y       z     vdW  Elec       q    Type
REMARK                         _______ _______ _______ _____ _____    ______ ____
ROOT
ATOM      1  C   UNL     1      45.472   3.774   8.357  0.00  0.00    +0.000 C 
ENDROOT
BRANCH   1   2
ATOM      2  C   UNL     1      46.808   3.781   7.612  0.00  0.00    +0.000 C 
BRANCH   2   6
ATOM      3  C   UNL     1      47.041   0.621   4.671  0.00  0.00    +0.000 A 
ATOM      4  C   UNL     1      47.207   0.328   6.028  0.00  0.00    +0.000 A 
ATOM      5  C   UNL     1      47.127   1.351   6.981  0.00  0.00    +0.000 A 
ATOM      6  C   UNL     1      46.880   2.673   6.586  0.00  0.00    +0.000 A 
ATOM      7  C   UNL     1      46.744   2.962   5.221  0.00  0.00    +0.000 A 
ATOM      8  C   UNL     1      46.829   1.943   4.268  0.00  0.00    +0.000 A 
BRANCH   3  10
ATOM      9  N   UNL     1      46.614  -1.667   3.953  0.00  0.00    +0.000 N 
ATOM     10  C   UNL     1      47.106  -0.435   3.624  0.00  0.00    +0.000 C 
ATOM     11  O   UNL     1      47.541  -0.207   2.504  0.00  0.00    +0.000 OA
ATOM     12  H   UNL     1      46.553  -2.338   3.196  0.00  0.00    +0.000 HD
ATOM     13  H   UNL     1      46.016  -1.811   4.753  0.00  0.00    +0.000 HD
ENDBRANCH   3  10
ENDBRANCH   2   6
ENDBRANCH   1   2
BRANCH   1  14
ATOM     14  O   UNL     1      45.252   5.059   8.950  0.00  0.00    +0.000 OA
BRANCH  14  15
ATOM     15  C   UNL     1      44.703   5.045  10.209  0.00  0.00    +0.000 A 
ATOM     16  C   UNL     1      43.404   4.633  10.511  0.00  0.00    +0.000 A 
ATOM     17  C   UNL     1      42.958   4.630  11.835  0.00  0.00    +0.000 A 
ATOM     18  C   UNL     1      43.800   5.044  12.867  0.00  0.00    +0.000 A 
ATOM     19  C   UNL     1      45.096   5.461  12.573  0.00  0.00    +0.000 A 
ATOM     20  C   UNL     1      45.550   5.440  11.248  0.00  0.00    +0.000 A 
BRANCH  19  21
ATOM     21  O   UNL     1      46.010   5.873  13.512  0.00  0.00    +0.000 OA
BRANCH  21  22
ATOM     22  C   UNL     1      47.153   5.030  13.793  0.00  0.00    +0.000 C 
ATOM     23  C   UNL     1      46.992   3.507  13.606  0.00  0.00    +0.000 C 
ATOM     24  N   UNL     1      47.483   3.269  14.971  0.00  0.00    +0.000 NA
ATOM     25  C   UNL     1      47.369   4.700  15.284  0.00  0.00    +0.000 C 
ATOM     26  H   UNL     1      48.435   2.907  15.018  0.00  0.00    +0.000 HD
ENDBRANCH  21  22
ENDBRANCH  19  21
ENDBRANCH  14  15
ENDBRANCH   1  14
TORSDOF 7
ENDMDL
MODEL 6
REMARK VINA RESULT:    -6.537      1.939      2.403
REMARK INTER + INTRA:         -10.026
REMARK INTER:                  -9.930
REMARK INTRA:                  -0.096
REMARK UNBOUND:                -0.814
REMARK  Name = 
REMARK  7 active torsions:
REMARK  status: ('A' for Active; 'I' for Inactive)
REMARK    1  A    between atoms: C_2  and  C_4
REMARK    2  A    between atoms: C_7  and  C_8
REMARK    3  A    between atoms: C_8  and  C_9
REMARK    4  A    between atoms: C_9  and  O_10
REMARK    5  A    between atoms: O_10  and  C_11
REMARK    6  A    between atoms: C_15  and  O_16
REMARK    7  A    between atoms: O_16  and  C_17
REMARK                            x       y       z     vdW  Elec       q    Type
REMARK                         _______ _______ _______ _____ _____    ______ ____
ROOT
ATOM      1  C   UNL     1      44.489   4.851  11.462  0.00  0.00    +0.000 C 
ENDROOT
BRANCH   1   2
ATOM      2  C   UNL     1      43.792   4.258  10.236  0.00  0.00    +0.000 C 
BRANCH   2   6
ATOM      3  C   UNL     1      46.598   2.423   7.505  0.00  0.00    +0.000 A 
ATOM      4  C   UNL     1      46.391   3.806   7.473  0.00  0.00    +0.000 A 
ATOM      5  C   UNL     1      45.486   4.400   8.361  0.00  0.00    +0.000 A 
ATOM      6  C   UNL     1      44.781   3.619   9.288  0.00  0.00    +0.000 A 
ATOM      7  C   UNL     1      44.973   2.231   9.293  0.00  0.00    +0.000 A 
ATOM      8  C   UNL     1      45.872   1.635   8.404  0.00  0.00    +0.000 A 
BRANCH   3  10
ATOM      9  N   UNL     1      48.693   2.439   6.263  0.00  0.00    +0.000 N 
ATOM     10  C   UNL     1      47.559   1.750   6.590  0.00  0.00    +0.000 C 
ATOM     11  O   UNL     1      47.369   0.614   6.178  0.00  0.00    +0.000 OA
ATOM     12  H   UNL     1      49.391   1.923   5.741  0.00  0.00    +0.000 HD
ATOM     13  H   UNL     1      49.003   3.244   6.787  0.00  0.00    +0.000 HD
ENDBRANCH   3  10
ENDBRANCH   2   6
ENDBRANCH   1   2
BRANCH   1  14
ATOM     14  O   UNL     1      45.679   5.533  11.048  0.00  0.00    +0.000 OA
BRANCH  14  15
ATOM     15  C   UNL     1      46.010   6.646  11.781  0.00  0.00    +0.000 A 
ATOM     16  C   UNL     1      45.116   7.650  12.158  0.00  0.00    +0.000 A 
ATOM     17  C   UNL     1      45.555   8.726  12.934  0.00  0.00    +0.000 A 
ATOM     18  C   UNL     1      46.889   8.813  13.334  0.00  0.00    +0.000 A 
ATOM     19  C   UNL     1      47.787   7.817  12.958  0.00  0.00    +0.000 A 
ATOM     20  C   UNL     1      47.340   6.727  12.202  0.00  0.00    +0.000 A 
BRANCH  19  21
ATOM     21  O   UNL     1      49.115   7.798  13.309  0.00  0.00    +0.000 OA
BRANCH  21  22
ATOM     22  C   UNL     1      49.489   7.257  14.600  0.00  0.00    +0.000 C 
ATOM     23  C   UNL     1      48.459   6.382  15.344  0.00  0.00    +0.000 C 
ATOM     24  N   UNL     1      48.589   7.220  16.545  0.00  0.00    +0.000 NA
ATOM     25  C   UNL     1      49.334   8.232  15.785  0.00  0.00    +0.000 C 
ATOM     26  H   UNL     1      49.121   6.790  17.301  0.00  0.00    +0.000 HD
ENDBRANCH  21  22
ENDBRANCH  19  21
ENDBRANCH  14  15
ENDBRANCH   1  14
TORSDOF 7
ENDMDL
MODEL 7
REMARK VINA RESULT:    -6.444      3.317      7.977
REMARK INTER + INTRA:          -9.895
REMARK INTER:                  -9.255
REMARK INTRA:                  -0.641
REMARK UNBOUND:                -0.814
REMARK  Name = 
REMARK  7 active torsions:
REMARK  status: ('A' for Active; 'I' for Inactive)
REMARK    1  A    between atoms: C_2  and  C_4
REMARK    2  A    between atoms: C_7  and  C_8
REMARK    3  A    between atoms: C_8  and  C_9
REMARK    4  A    between atoms: C_9  and  O_10
REMARK    5  A    between atoms: O_10  and  C_11
REMARK    6  A    between atoms: C_15  and  O_16
REMARK    7  A    between atoms: O_16  and  C_17
REMARK                            x       y       z     vdW  Elec       q    Type
REMARK                         _______ _______ _______ _____ _____    ______ ____
ROOT
ATOM      1  C   UNL     1      47.292   4.364  15.582  0.00  0.00    +0.000 C 
ENDROOT
BRANCH   1   2
ATOM      2  C   UNL     1      47.640   4.248  17.067  0.00  0.00    +0.000 C 
BRANCH   2   6
ATOM      3  C   UNL     1      51.486   2.356  17.632  0.00  0.00    +0.000 A 
ATOM      4  C   UNL     1      51.290   3.679  18.038  0.00  0.00    +0.000 A 
ATOM      5  C   UNL     1      50.043   4.291  17.858  0.00  0.00    +0.000 A 
ATOM      6  C   UNL     1      48.982   3.585  17.275  0.00  0.00    +0.000 A 
ATOM      7  C   UNL     1      49.196   2.268  16.845  0.00  0.00    +0.000 A 
ATOM      8  C   UNL     1      50.441   1.658  17.017  0.00  0.00    +0.000 A 
BRANCH   3  10
ATOM      9  N   UNL     1      52.975   0.497  17.121  0.00  0.00    +0.000 N 
ATOM     10  C   UNL     1      52.790   1.662  17.812  0.00  0.00    +0.000 C 
ATOM     11  O   UNL     1      53.678   2.128  18.513  0.00  0.00    +0.000 OA
ATOM     12  H   UNL     1      53.907   0.102  17.158  0.00  0.00    +0.000 HD
ATOM     13  H   UNL     1      52.386   0.233  16.345  0.00  0.00    +0.000 HD
ENDBRANCH   3  10
ENDBRANCH   2   6
ENDBRANCH   1   2
BRANCH   1  14
ATOM     14  O   UNL     1      48.073   5.410  14.992  0.00  0.00    +0.000 OA
BRANCH  14  15
ATOM     15  C   UNL     1      47.630   5.864  13.773  0.00  0.00    +0.000 A 
ATOM     16  C   UNL     1      48.296   6.799  12.979  0.00  0.00    +0.000 A 
ATOM     17  C   UNL     1      47.770   7.168  11.738  0.00  0.00    +0.000 A 
ATOM     18  C   UNL     1      46.573   6.614  11.283  0.00  0.00    +0.000 A 
ATOM     19  C   UNL     1      45.902   5.684  12.072  0.00  0.00    +0.000 A 
ATOM     20  C   UNL     1      46.443   5.296  13.304  0.00  0.00    +0.000 A 
BRANCH  19  21
ATOM     21  O   UNL     1      44.728   5.067  11.715  0.00  0.00    +0.000 OA
BRANCH  21  22
ATOM     22  C   UNL     1      44.654   3.622  11.765  0.00  0.00    +0.000 C 
ATOM     23  C   UNL     1      43.969   2.891  10.591  0.00  0.00    +0.000 C 
ATOM     24  N   UNL     1      43.088   2.176  11.527  0.00  0.00    +0.000 NA
ATOM     25  C   UNL     1      43.505   3.057  12.626  0.00  0.00    +0.000 C 
ATOM     26  H   UNL     1      43.330   1.195  11.664  0.00  0.00    +0.000 HD
ENDBRANCH  21  22
ENDBRANCH  19  21
ENDBRANCH  14  15
ENDBRANCH   1  14
TORSDOF 7
ENDMDL
MODEL 8
REMARK VINA RESULT:    -6.297      1.886      7.735
REMARK INTER + INTRA:          -9.687
REMARK INTER:                  -8.986
REMARK INTRA:                  -0.701
REMARK UNBOUND:                -0.814
REMARK  Name = 
REMARK  7 active torsions:
REMARK  status: ('A' for Active; 'I' for Inactive)
REMARK    1  A    between atoms: C_2  and  C_4
REMARK    2  A    between atoms: C_7  and  C_8
REMARK    3  A    between atoms: C_8  and  C_9
REMARK    4  A    between atoms: C_9  and  O_10
REMARK    5  A    between atoms: O_10  and  C_11
REMARK    6  A    between atoms: C_15  and  O_16
REMARK    7  A    between atoms: O_16  and  C_17
REMARK                            x       y       z     vdW  Elec       q    Type
REMARK                         _______ _______ _______ _____ _____    ______ ____
ROOT
ATOM      1  C   UNL     1      47.299   6.789  11.868  0.00  0.00    +0.000 C 
ENDROOT
BRANCH   1   2
ATOM      2  C   UNL     1      48.255   7.106  13.019  0.00  0.00    +0.000 C 
BRANCH   2   6
ATOM      3  C   UNL     1      47.604   4.485  16.395  0.00  0.00    +0.000 A 
ATOM      4  C   UNL     1      47.064   4.165  15.146  0.00  0.00    +0.000 A 
ATOM      5  C   UNL     1      47.279   5.012  14.052  0.00  0.00    +0.000 A 
ATOM      6  C   UNL     1      48.035   6.183  14.196  0.00  0.00    +0.000 A 
ATOM      7  C   UNL     1      48.547   6.511  15.459  0.00  0.00    +0.000 A 
ATOM      8  C   UNL     1      48.329   5.670  16.553  0.00  0.00    +0.000 A 
BRANCH   3  10
ATOM      9  N   UNL     1      48.118   3.927  18.710  0.00  0.00    +0.000 N 
ATOM     10  C   UNL     1      47.412   3.610  17.584  0.00  0.00    +0.000 C 
ATOM     11  O   UNL     1      46.627   2.672  17.574  0.00  0.00    +0.000 OA
ATOM     12  H   UNL     1      47.886   3.400  19.543  0.00  0.00    +0.000 HD
ATOM     13  H   UNL     1      48.554   4.829  18.835  0.00  0.00    +0.000 HD
ENDBRANCH   3  10
ENDBRANCH   2   6
ENDBRANCH   1   2
BRANCH   1  14
ATOM     14  O   UNL     1      45.972   7.192  12.227  0.00  0.00    +0.000 OA
BRANCH  14  15
ATOM     15  C   UNL     1      44.986   6.267  11.987  0.00  0.00    +0.000 A 
ATOM     16  C   UNL     1      43.932   5.978  12.856  0.00  0.00    +0.000 A 
ATOM     17  C   UNL     1      42.963   5.038  12.496  0.00  0.00    +0.000 A 
ATOM     18  C   UNL     1      43.040   4.373  11.272  0.00  0.00    +0.000 A 
ATOM     19  C   UNL     1      44.091   4.653  10.402  0.00  0.00    +0.000 A 
ATOM     20  C   UNL     1      45.048   5.614  10.753  0.00  0.00    +0.000 A 
BRANCH  19  21
ATOM     21  O   UNL     1      44.255   4.069   9.170  0.00  0.00    +0.000 OA
BRANCH  21  22
ATOM     22  C   UNL     1      45.546   3.512   8.826  0.00  0.00    +0.000 C 
ATOM     23  C   UNL     1      45.951   3.491   7.337  0.00  0.00    +0.000 C 
ATOM     24  N   UNL     1      46.239   2.051   7.418  0.00  0.00    +0.000 NA
ATOM     25  C   UNL     1      45.588   1.973   8.734  0.00  0.00    +0.000 C 
ATOM     26  H   UNL     1      47.232   1.821   7.430  0.00  0.00    +0.000 HD
ENDBRANCH  21  22
ENDBRANCH  19  21
ENDBRANCH  14  15
ENDBRANCH   1  14
TORSDOF 7
ENDMDL
MODEL 9
REMARK VINA RESULT:    -6.234      3.189      4.931
REMARK INTER + INTRA:          -9.599
REMARK INTER:                  -8.658
REMARK INTRA:                  -0.941
REMARK UNBOUND:                -0.814
REMARK  Name = 
REMARK  7 active torsions:
REMARK  status: ('A' for Active; 'I' for Inactive)
REMARK    1  A    between atoms: C_2  and  C_4
REMARK    2  A    between atoms: C_7  and  C_8
REMARK    3  A    between atoms: C_8  and  C_9
REMARK    4  A    between atoms: C_9  and  O_10
REMARK    5  A    between atoms: O_10  and  C_11
REMARK    6  A    between atoms: C_15  and  O_16
REMARK    7  A    between atoms: O_16  and  C_17
REMARK                            x       y       z     vdW  Elec       q    Type
REMARK                         _______ _______ _______ _____ _____    ______ ____
ROOT
ATOM      1  C   UNL     1      47.844   7.913  13.864  0.00  0.00    +0.000 C 
ENDROOT
BRANCH   1   2
ATOM      2  C   UNL     1      47.783   7.491  12.396  0.00  0.00    +0.000 C 
BRANCH   2   6
ATOM      3  C   UNL     1      45.057   4.194  11.775  0.00  0.00    +0.000 A 
ATOM      4  C   UNL     1      45.787   4.284  12.964  0.00  0.00    +0.000 A 
ATOM      5  C   UNL     1      46.667   5.355  13.166  0.00  0.00    +0.000 A 
ATOM      6  C   UNL     1      46.823   6.343  12.184  0.00  0.00    +0.000 A 
ATOM      7  C   UNL     1      46.108   6.228  10.984  0.00  0.00    +0.000 A 
ATOM      8  C   UNL     1      45.234   5.158  10.777  0.00  0.00    +0.000 A 
BRANCH   3  10
ATOM      9  N   UNL     1      43.668   2.373  12.607  0.00  0.00    +0.000 N 
ATOM     10  C   UNL     1      44.101   3.081  11.520  0.00  0.00    +0.000 C 
ATOM     11  O   UNL     1      43.685   2.832  10.398  0.00  0.00    +0.000 OA
ATOM     12  H   UNL     1      42.929   1.702  12.434  0.00  0.00    +0.000 HD
ATOM     13  H   UNL     1      43.776   2.717  13.550  0.00  0.00    +0.000 HD
ENDBRANCH   3  10
ENDBRANCH   2   6
ENDBRANCH   1   2
BRANCH   1  14
ATOM     14  O   UNL     1      49.108   8.533  14.129  0.00  0.00    +0.000 OA
BRANCH  14  15
ATOM     15  C   UNL     1      49.969   7.811  14.918  0.00  0.00    +0.000 A 
ATOM     16  C   UNL     1      51.338   8.058  15.042  0.00  0.00    +0.000 A 
ATOM     17  C   UNL     1      52.117   7.278  15.900  0.00  0.00    +0.000 A 
ATOM     18  C   UNL     1      51.541   6.242  16.636  0.00  0.00    +0.000 A 
ATOM     19  C   UNL     1      50.177   5.988  16.515  0.00  0.00    +0.000 A 
ATOM     20  C   UNL     1      49.392   6.786  15.673  0.00  0.00    +0.000 A 
BRANCH  19  21
ATOM     21  O   UNL     1      49.507   5.006  17.202  0.00  0.00    +0.000 OA
BRANCH  21  22
ATOM     22  C   UNL     1      48.168   4.648  16.782  0.00  0.00    +0.000 C 
ATOM     23  C   UNL     1      47.055   4.631  17.851  0.00  0.00    +0.000 C 
ATOM     24  N   UNL     1      46.685   3.260  17.470  0.00  0.00    +0.000 NA
ATOM     25  C   UNL     1      47.905   3.132  16.661  0.00  0.00    +0.000 C 
ATOM     26  H   UNL     1      45.820   3.192  16.934  0.00  0.00    +0.000 HD
ENDBRANCH  21  22
ENDBRANCH  19  21
ENDBRANCH  14  15
ENDBRANCH   1  14
TORSDOF 7
ENDMDL
