MODEL 1
REMARK VINA RESULT:    -8.242      0.000      0.000
REMARK INTER + INTRA:         -11.440
REMARK INTER:                 -10.651
REMARK INTRA:                  -0.789
REMARK UNBOUND:                -0.789
REMARK  Name = 
REMARK  5 active torsions:
REMARK  status: ('A' for Active; 'I' for Inactive)
REMARK    1  A    between atoms: C_2  and  C_4
REMARK    2  A    between atoms: C_8  and  N_9
REMARK    3  A    between atoms: N_9  and  C_10
REMARK    4  A    between atoms: C_10  and  C_11
REMARK    5  A    between atoms: C_16  and  C_17
REMARK                            x       y       z     vdW  Elec       q    Type
REMARK                         _______ _______ _______ _____ _____    ______ ____
ROOT
ATOM      1  C   UNL     1      43.269   6.436  10.968  0.00  0.00    +0.000 C 
ENDROOT
BRANCH   1   2
ATOM      2  C   UNL     1      43.630   4.990  10.759  0.00  0.00    +0.000 A 
ATOM      3  C   UNL     1      43.167   4.005  11.639  0.00  0.00    +0.000 A 
ATOM      4  C   UNL     1      43.466   2.670  11.402  0.00  0.00    +0.000 A 
ATOM      5  F   UNL     1      42.999   1.734  12.237  0.00  0.00    +0.000 F 
ATOM      6  C   UNL     1      44.209   2.286  10.289  0.00  0.00    +0.000 A 
ATOM      7  C   UNL     1      44.670   3.255   9.386  0.00  0.00    +0.000 A 
ATOM      8  C   UNL     1      44.405   4.608   9.657  0.00  0.00    +0.000 A 
BRANCH   7   9
ATOM      9  C   UNL     1      45.392   2.850   8.117  0.00  0.00    +0.000 C 
ATOM     10  C   UNL     1      46.135   1.518   8.291  0.00  0.00    +0.000 C 
ATOM     11  C   UNL     1      46.985   1.204   7.070  0.00  0.00    +0.000 C 
ATOM     12  O   UNL     1      47.873   2.281   6.780  0.00  0.00    +0.000 OA
ATOM     13  C   UNL     1      47.175   3.483   6.457  0.00  0.00    +0.000 C 
ATOM     14  C   UNL     1      46.354   3.956   7.645  0.00  0.00    +0.000 C 
ENDBRANCH   7   9
ENDBRANCH   1   2
BRANCH   1  15
ATOM     15  N   UNL     1      43.899   6.940  12.180  0.00  0.00    +0.000 N 
ATOM     16  H   UNL     1      43.328   6.775  13.006  0.00  0.00    +0.000 HD
BRANCH  15  21
ATOM     17  C   UNL     1      46.899   5.355  13.684  0.00  0.00    +0.000 A 
ATOM     18  C   UNL     1      47.937   5.993  13.000  0.00  0.00    +0.000 A 
ATOM     19  C   UNL     1      47.638   6.963  12.051  0.00  0.00    +0.000 A 
ATOM     20  C   UNL     1      46.306   7.276  11.770  0.00  0.00    +0.000 A 
ATOM     21  C   UNL     1      45.245   6.607  12.399  0.00  0.00    +0.000 A 
ATOM     22  C   UNL     1      45.563   5.665  13.386  0.00  0.00    +0.000 A 
BRANCH  17  24
ATOM     23  N   UNL     1      47.171   4.730  16.019  0.00  0.00    +0.000 N 
ATOM     24  C   UNL     1      47.181   4.322  14.712  0.00  0.00    +0.000 C 
ATOM     25  O   UNL     1      47.389   3.157  14.415  0.00  0.00    +0.000 OA
ATOM     26  H   UNL     1      47.265   4.002  16.716  0.00  0.00    +0.000 HD
ATOM     27  H   UNL     1      46.750   5.604  16.305  0.00  0.00    +0.000 HD
ENDBRANCH  17  24
ENDBRANCH  15  21
ENDBRANCH   1  15
TORSDOF 5
ENDMDL
MODEL 2
REMARK VINA RESULT:    -7.981      2.915      6.459
REMARK INTER + INTRA:         -11.103
REMARK INTER:                 -10.089
REMARK INTRA:                  -1.014
REMARK UNBOUND:                -0.789
REMARK  Name = 
REMARK  5 active torsions:
REMARK  status: ('A' for Active; 'I' for Inactive)
REMARK    1  A    between atoms: C_2  and  C_4
REMARK    2  A    between atoms: C_8  and  N_9
REMARK    3  A    between atoms: N_9  and  C_10
REMARK    4  A    between atoms: C_10  and  C_11
REMARK    5  A    between atoms: C_16  and  C_17
REMARK                            x       y       z     vdW  Elec       q    Type
REMARK                         _______ _______ _______ _____ _____    ______ ____
ROOT
ATOM      1  C   UNL     1      43.909   5.147  10.904  0.00  0.00    +0.000 C 
ENDROOT
BRANCH   1   2
ATOM      2  C   UNL     1      45.136   5.413  11.734  0.00  0.00    +0.000 A 
ATOM      3  C   UNL     1      45.430   4.617  12.847  0.00  0.00    +0.000 A 
ATOM      4  C   UNL     1      46.594   4.843  13.570  0.00  0.00    +0.000 A 
ATOM      5  F   UNL     1      46.877   4.061  14.619  0.00  0.00    +0.000 F 
ATOM      6  C   UNL     1      47.489   5.843  13.199  0.00  0.00    +0.000 A 
ATOM      7  C   UNL     1      47.221   6.643  12.079  0.00  0.00    +0.000 A 
ATOM      8  C   UNL     1      46.019   6.440  11.379  0.00  0.00    +0.000 A 
BRANCH   7   9
ATOM      9  C   UNL     1      48.230   7.667  11.600  0.00  0.00    +0.000 C 
ATOM     10  C   UNL     1      49.657   7.294  12.023  0.00  0.00    +0.000 C 
ATOM     11  C   UNL     1      50.636   8.405  11.679  0.00  0.00    +0.000 C 
ATOM     12  O   UNL     1      50.213   9.645  12.244  0.00  0.00    +0.000 OA
ATOM     13  C   UNL     1      48.956  10.074  11.726  0.00  0.00    +0.000 C 
ATOM     14  C   UNL     1      47.864   9.081  12.090  0.00  0.00    +0.000 C 
ENDBRANCH   7   9
ENDBRANCH   1   2
BRANCH   1  15
ATOM     15  N   UNL     1      44.274   5.013   9.500  0.00  0.00    +0.000 N 
ATOM     16  H   UNL     1      44.800   5.816   9.163  0.00  0.00    +0.000 HD
BRANCH  15  21
ATOM     17  C   UNL     1      46.396   2.619   7.620  0.00  0.00    +0.000 A 
ATOM     18  C   UNL     1      45.948   1.389   8.109  0.00  0.00    +0.000 A 
ATOM     19  C   UNL     1      44.928   1.357   9.052  0.00  0.00    +0.000 A 
ATOM     20  C   UNL     1      44.374   2.551   9.521  0.00  0.00    +0.000 A 
ATOM     21  C   UNL     1      44.847   3.800   9.091  0.00  0.00    +0.000 A 
ATOM     22  C   UNL     1      45.845   3.814   8.107  0.00  0.00    +0.000 A 
BRANCH  17  24
ATOM     23  N   UNL     1      47.230   3.449   5.492  0.00  0.00    +0.000 N 
ATOM     24  C   UNL     1      47.477   2.691   6.604  0.00  0.00    +0.000 C 
ATOM     25  O   UNL     1      48.545   2.123   6.760  0.00  0.00    +0.000 OA
ATOM     26  H   UNL     1      48.006   3.574   4.854  0.00  0.00    +0.000 HD
ATOM     27  H   UNL     1      46.482   4.129   5.460  0.00  0.00    +0.000 HD
ENDBRANCH  17  24
ENDBRANCH  15  21
ENDBRANCH   1  15
TORSDOF 5
ENDMDL
MODEL 3
REMARK VINA RESULT:    -7.969      3.058      6.357
REMARK INTER + INTRA:         -11.088
REMARK INTER:                 -10.395
REMARK INTRA:                  -0.693
REMARK UNBOUND:                -0.789
REMARK  Name = 
REMARK  5 active torsions:
REMARK  status: ('A' for Active; 'I' for Inactive)
REMARK    1  A    between atoms: C_2  and  C_4
REMARK    2  A    between atoms: C_8  and  N_9
REMARK    3  A    between atoms: N_9  and  C_10
REMARK    4  A    between atoms: C_10  and  C_11
REMARK    5  A    between atoms: C_16  and  C_17
REMARK                            x       y       z     vdW  Elec       q    Type
REMARK                         _______ _______ _______ _____ _____    ______ ____
ROOT
ATOM      1  C   UNL     1      43.528   3.654  11.455  0.00  0.00    +0.000 C 
ENDROOT
BRANCH   1   2
ATOM      2  C   UNL     1      44.739   4.238  12.131  0.00  0.00    +0.000 A 
ATOM      3  C   UNL     1      45.506   3.467  13.012  0.00  0.00    +0.000 A 
ATOM      4  C   UNL     1      46.649   4.006  13.587  0.00  0.00    +0.000 A 
ATOM      5  F   UNL     1      47.388   3.252  14.410  0.00  0.00    +0.000 F 
ATOM      6  C   UNL     1      47.061   5.302  13.290  0.00  0.00    +0.000 A 
ATOM      7  C   UNL     1      46.316   6.087  12.400  0.00  0.00    +0.000 A 
ATOM      8  C   UNL     1      45.134   5.554  11.858  0.00  0.00    +0.000 A 
BRANCH   7   9
ATOM      9  C   UNL     1      46.802   7.462  11.986  0.00  0.00    +0.000 C 
ATOM     10  C   UNL     1      48.313   7.615  12.202  0.00  0.00    +0.000 C 
ATOM     11  C   UNL     1      48.761   9.044  11.937  0.00  0.00    +0.000 C 
ATOM     12  O   UNL     1      48.009   9.963  12.727  0.00  0.00    +0.000 OA
ATOM     13  C   UNL     1      46.619   9.937  12.410  0.00  0.00    +0.000 C 
ATOM     14  C   UNL     1      46.028   8.572  12.723  0.00  0.00    +0.000 C 
ENDBRANCH   7   9
ENDBRANCH   1   2
BRANCH   1  15
ATOM     15  N   UNL     1      43.913   2.508  10.643  0.00  0.00    +0.000 N 
ATOM     16  H   UNL     1      43.128   1.885  10.464  0.00  0.00    +0.000 HD
BRANCH  15  21
ATOM     17  C   UNL     1      46.283   1.964   7.841  0.00  0.00    +0.000 A 
ATOM     18  C   UNL     1      46.308   3.222   7.234  0.00  0.00    +0.000 A 
ATOM     19  C   UNL     1      45.549   4.255   7.768  0.00  0.00    +0.000 A 
ATOM     20  C   UNL     1      44.750   4.025   8.891  0.00  0.00    +0.000 A 
ATOM     21  C   UNL     1      44.661   2.756   9.482  0.00  0.00    +0.000 A 
ATOM     22  C   UNL     1      45.468   1.736   8.959  0.00  0.00    +0.000 A 
BRANCH  17  24
ATOM     23  N   UNL     1      48.064   1.155   6.395  0.00  0.00    +0.000 N 
ATOM     24  C   UNL     1      47.091   0.839   7.304  0.00  0.00    +0.000 C 
ATOM     25  O   UNL     1      46.915  -0.312   7.670  0.00  0.00    +0.000 OA
ATOM     26  H   UNL     1      48.673   0.398   6.111  0.00  0.00    +0.000 HD
ATOM     27  H   UNL     1      48.403   2.100   6.278  0.00  0.00    +0.000 HD
ENDBRANCH  17  24
ENDBRANCH  15  21
ENDBRANCH   1  15
TORSDOF 5
ENDMDL
MODEL 4
REMARK VINA RESULT:    -7.204      1.939      2.676
REMARK INTER + INTRA:         -10.098
REMARK INTER:                  -9.211
REMARK INTRA:                  -0.888
REMARK UNBOUND:                -0.789
REMARK  Name = 
REMARK  5 active torsions:
REMARK  status: ('A' for Active; 'I' for Inactive)
REMARK    1  A    between atoms: C_2  and  C_4
REMARK    2  A    between atoms: C_8  and  N_9
REMARK    3  A    between atoms: N_9  and  C_10
REMARK    4  A    between atoms: C_10  and  C_11
REMARK    5  A    between atoms: C_16  and  C_17
REMARK                            x       y       z     vdW  Elec       q    Type
REMARK                         _______ _______ _______ _____ _____    ______ ____
ROOT
ATOM      1  C   UNL     1      46.490   7.317  12.203  0.00  0.00    +0.000 C 
ENDROOT
BRANCH   1   2
ATOM      2  C   UNL     1      45.427   6.393  11.675  0.00  0.00    +0.000 A 
ATOM      3  C   UNL     1      44.118   6.455  12.166  0.00  0.00    +0.000 A 
ATOM      4  C   UNL     1      43.139   5.630  11.629  0.00  0.00    +0.000 A 
ATOM      5  F   UNL     1      41.885   5.714  12.090  0.00  0.00    +0.000 F 
ATOM      6  C   UNL     1      43.430   4.747  10.593  0.00  0.00    +0.000 A 
ATOM      7  C   UNL     1      44.731   4.678  10.076  0.00  0.00    +0.000 A 
ATOM      8  C   UNL     1      45.729   5.481  10.655  0.00  0.00    +0.000 A 
BRANCH   7   9
ATOM      9  C   UNL     1      45.045   3.797   8.883  0.00  0.00    +0.000 C 
ATOM     10  C   UNL     1      45.376   2.362   9.313  0.00  0.00    +0.000 C 
ATOM     11  C   UNL     1      45.846   1.532   8.129  0.00  0.00    +0.000 C 
ATOM     12  O   UNL     1      46.943   2.164   7.471  0.00  0.00    +0.000 OA
ATOM     13  C   UNL     1      46.588   3.433   6.928  0.00  0.00    +0.000 C 
ATOM     14  C   UNL     1      46.186   4.393   8.036  0.00  0.00    +0.000 C 
ENDBRANCH   7   9
ENDBRANCH   1   2
BRANCH   1  15
ATOM     15  N   UNL     1      47.699   6.567  12.512  0.00  0.00    +0.000 N 
ATOM     16  H   UNL     1      48.498   6.889  11.970  0.00  0.00    +0.000 HD
BRANCH  15  21
ATOM     17  C   UNL     1      47.902   4.989  15.864  0.00  0.00    +0.000 A 
ATOM     18  C   UNL     1      48.507   5.995  16.622  0.00  0.00    +0.000 A 
ATOM     19  C   UNL     1      48.830   7.205  16.020  0.00  0.00    +0.000 A 
ATOM     20  C   UNL     1      48.572   7.398  14.661  0.00  0.00    +0.000 A 
ATOM     21  C   UNL     1      48.022   6.383  13.865  0.00  0.00    +0.000 A 
ATOM     22  C   UNL     1      47.659   5.185  14.496  0.00  0.00    +0.000 A 
BRANCH  17  24
ATOM     23  N   UNL     1      48.400   2.646  16.287  0.00  0.00    +0.000 N 
ATOM     24  C   UNL     1      47.532   3.687  16.476  0.00  0.00    +0.000 C 
ATOM     25  O   UNL     1      46.517   3.552  17.138  0.00  0.00    +0.000 OA
ATOM     26  H   UNL     1      48.191   1.792  16.789  0.00  0.00    +0.000 HD
ATOM     27  H   UNL     1      49.353   2.790  15.980  0.00  0.00    +0.000 HD
ENDBRANCH  17  24
ENDBRANCH  15  21
ENDBRANCH   1  15
TORSDOF 5
ENDMDL
MODEL 5
REMARK VINA RESULT:    -7.059      2.467      3.031
REMARK INTER + INTRA:          -9.911
REMARK INTER:                  -8.945
REMARK INTRA:                  -0.966
REMARK UNBOUND:                -0.789
REMARK  Name = 
REMARK  5 active torsions:
REMARK  status: ('A' for Active; 'I' for Inactive)
REMARK    1  A    between atoms: C_2  and  C_4
REMARK    2  A    between atoms: C_8  and  N_9
REMARK    3  A    between atoms: N_9  and  C_10
REMARK    4  A    between atoms: C_10  and  C_11
REMARK    5  A    between atoms: C_16  and  C_17
REMARK                            x       y       z     vdW  Elec       q    Type
REMARK                         _______ _______ _______ _____ _____    ______ ____
ROOT
ATOM      1  C   UNL     1      44.208   6.742  11.365  0.00  0.00    +0.000 C 
ENDROOT
BRANCH   1   2
ATOM      2  C   UNL     1      44.285   5.265  11.085  0.00  0.00    +0.000 A 
ATOM      3  C   UNL     1      43.729   4.341  11.977  0.00  0.00    +0.000 A 
ATOM      4  C   UNL     1      43.762   2.985  11.677  0.00  0.00    +0.000 A 
ATOM      5  F   UNL     1      43.207   2.111  12.525  0.00  0.00    +0.000 F 
ATOM      6  C   UNL     1      44.328   2.524  10.491  0.00  0.00    +0.000 A 
ATOM      7  C   UNL     1      44.878   3.434   9.577  0.00  0.00    +0.000 A 
ATOM      8  C   UNL     1      44.883   4.800   9.908  0.00  0.00    +0.000 A 
BRANCH   7   9
ATOM      9  C   UNL     1      45.406   2.962   8.237  0.00  0.00    +0.000 C 
ATOM     10  C   UNL     1      46.152   1.627   8.363  0.00  0.00    +0.000 C 
ATOM     11  C   UNL     1      46.814   1.246   7.049  0.00  0.00    +0.000 C 
ATOM     12  O   UNL     1      47.663   2.295   6.587  0.00  0.00    +0.000 OA
ATOM     13  C   UNL     1      46.940   3.493   6.313  0.00  0.00    +0.000 C 
ATOM     14  C   UNL     1      46.302   4.031   7.584  0.00  0.00    +0.000 C 
ENDBRANCH   7   9
ENDBRANCH   1   2
BRANCH   1  15
ATOM     15  N   UNL     1      44.870   7.048  12.626  0.00  0.00    +0.000 N 
ATOM     16  H   UNL     1      44.622   6.387  13.359  0.00  0.00    +0.000 HD
BRANCH  15  21
ATOM     17  C   UNL     1      48.079   8.803  11.999  0.00  0.00    +0.000 A 
ATOM     18  C   UNL     1      49.015   7.829  12.353  0.00  0.00    +0.000 A 
ATOM     19  C   UNL     1      48.578   6.582  12.783  0.00  0.00    +0.000 A 
ATOM     20  C   UNL     1      47.210   6.319  12.881  0.00  0.00    +0.000 A 
ATOM     21  C   UNL     1      46.249   7.300  12.591  0.00  0.00    +0.000 A 
ATOM     22  C   UNL     1      46.706   8.537  12.115  0.00  0.00    +0.000 A 
BRANCH  17  24
ATOM     23  N   UNL     1      49.856  10.386  11.499  0.00  0.00    +0.000 N 
ATOM     24  C   UNL     1      48.509  10.143  11.525  0.00  0.00    +0.000 C 
ATOM     25  O   UNL     1      47.706  10.983  11.152  0.00  0.00    +0.000 OA
ATOM     26  H   UNL     1      50.144  11.262  11.082  0.00  0.00    +0.000 HD
ATOM     27  H   UNL     1      50.537   9.641  11.545  0.00  0.00    +0.000 HD
ENDBRANCH  17  24
ENDBRANCH  15  21
ENDBRANCH   1  15
TORSDOF 5
ENDMDL
MODEL 6
REMARK VINA RESULT:    -6.979      3.362      5.751
REMARK INTER + INTRA:          -9.808
REMARK INTER:                  -8.965
REMARK INTRA:                  -0.844
REMARK UNBOUND:                -0.789
REMARK  Name = 
REMARK  5 active torsions:
REMARK  status: ('A' for Active; 'I' for Inactive)
REMARK    1  A    between atoms: C_2  and  C_4
REMARK    2  A    between atoms: C_8  and  N_9
REMARK    3  A    between atoms: N_9  and  C_10
REMARK    4  A    between atoms: C_10  and  C_11
REMARK    5  A    between atoms: C_16  and  C_17
REMARK                            x       y       z     vdW  Elec       q    Type
REMARK                         _______ _______ _______ _____ _____    ______ ____
ROOT
ATOM      1  C   UNL     1      48.911   6.884  14.933  0.00  0.00    +0.000 C 
ENDROOT
BRANCH   1   2
ATOM      2  C   UNL     1      47.713   6.987  14.029  0.00  0.00    +0.000 A 
ATOM      3  C   UNL     1      47.247   8.236  13.602  0.00  0.00    +0.000 A 
ATOM      4  C   UNL     1      46.172   8.310  12.725  0.00  0.00    +0.000 A 
ATOM      5  F   UNL     1      45.749   9.508  12.305  0.00  0.00    +0.000 F 
ATOM      6  C   UNL     1      45.555   7.159  12.245  0.00  0.00    +0.000 A 
ATOM      7  C   UNL     1      46.014   5.897  12.648  0.00  0.00    +0.000 A 
ATOM      8  C   UNL     1      47.071   5.829  13.572  0.00  0.00    +0.000 A 
BRANCH   7   9
ATOM      9  C   UNL     1      45.422   4.632  12.059  0.00  0.00    +0.000 C 
ATOM     10  C   UNL     1      45.020   4.829  10.591  0.00  0.00    +0.000 C 
ATOM     11  C   UNL     1      44.282   3.610  10.060  0.00  0.00    +0.000 C 
ATOM     12  O   UNL     1      43.163   3.295  10.888  0.00  0.00    +0.000 OA
ATOM     13  C   UNL     1      43.554   2.953  12.216  0.00  0.00    +0.000 C 
ATOM     14  C   UNL     1      44.226   4.136  12.894  0.00  0.00    +0.000 C 
ENDBRANCH   7   9
ENDBRANCH   1   2
BRANCH   1  15
ATOM     15  N   UNL     1      48.516   7.110  16.316  0.00  0.00    +0.000 N 
ATOM     16  H   UNL     1      47.610   7.569  16.385  0.00  0.00    +0.000 HD
BRANCH  15  21
ATOM     17  C   UNL     1      49.183   3.686  17.581  0.00  0.00    +0.000 A 
ATOM     18  C   UNL     1      48.743   3.775  18.904  0.00  0.00    +0.000 A 
ATOM     19  C   UNL     1      48.208   4.969  19.369  0.00  0.00    +0.000 A 
ATOM     20  C   UNL     1      48.135   6.078  18.521  0.00  0.00    +0.000 A 
ATOM     21  C   UNL     1      48.626   6.032  17.208  0.00  0.00    +0.000 A 
ATOM     22  C   UNL     1      49.121   4.807  16.740  0.00  0.00    +0.000 A 
BRANCH  17  24
ATOM     23  N   UNL     1      50.774   1.854  17.756  0.00  0.00    +0.000 N 
ATOM     24  C   UNL     1      49.751   2.421  17.046  0.00  0.00    +0.000 C 
ATOM     25  O   UNL     1      49.312   1.895  16.036  0.00  0.00    +0.000 OA
ATOM     26  H   UNL     1      51.087   0.945  17.441  0.00  0.00    +0.000 HD
ATOM     27  H   UNL     1      50.974   2.115  18.712  0.00  0.00    +0.000 HD
ENDBRANCH  17  24
ENDBRANCH  15  21
ENDBRANCH   1  15
TORSDOF 5
ENDMDL
MODEL 7
REMARK VINA RESULT:    -6.899      3.309      5.559
REMARK INTER + INTRA:          -9.704
REMARK INTER:                  -8.838
REMARK INTRA:                  -0.866
REMARK UNBOUND:                -0.789
REMARK  Name = 
REMARK  5 active torsions:
REMARK  status: ('A' for Active; 'I' for Inactive)
REMARK    1  A    between atoms: C_2  and  C_4
REMARK    2  A    between atoms: C_8  and  N_9
REMARK    3  A    between atoms: N_9  and  C_10
REMARK    4  A    between atoms: C_10  and  C_11
REMARK    5  A    between atoms: C_16  and  C_17
REMARK                            x       y       z     vdW  Elec       q    Type
REMARK                         _______ _______ _______ _____ _____    ______ ____
ROOT
ATOM      1  C   UNL     1      49.252   7.308  13.985  0.00  0.00    +0.000 C 
ENDROOT
BRANCH   1   2
ATOM      2  C   UNL     1      47.820   7.255  13.525  0.00  0.00    +0.000 A 
ATOM      3  C   UNL     1      47.052   8.422  13.450  0.00  0.00    +0.000 A 
ATOM      4  C   UNL     1      45.749   8.362  12.974  0.00  0.00    +0.000 A 
ATOM      5  F   UNL     1      45.030   9.488  12.884  0.00  0.00    +0.000 F 
ATOM      6  C   UNL     1      45.192   7.159  12.551  0.00  0.00    +0.000 A 
ATOM      7  C   UNL     1      45.948   5.980  12.604  0.00  0.00    +0.000 A 
ATOM      8  C   UNL     1      47.249   6.038  13.131  0.00  0.00    +0.000 A 
BRANCH   7   9
ATOM      9  C   UNL     1      45.396   4.679  12.055  0.00  0.00    +0.000 C 
ATOM     10  C   UNL     1      45.013   4.810  10.575  0.00  0.00    +0.000 C 
ATOM     11  C   UNL     1      44.314   3.554  10.080  0.00  0.00    +0.000 C 
ATOM     12  O   UNL     1      43.189   3.244  10.901  0.00  0.00    +0.000 OA
ATOM     13  C   UNL     1      43.565   2.962  12.247  0.00  0.00    +0.000 C 
ATOM     14  C   UNL     1      44.198   4.186  12.889  0.00  0.00    +0.000 C 
ENDBRANCH   7   9
ENDBRANCH   1   2
BRANCH   1  15
ATOM     15  N   UNL     1      49.308   7.454  15.432  0.00  0.00    +0.000 N 
ATOM     16  H   UNL     1      48.463   7.879  15.808  0.00  0.00    +0.000 HD
BRANCH  15  21
ATOM     17  C   UNL     1      49.098   4.352  17.459  0.00  0.00    +0.000 A 
ATOM     18  C   UNL     1      50.432   4.153  17.822  0.00  0.00    +0.000 A 
ATOM     19  C   UNL     1      51.398   5.060  17.407  0.00  0.00    +0.000 A 
ATOM     20  C   UNL     1      51.035   6.150  16.611  0.00  0.00    +0.000 A 
ATOM     21  C   UNL     1      49.713   6.339  16.183  0.00  0.00    +0.000 A 
ATOM     22  C   UNL     1      48.743   5.441  16.648  0.00  0.00    +0.000 A 
BRANCH  17  24
ATOM     23  N   UNL     1      48.102   2.956  19.183  0.00  0.00    +0.000 N 
ATOM     24  C   UNL     1      48.036   3.409  17.893  0.00  0.00    +0.000 C 
ATOM     25  O   UNL     1      47.132   3.069  17.148  0.00  0.00    +0.000 OA
ATOM     26  H   UNL     1      47.322   2.393  19.500  0.00  0.00    +0.000 HD
ATOM     27  H   UNL     1      48.668   3.413  19.885  0.00  0.00    +0.000 HD
ENDBRANCH  17  24
ENDBRANCH  15  21
ENDBRANCH   1  15
TORSDOF 5
ENDMDL
MODEL 8
REMARK VINA RESULT:    -6.823      3.037      4.637
REMARK INTER + INTRA:          -9.606
REMARK INTER:                  -9.008
REMARK INTRA:                  -0.598
REMARK UNBOUND:                -0.789
REMARK  Name = 
REMARK  5 active torsions:
REMARK  status: ('A' for Active; 'I' for Inactive)
REMARK    1  A    between atoms: C_2  and  C_4
REMARK    2  A    between atoms: C_8  and  N_9
REMARK    3  A    between atoms: N_9  and  C_10
REMARK    4  A    between atoms: C_10  and  C_11
REMARK    5  A    between atoms: C_16  and  C_17
REMARK                            x       y       z     vdW  Elec       q    Type
REMARK                         _______ _______ _______ _____ _____    ______ ____
ROOT
ATOM      1  C   UNL     1      47.289   5.527  14.122  0.00  0.00    +0.000 C 
ENDROOT
BRANCH   1   2
ATOM      2  C   UNL     1      46.332   5.945  13.039  0.00  0.00    +0.000 A 
ATOM      3  C   UNL     1      45.865   7.263  12.969  0.00  0.00    +0.000 A 
ATOM      4  C   UNL     1      45.023   7.644  11.932  0.00  0.00    +0.000 A 
ATOM      5  F   UNL     1      44.601   8.912  11.862  0.00  0.00    +0.000 F 
ATOM      6  C   UNL     1      44.645   6.740  10.944  0.00  0.00    +0.000 A 
ATOM      7  C   UNL     1      45.112   5.419  10.986  0.00  0.00    +0.000 A 
ATOM      8  C   UNL     1      45.924   5.027  12.063  0.00  0.00    +0.000 A 
BRANCH   7   9
ATOM      9  C   UNL     1      44.793   4.448   9.866  0.00  0.00    +0.000 C 
ATOM     10  C   UNL     1      44.790   2.997  10.363  0.00  0.00    +0.000 C 
ATOM     11  C   UNL     1      44.630   2.024   9.205  0.00  0.00    +0.000 C 
ATOM     12  O   UNL     1      45.629   2.251   8.213  0.00  0.00    +0.000 OA
ATOM     13  C   UNL     1      45.529   3.550   7.633  0.00  0.00    +0.000 C 
ATOM     14  C   UNL     1      45.767   4.621   8.685  0.00  0.00    +0.000 C 
ENDBRANCH   7   9
ENDBRANCH   1   2
BRANCH   1  15
ATOM     15  N   UNL     1      46.616   4.657  15.076  0.00  0.00    +0.000 N 
ATOM     16  H   UNL     1      46.016   3.976  14.617  0.00  0.00    +0.000 HD
BRANCH  15  21
ATOM     17  C   UNL     1      48.436   4.253  18.285  0.00  0.00    +0.000 A 
ATOM     18  C   UNL     1      49.077   3.025  18.102  0.00  0.00    +0.000 A 
ATOM     19  C   UNL     1      48.916   2.340  16.904  0.00  0.00    +0.000 A 
ATOM     20  C   UNL     1      48.100   2.871  15.902  0.00  0.00    +0.000 A 
ATOM     21  C   UNL     1      47.398   4.072  16.084  0.00  0.00    +0.000 A 
ATOM     22  C   UNL     1      47.606   4.772  17.280  0.00  0.00    +0.000 A 
BRANCH  17  24
ATOM     23  N   UNL     1      48.221   4.386  20.704  0.00  0.00    +0.000 N 
ATOM     24  C   UNL     1      48.594   5.018  19.548  0.00  0.00    +0.000 C 
ATOM     25  O   UNL     1      49.057   6.147  19.564  0.00  0.00    +0.000 OA
ATOM     26  H   UNL     1      48.424   4.876  21.567  0.00  0.00    +0.000 HD
ATOM     27  H   UNL     1      48.090   3.385  20.751  0.00  0.00    +0.000 HD
ENDBRANCH  17  24
ENDBRANCH  15  21
ENDBRANCH   1  15
TORSDOF 5
ENDMDL
MODEL 9
REMARK VINA RESULT:    -6.816      2.506      3.503
REMARK INTER + INTRA:          -9.598
REMARK INTER:                  -8.818
REMARK INTRA:                  -0.780
REMARK UNBOUND:                -0.789
REMARK  Name = 
REMARK  5 active torsions:
REMARK  status: ('A' for Active; 'I' for Inactive)
REMARK    1  A    between atoms: C_2  and  C_4
REMARK    2  A    between atoms: C_8  and  N_9
REMARK    3  A    between atoms: N_9  and  C_10
REMARK    4  A    between atoms: C_10  and  C_11
REMARK    5  A    between atoms: C_16  and  C_17
REMARK                            x       y       z     vdW  Elec       q    Type
REMARK                         _______ _______ _______ _____ _____    ______ ____
ROOT
ATOM      1  C   UNL     1      45.995   4.730  13.876  0.00  0.00    +0.000 C 
ENDROOT
BRANCH   1   2
ATOM      2  C   UNL     1      45.008   4.680  12.742  0.00  0.00    +0.000 A 
ATOM      3  C   UNL     1      43.762   5.308  12.853  0.00  0.00    +0.000 A 
ATOM      4  C   UNL     1      42.884   5.297  11.777  0.00  0.00    +0.000 A 
ATOM      5  F   UNL     1      41.704   5.919  11.885  0.00  0.00    +0.000 F 
ATOM      6  C   UNL     1      43.227   4.684  10.575  0.00  0.00    +0.000 A 
ATOM      7  C   UNL     1      44.475   4.062  10.437  0.00  0.00    +0.000 A 
ATOM      8  C   UNL     1      45.340   4.035  11.544  0.00  0.00    +0.000 A 
BRANCH   7   9
ATOM      9  C   UNL     1      44.907   3.478   9.106  0.00  0.00    +0.000 C 
ATOM     10  C   UNL     1      45.480   2.064   9.271  0.00  0.00    +0.000 C 
ATOM     11  C   UNL     1      46.057   1.553   7.960  0.00  0.00    +0.000 C 
ATOM     12  O   UNL     1      47.021   2.467   7.441  0.00  0.00    +0.000 OA
ATOM     13  C   UNL     1      46.450   3.738   7.134  0.00  0.00    +0.000 C 
ATOM     14  C   UNL     1      45.916   4.399   8.395  0.00  0.00    +0.000 C 
ENDBRANCH   7   9
ENDBRANCH   1   2
BRANCH   1  15
ATOM     15  N   UNL     1      47.282   5.217  13.399  0.00  0.00    +0.000 N 
ATOM     16  H   UNL     1      47.515   4.847  12.480  0.00  0.00    +0.000 HD
BRANCH  15  21
ATOM     17  C   UNL     1      46.886   8.870  12.882  0.00  0.00    +0.000 A 
ATOM     18  C   UNL     1      48.035   9.375  13.496  0.00  0.00    +0.000 A 
ATOM     19  C   UNL     1      48.949   8.499  14.067  0.00  0.00    +0.000 A 
ATOM     20  C   UNL     1      48.703   7.123  14.044  0.00  0.00    +0.000 A 
ATOM     21  C   UNL     1      47.529   6.595  13.488  0.00  0.00    +0.000 A 
ATOM     22  C   UNL     1      46.639   7.489  12.876  0.00  0.00    +0.000 A 
BRANCH  17  24
ATOM     23  N   UNL     1      44.583   9.382  12.292  0.00  0.00    +0.000 N 
ATOM     24  C   UNL     1      45.893   9.777  12.252  0.00  0.00    +0.000 C 
ATOM     25  O   UNL     1      46.220  10.837  11.744  0.00  0.00    +0.000 OA
ATOM     26  H   UNL     1      43.903  10.050  11.950  0.00  0.00    +0.000 HD
ATOM     27  H   UNL     1      44.258   8.661  12.922  0.00  0.00    +0.000 HD
ENDBRANCH  17  24
ENDBRANCH  15  21
ENDBRANCH   1  15
TORSDOF 5
ENDMDL
