MODEL 1
REMARK VINA RESULT:    -8.315      0.000      0.000
REMARK INTER + INTRA:         -12.108
REMARK INTER:                 -11.232
REMARK INTRA:                  -0.877
REMARK UNBOUND:                -0.877
REMARK  Name = 
REMARK  6 active torsions:
REMARK  status: ('A' for Active; 'I' for Inactive)
REMARK    1  A    between atoms: C_2  and  C_4
REMARK    2  A    between atoms: C_7  and  N_8
REMARK    3  A    between atoms: N_8  and  C_9
REMARK    4  A    between atoms: C_9  and  C_10
REMARK    5  A    between atoms: C_10  and  C_11
REMARK    6  A    between atoms: C_15  and  C_16
REMARK                            x       y       z     vdW  Elec       q    Type
REMARK                         _______ _______ _______ _____ _____    ______ ____
ROOT
ATOM      1  C   UNL     1      43.318   4.309  11.281  0.00  0.00    +0.000 C 
ENDROOT
BRANCH   1   2
ATOM      2  N   UNL     1      43.612   4.658   9.892  0.00  0.00    +0.000 N 
ATOM      3  H   UNL     1      42.797   4.818   9.305  0.00  0.00    +0.000 HD
BRANCH   2   7
ATOM      4  C   UNL     1      46.535   2.506   7.729  0.00  0.00    +0.000 A 
ATOM      5  C   UNL     1      46.501   3.898   7.642  0.00  0.00    +0.000 A 
ATOM      6  C   UNL     1      45.549   4.622   8.367  0.00  0.00    +0.000 A 
ATOM      7  C   UNL     1      44.632   3.985   9.212  0.00  0.00    +0.000 A 
ATOM      8  C   UNL     1      44.668   2.583   9.272  0.00  0.00    +0.000 A 
ATOM      9  C   UNL     1      45.604   1.846   8.535  0.00  0.00    +0.000 A 
BRANCH   4  11
ATOM     10  N   UNL     1      48.529   2.385   6.340  0.00  0.00    +0.000 N 
ATOM     11  C   UNL     1      47.509   1.705   6.943  0.00  0.00    +0.000 C 
ATOM     12  O   UNL     1      47.425   0.487   6.862  0.00  0.00    +0.000 OA
ATOM     13  H   UNL     1      49.236   1.822   5.883  0.00  0.00    +0.000 HD
ATOM     14  H   UNL     1      48.770   3.335   6.585  0.00  0.00    +0.000 HD
ENDBRANCH   4  11
ENDBRANCH   2   7
ENDBRANCH   1   2
BRANCH   1  15
ATOM     15  C   UNL     1      43.578   5.491  12.222  0.00  0.00    +0.000 C 
BRANCH  15  16
ATOM     16  C   UNL     1      45.050   5.591  12.553  0.00  0.00    +0.000 A 
ATOM     17  C   UNL     1      45.867   6.506  11.881  0.00  0.00    +0.000 A 
ATOM     18  C   UNL     1      47.207   6.641  12.237  0.00  0.00    +0.000 A 
ATOM     19  C   UNL     1      47.728   5.896  13.296  0.00  0.00    +0.000 A 
ATOM     20  C   UNL     1      46.924   5.007  14.031  0.00  0.00    +0.000 A 
ATOM     21  C   UNL     1      45.592   4.836  13.608  0.00  0.00    +0.000 A 
BRANCH  20  22
ATOM     22  C   UNL     1      47.425   4.348  15.255  0.00  0.00    +0.000 A 
ATOM     23  C   UNL     1      47.473   5.001  16.485  0.00  0.00    +0.000 A 
ATOM     24  N   UNL     1      47.867   4.410  17.641  0.00  0.00    +0.000 NA
ATOM     25  C   UNL     1      48.212   3.111  17.524  0.00  0.00    +0.000 A 
ATOM     26  C   UNL     1      48.169   2.444  16.315  0.00  0.00    +0.000 A 
ATOM     27  N   UNL     1      47.775   3.038  15.160  0.00  0.00    +0.000 NA
ENDBRANCH  20  22
ENDBRANCH  15  16
ENDBRANCH   1  15
TORSDOF 6
ENDMDL
MODEL 2
REMARK VINA RESULT:    -7.575      2.498      4.026
REMARK INTER + INTRA:         -11.109
REMARK INTER:                 -10.204
REMARK INTRA:                  -0.905
REMARK UNBOUND:                -0.877
REMARK  Name = 
REMARK  6 active torsions:
REMARK  status: ('A' for Active; 'I' for Inactive)
REMARK    1  A    between atoms: C_2  and  C_4
REMARK    2  A    between atoms: C_7  and  N_8
REMARK    3  A    between atoms: N_8  and  C_9
REMARK    4  A    between atoms: C_9  and  C_10
REMARK    5  A    between atoms: C_10  and  C_11
REMARK    6  A    between atoms: C_15  and  C_16
REMARK                            x       y       z     vdW  Elec       q    Type
REMARK                         _______ _______ _______ _____ _____    ______ ____
ROOT
ATOM      1  C   UNL     1      43.355   5.195  11.033  0.00  0.00    +0.000 C 
ENDROOT
BRANCH   1   2
ATOM      2  N   UNL     1      43.537   3.825  10.559  0.00  0.00    +0.000 N 
ATOM      3  H   UNL     1      43.438   3.105  11.271  0.00  0.00    +0.000 HD
BRANCH   2   7
ATOM      4  C   UNL     1      46.489   2.833   7.703  0.00  0.00    +0.000 A 
ATOM      5  C   UNL     1      46.184   4.173   7.941  0.00  0.00    +0.000 A 
ATOM      6  C   UNL     1      45.221   4.515   8.895  0.00  0.00    +0.000 A 
ATOM      7  C   UNL     1      44.563   3.538   9.653  0.00  0.00    +0.000 A 
ATOM      8  C   UNL     1      44.868   2.194   9.387  0.00  0.00    +0.000 A 
ATOM      9  C   UNL     1      45.816   1.840   8.419  0.00  0.00    +0.000 A 
BRANCH   4  11
ATOM     10  N   UNL     1      47.381   3.045   5.449  0.00  0.00    +0.000 N 
ATOM     11  C   UNL     1      47.479   2.435   6.669  0.00  0.00    +0.000 C 
ATOM     12  O   UNL     1      48.364   1.624   6.902  0.00  0.00    +0.000 OA
ATOM     13  H   UNL     1      48.114   2.834   4.782  0.00  0.00    +0.000 HD
ATOM     14  H   UNL     1      46.837   3.882   5.302  0.00  0.00    +0.000 HD
ENDBRANCH   4  11
ENDBRANCH   2   7
ENDBRANCH   1   2
BRANCH   1  15
ATOM     15  C   UNL     1      43.483   5.282  12.558  0.00  0.00    +0.000 C 
BRANCH  15  16
ATOM     16  C   UNL     1      44.911   5.583  12.954  0.00  0.00    +0.000 A 
ATOM     17  C   UNL     1      45.705   4.596  13.548  0.00  0.00    +0.000 A 
ATOM     18  C   UNL     1      47.040   4.859  13.850  0.00  0.00    +0.000 A 
ATOM     19  C   UNL     1      47.602   6.092  13.519  0.00  0.00    +0.000 A 
ATOM     20  C   UNL     1      46.851   7.089  12.870  0.00  0.00    +0.000 A 
ATOM     21  C   UNL     1      45.487   6.827  12.640  0.00  0.00    +0.000 A 
BRANCH  20  22
ATOM     22  C   UNL     1      47.484   8.325  12.366  0.00  0.00    +0.000 A 
ATOM     23  C   UNL     1      48.776   8.338  11.842  0.00  0.00    +0.000 A 
ATOM     24  N   UNL     1      49.367   9.439  11.313  0.00  0.00    +0.000 NA
ATOM     25  C   UNL     1      48.602  10.550  11.320  0.00  0.00    +0.000 A 
ATOM     26  C   UNL     1      47.319  10.558  11.831  0.00  0.00    +0.000 A 
ATOM     27  N   UNL     1      46.731   9.455  12.360  0.00  0.00    +0.000 NA
ENDBRANCH  20  22
ENDBRANCH  15  16
ENDBRANCH   1  15
TORSDOF 6
ENDMDL
MODEL 3
REMARK VINA RESULT:    -7.351      1.485      1.993
REMARK INTER + INTRA:         -10.806
REMARK INTER:                 -10.013
REMARK INTRA:                  -0.793
REMARK UNBOUND:                -0.877
REMARK  Name = 
REMARK  6 active torsions:
REMARK  status: ('A' for Active; 'I' for Inactive)
REMARK    1  A    between atoms: C_2  and  C_4
REMARK    2  A    between atoms: C_7  and  N_8
REMARK    3  A    between atoms: N_8  and  C_9
REMARK    4  A    between atoms: C_9  and  C_10
REMARK    5  A    between atoms: C_10  and  C_11
REMARK    6  A    between atoms: C_15  and  C_16
REMARK                            x       y       z     vdW  Elec       q    Type
REMARK                         _______ _______ _______ _____ _____    ______ ____
ROOT
ATOM      1  C   UNL     1      44.377   5.134  11.049  0.00  0.00    +0.000 C 
ENDROOT
BRANCH   1   2
ATOM      2  N   UNL     1      43.920   4.005  10.242  0.00  0.00    +0.000 N 
ATOM      3  H   UNL     1      43.423   3.280  10.756  0.00  0.00    +0.000 HD
BRANCH   2   7
ATOM      4  C   UNL     1      46.616   2.538   7.339  0.00  0.00    +0.000 A 
ATOM      5  C   UNL     1      45.981   1.645   8.202  0.00  0.00    +0.000 A 
ATOM      6  C   UNL     1      45.074   2.116   9.156  0.00  0.00    +0.000 A 
ATOM      7  C   UNL     1      44.757   3.476   9.254  0.00  0.00    +0.000 A 
ATOM      8  C   UNL     1      45.419   4.364   8.392  0.00  0.00    +0.000 A 
ATOM      9  C   UNL     1      46.345   3.905   7.446  0.00  0.00    +0.000 A 
BRANCH   4  11
ATOM     10  N   UNL     1      47.996   2.972   5.382  0.00  0.00    +0.000 N 
ATOM     11  C   UNL     1      47.613   2.074   6.340  0.00  0.00    +0.000 C 
ATOM     12  O   UNL     1      48.097   0.952   6.385  0.00  0.00    +0.000 OA
ATOM     13  H   UNL     1      48.741   2.677   4.762  0.00  0.00    +0.000 HD
ATOM     14  H   UNL     1      47.814   3.962   5.461  0.00  0.00    +0.000 HD
ENDBRANCH   4  11
ENDBRANCH   2   7
ENDBRANCH   1   2
BRANCH   1  15
ATOM     15  C   UNL     1      45.069   4.662  12.333  0.00  0.00    +0.000 C 
BRANCH  15  16
ATOM     16  C   UNL     1      46.295   5.501  12.614  0.00  0.00    +0.000 A 
ATOM     17  C   UNL     1      46.720   6.467  11.695  0.00  0.00    +0.000 A 
ATOM     18  C   UNL     1      47.811   7.282  11.989  0.00  0.00    +0.000 A 
ATOM     19  C   UNL     1      48.457   7.167  13.221  0.00  0.00    +0.000 A 
ATOM     20  C   UNL     1      48.024   6.247  14.192  0.00  0.00    +0.000 A 
ATOM     21  C   UNL     1      46.965   5.387  13.845  0.00  0.00    +0.000 A 
BRANCH  20  22
ATOM     22  C   UNL     1      48.594   6.241  15.556  0.00  0.00    +0.000 A 
ATOM     23  C   UNL     1      49.103   7.392  16.153  0.00  0.00    +0.000 A 
ATOM     24  N   UNL     1      49.576   7.441  17.424  0.00  0.00    +0.000 NA
ATOM     25  C   UNL     1      49.513   6.272  18.095  0.00  0.00    +0.000 A 
ATOM     26  C   UNL     1      49.010   5.120  17.523  0.00  0.00    +0.000 A 
ATOM     27  N   UNL     1      48.538   5.076  16.251  0.00  0.00    +0.000 NA
ENDBRANCH  20  22
ENDBRANCH  15  16
ENDBRANCH   1  15
TORSDOF 6
ENDMDL
MODEL 4
REMARK VINA RESULT:    -6.985      2.707      7.471
REMARK INTER + INTRA:         -10.312
REMARK INTER:                  -9.285
REMARK INTRA:                  -1.026
REMARK UNBOUND:                -0.877
REMARK  Name = 
REMARK  6 active torsions:
REMARK  status: ('A' for Active; 'I' for Inactive)
REMARK    1  A    between atoms: C_2  and  C_4
REMARK    2  A    between atoms: C_7  and  N_8
REMARK    3  A    between atoms: N_8  and  C_9
REMARK    4  A    between atoms: C_9  and  C_10
REMARK    5  A    between atoms: C_10  and  C_11
REMARK    6  A    between atoms: C_15  and  C_16
REMARK                            x       y       z     vdW  Elec       q    Type
REMARK                         _______ _______ _______ _____ _____    ______ ____
ROOT
ATOM      1  C   UNL     1      45.459   7.085  12.488  0.00  0.00    +0.000 C 
ENDROOT
BRANCH   1   2
ATOM      2  N   UNL     1      46.779   6.458  12.499  0.00  0.00    +0.000 N 
ATOM      3  H   UNL     1      47.105   6.120  11.596  0.00  0.00    +0.000 HD
BRANCH   2   7
ATOM      4  C   UNL     1      47.711   3.990  15.799  0.00  0.00    +0.000 A 
ATOM      5  C   UNL     1      47.050   3.445  14.698  0.00  0.00    +0.000 A 
ATOM      6  C   UNL     1      46.751   4.249  13.593  0.00  0.00    +0.000 A 
ATOM      7  C   UNL     1      47.126   5.597  13.545  0.00  0.00    +0.000 A 
ATOM      8  C   UNL     1      47.772   6.133  14.670  0.00  0.00    +0.000 A 
ATOM      9  C   UNL     1      48.059   5.343  15.790  0.00  0.00    +0.000 A 
BRANCH   4  11
ATOM     10  N   UNL     1      46.943   2.756  17.751  0.00  0.00    +0.000 N 
ATOM     11  C   UNL     1      48.010   3.174  17.005  0.00  0.00    +0.000 C 
ATOM     12  O   UNL     1      49.153   2.859  17.303  0.00  0.00    +0.000 OA
ATOM     13  H   UNL     1      47.151   2.127  18.518  0.00  0.00    +0.000 HD
ATOM     14  H   UNL     1      45.995   2.782  17.407  0.00  0.00    +0.000 HD
ENDBRANCH   4  11
ENDBRANCH   2   7
ENDBRANCH   1   2
BRANCH   1  15
ATOM     15  C   UNL     1      44.735   6.843  11.159  0.00  0.00    +0.000 C 
BRANCH  15  16
ATOM     16  C   UNL     1      44.565   5.361  10.911  0.00  0.00    +0.000 A 
ATOM     17  C   UNL     1      43.590   4.632  11.601  0.00  0.00    +0.000 A 
ATOM     18  C   UNL     1      43.394   3.282  11.320  0.00  0.00    +0.000 A 
ATOM     19  C   UNL     1      44.139   2.662  10.317  0.00  0.00    +0.000 A 
ATOM     20  C   UNL     1      45.089   3.374   9.562  0.00  0.00    +0.000 A 
ATOM     21  C   UNL     1      45.318   4.718   9.912  0.00  0.00    +0.000 A 
BRANCH  20  22
ATOM     22  C   UNL     1      45.753   2.768   8.390  0.00  0.00    +0.000 A 
ATOM     23  C   UNL     1      46.038   3.497   7.237  0.00  0.00    +0.000 A 
ATOM     24  N   UNL     1      46.702   2.993   6.167  0.00  0.00    +0.000 NA
ATOM     25  C   UNL     1      47.086   1.705   6.295  0.00  0.00    +0.000 A 
ATOM     26  C   UNL     1      46.815   0.965   7.429  0.00  0.00    +0.000 A 
ATOM     27  N   UNL     1      46.151   1.474   8.498  0.00  0.00    +0.000 NA
ENDBRANCH  20  22
ENDBRANCH  15  16
ENDBRANCH   1  15
TORSDOF 6
ENDMDL
MODEL 5
REMARK VINA RESULT:    -6.921      3.118      4.880
REMARK INTER + INTRA:         -10.225
REMARK INTER:                  -9.304
REMARK INTRA:                  -0.921
REMARK UNBOUND:                -0.877
REMARK  Name = 
REMARK  6 active torsions:
REMARK  status: ('A' for Active; 'I' for Inactive)
REMARK    1  A    between atoms: C_2  and  C_4
REMARK    2  A    between atoms: C_7  and  N_8
REMARK    3  A    between atoms: N_8  and  C_9
REMARK    4  A    between atoms: C_9  and  C_10
REMARK    5  A    between atoms: C_10  and  C_11
REMARK    6  A    between atoms: C_15  and  C_16
REMARK                            x       y       z     vdW  Elec       q    Type
REMARK                         _______ _______ _______ _____ _____    ______ ____
ROOT
ATOM      1  C   UNL     1      43.359   5.306  11.201  0.00  0.00    +0.000 C 
ENDROOT
BRANCH   1   2
ATOM      2  N   UNL     1      43.351   3.940  10.681  0.00  0.00    +0.000 N 
ATOM      3  H   UNL     1      43.121   3.220  11.363  0.00  0.00    +0.000 HD
BRANCH   2   7
ATOM      4  C   UNL     1      46.222   2.581   7.896  0.00  0.00    +0.000 A 
ATOM      5  C   UNL     1      45.983   3.949   8.024  0.00  0.00    +0.000 A 
ATOM      6  C   UNL     1      45.046   4.412   8.955  0.00  0.00    +0.000 A 
ATOM      7  C   UNL     1      44.352   3.533   9.794  0.00  0.00    +0.000 A 
ATOM      8  C   UNL     1      44.591   2.158   9.638  0.00  0.00    +0.000 A 
ATOM      9  C   UNL     1      45.512   1.682   8.695  0.00  0.00    +0.000 A 
BRANCH   4  11
ATOM     10  N   UNL     1      47.210   0.699   6.712  0.00  0.00    +0.000 N 
ATOM     11  C   UNL     1      47.182   2.054   6.891  0.00  0.00    +0.000 C 
ATOM     12  O   UNL     1      47.895   2.795   6.229  0.00  0.00    +0.000 OA
ATOM     13  H   UNL     1      47.802   0.358   5.963  0.00  0.00    +0.000 HD
ATOM     14  H   UNL     1      46.479   0.090   7.049  0.00  0.00    +0.000 HD
ENDBRANCH   4  11
ENDBRANCH   2   7
ENDBRANCH   1   2
BRANCH   1  15
ATOM     15  C   UNL     1      44.040   5.380  12.572  0.00  0.00    +0.000 C 
BRANCH  15  16
ATOM     16  C   UNL     1      45.253   6.281  12.513  0.00  0.00    +0.000 A 
ATOM     17  C   UNL     1      46.538   5.736  12.422  0.00  0.00    +0.000 A 
ATOM     18  C   UNL     1      47.646   6.571  12.301  0.00  0.00    +0.000 A 
ATOM     19  C   UNL     1      47.475   7.953  12.226  0.00  0.00    +0.000 A 
ATOM     20  C   UNL     1      46.196   8.536  12.259  0.00  0.00    +0.000 A 
ATOM     21  C   UNL     1      45.097   7.677  12.451  0.00  0.00    +0.000 A 
BRANCH  20  22
ATOM     22  C   UNL     1      46.000   9.979  12.008  0.00  0.00    +0.000 A 
ATOM     23  C   UNL     1      44.734  10.546  11.877  0.00  0.00    +0.000 A 
ATOM     24  N   UNL     1      44.512  11.874  11.710  0.00  0.00    +0.000 NA
ATOM     25  C   UNL     1      45.626  12.634  11.683  0.00  0.00    +0.000 A 
ATOM     26  C   UNL     1      46.891  12.093  11.813  0.00  0.00    +0.000 A 
ATOM     27  N   UNL     1      47.108  10.764  11.980  0.00  0.00    +0.000 NA
ENDBRANCH  20  22
ENDBRANCH  15  16
ENDBRANCH   1  15
TORSDOF 6
ENDMDL
MODEL 6
REMARK VINA RESULT:    -6.831      2.682      4.449
REMARK INTER + INTRA:         -10.103
REMARK INTER:                  -9.514
REMARK INTRA:                  -0.589
REMARK UNBOUND:                -0.877
REMARK  Name = 
REMARK  6 active torsions:
REMARK  status: ('A' for Active; 'I' for Inactive)
REMARK    1  A    between atoms: C_2  and  C_4
REMARK    2  A    between atoms: C_7  and  N_8
REMARK    3  A    between atoms: N_8  and  C_9
REMARK    4  A    between atoms: C_9  and  C_10
REMARK    5  A    between atoms: C_10  and  C_11
REMARK    6  A    between atoms: C_15  and  C_16
REMARK                            x       y       z     vdW  Elec       q    Type
REMARK                         _______ _______ _______ _____ _____    ______ ____
ROOT
ATOM      1  C   UNL     1      45.660   4.205   8.080  0.00  0.00    +0.000 C 
ENDROOT
BRANCH   1   2
ATOM      2  N   UNL     1      46.922   3.631   7.618  0.00  0.00    +0.000 N 
ATOM      3  H   UNL     1      47.665   4.304   7.442  0.00  0.00    +0.000 HD
BRANCH   2   7
ATOM      4  C   UNL     1      47.044   0.619   4.658  0.00  0.00    +0.000 A 
ATOM      5  C   UNL     1      47.242   0.277   5.995  0.00  0.00    +0.000 A 
ATOM      6  C   UNL     1      47.188   1.263   6.986  0.00  0.00    +0.000 A 
ATOM      7  C   UNL     1      46.908   2.599   6.674  0.00  0.00    +0.000 A 
ATOM      8  C   UNL     1      46.730   2.928   5.322  0.00  0.00    +0.000 A 
ATOM      9  C   UNL     1      46.802   1.953   4.319  0.00  0.00    +0.000 A 
BRANCH   4  11
ATOM     10  N   UNL     1      46.571  -1.618   3.826  0.00  0.00    +0.000 N 
ATOM     11  C   UNL     1      47.133  -0.397   3.577  0.00  0.00    +0.000 C 
ATOM     12  O   UNL     1      47.655  -0.148   2.499  0.00  0.00    +0.000 OA
ATOM     13  H   UNL     1      46.558  -2.272   3.052  0.00  0.00    +0.000 HD
ATOM     14  H   UNL     1      45.927  -1.776   4.586  0.00  0.00    +0.000 HD
ENDBRANCH   4  11
ENDBRANCH   2   7
ENDBRANCH   1   2
BRANCH   1  15
ATOM     15  C   UNL     1      44.804   3.162   8.807  0.00  0.00    +0.000 C 
BRANCH  15  16
ATOM     16  C   UNL     1      44.502   3.614  10.218  0.00  0.00    +0.000 A 
ATOM     17  C   UNL     1      43.706   2.829  11.059  0.00  0.00    +0.000 A 
ATOM     18  C   UNL     1      43.486   3.218  12.379  0.00  0.00    +0.000 A 
ATOM     19  C   UNL     1      44.096   4.369  12.879  0.00  0.00    +0.000 A 
ATOM     20  C   UNL     1      44.948   5.153  12.081  0.00  0.00    +0.000 A 
ATOM     21  C   UNL     1      45.098   4.779  10.732  0.00  0.00    +0.000 A 
BRANCH  20  22
ATOM     22  C   UNL     1      45.727   6.270  12.653  0.00  0.00    +0.000 A 
ATOM     23  C   UNL     1      46.955   6.075  13.283  0.00  0.00    +0.000 A 
ATOM     24  N   UNL     1      47.728   7.080  13.765  0.00  0.00    +0.000 NA
ATOM     25  C   UNL     1      47.223   8.318  13.583  0.00  0.00    +0.000 A 
ATOM     26  C   UNL     1      46.010   8.535  12.958  0.00  0.00    +0.000 A 
ATOM     27  N   UNL     1      45.239   7.526  12.479  0.00  0.00    +0.000 NA
ENDBRANCH  20  22
ENDBRANCH  15  16
ENDBRANCH   1  15
TORSDOF 6
ENDMDL
MODEL 7
REMARK VINA RESULT:    -6.405      2.416      3.131
REMARK INTER + INTRA:          -9.529
REMARK INTER:                  -9.010
REMARK INTRA:                  -0.518
REMARK UNBOUND:                -0.877
REMARK  Name = 
REMARK  6 active torsions:
REMARK  status: ('A' for Active; 'I' for Inactive)
REMARK    1  A    between atoms: C_2  and  C_4
REMARK    2  A    between atoms: C_7  and  N_8
REMARK    3  A    between atoms: N_8  and  C_9
REMARK    4  A    between atoms: C_9  and  C_10
REMARK    5  A    between atoms: C_10  and  C_11
REMARK    6  A    between atoms: C_15  and  C_16
REMARK                            x       y       z     vdW  Elec       q    Type
REMARK                         _______ _______ _______ _____ _____    ______ ____
ROOT
ATOM      1  C   UNL     1      44.233   5.116  11.436  0.00  0.00    +0.000 C 
ENDROOT
BRANCH   1   2
ATOM      2  N   UNL     1      43.850   4.699  10.088  0.00  0.00    +0.000 N 
ATOM      3  H   UNL     1      42.918   4.298  10.008  0.00  0.00    +0.000 HD
BRANCH   2   7
ATOM      4  C   UNL     1      46.495   2.608   7.543  0.00  0.00    +0.000 A 
ATOM      5  C   UNL     1      46.458   4.001   7.500  0.00  0.00    +0.000 A 
ATOM      6  C   UNL     1      45.599   4.705   8.350  0.00  0.00    +0.000 A 
ATOM      7  C   UNL     1      44.782   4.045   9.276  0.00  0.00    +0.000 A 
ATOM      8  C   UNL     1      44.818   2.642   9.292  0.00  0.00    +0.000 A 
ATOM      9  C   UNL     1      45.660   1.926   8.431  0.00  0.00    +0.000 A 
BRANCH   4  11
ATOM     10  N   UNL     1      46.816   1.408   5.450  0.00  0.00    +0.000 N 
ATOM     11  C   UNL     1      47.368   1.828   6.628  0.00  0.00    +0.000 C 
ATOM     12  O   UNL     1      48.539   1.595   6.896  0.00  0.00    +0.000 OA
ATOM     13  H   UNL     1      47.443   0.956   4.795  0.00  0.00    +0.000 HD
ATOM     14  H   UNL     1      45.951   1.786   5.090  0.00  0.00    +0.000 HD
ENDBRANCH   4  11
ENDBRANCH   2   7
ENDBRANCH   1   2
BRANCH   1  15
ATOM     15  C   UNL     1      45.519   5.949  11.419  0.00  0.00    +0.000 C 
BRANCH  15  16
ATOM     16  C   UNL     1      46.269   5.793  12.724  0.00  0.00    +0.000 A 
ATOM     17  C   UNL     1      46.062   4.669  13.530  0.00  0.00    +0.000 A 
ATOM     18  C   UNL     1      46.804   4.498  14.697  0.00  0.00    +0.000 A 
ATOM     19  C   UNL     1      47.787   5.425  15.042  0.00  0.00    +0.000 A 
ATOM     20  C   UNL     1      48.063   6.539  14.228  0.00  0.00    +0.000 A 
ATOM     21  C   UNL     1      47.253   6.727  13.092  0.00  0.00    +0.000 A 
BRANCH  20  22
ATOM     22  C   UNL     1      49.213   7.425  14.499  0.00  0.00    +0.000 A 
ATOM     23  C   UNL     1      49.217   8.771  14.138  0.00  0.00    +0.000 A 
ATOM     24  N   UNL     1      50.227   9.630  14.425  0.00  0.00    +0.000 NA
ATOM     25  C   UNL     1      51.255   9.085  15.109  0.00  0.00    +0.000 A 
ATOM     26  C   UNL     1      51.270   7.755  15.480  0.00  0.00    +0.000 A 
ATOM     27  N   UNL     1      50.258   6.899  15.190  0.00  0.00    +0.000 NA
ENDBRANCH  20  22
ENDBRANCH  15  16
ENDBRANCH   1  15
TORSDOF 6
ENDMDL
MODEL 8
REMARK VINA RESULT:    -6.340      2.991      5.350
REMARK INTER + INTRA:          -9.441
REMARK INTER:                  -8.666
REMARK INTRA:                  -0.775
REMARK UNBOUND:                -0.877
REMARK  Name = 
REMARK  6 active torsions:
REMARK  status: ('A' for Active; 'I' for Inactive)
REMARK    1  A    between atoms: C_2  and  C_4
REMARK    2  A    between atoms: C_7  and  N_8
REMARK    3  A    between atoms: N_8  and  C_9
REMARK    4  A    between atoms: C_9  and  C_10
REMARK    5  A    between atoms: C_10  and  C_11
REMARK    6  A    between atoms: C_15  and  C_16
REMARK                            x       y       z     vdW  Elec       q    Type
REMARK                         _______ _______ _______ _____ _____    ______ ____
ROOT
ATOM      1  C   UNL     1      48.485   6.582  14.442  0.00  0.00    +0.000 C 
ENDROOT
BRANCH   1   2
ATOM      2  N   UNL     1      47.234   7.094  13.886  0.00  0.00    +0.000 N 
ATOM      3  H   UNL     1      46.704   7.704  14.505  0.00  0.00    +0.000 HD
BRANCH   2   7
ATOM      4  C   UNL     1      44.901   4.521  11.481  0.00  0.00    +0.000 A 
ATOM      5  C   UNL     1      45.233   4.135  12.779  0.00  0.00    +0.000 A 
ATOM      6  C   UNL     1      45.990   4.986  13.591  0.00  0.00    +0.000 A 
ATOM      7  C   UNL     1      46.409   6.245  13.143  0.00  0.00    +0.000 A 
ATOM      8  C   UNL     1      46.083   6.608  11.827  0.00  0.00    +0.000 A 
ATOM      9  C   UNL     1      45.342   5.756  10.998  0.00  0.00    +0.000 A 
BRANCH   4  11
ATOM     10  N   UNL     1      44.462   3.644   9.253  0.00  0.00    +0.000 N 
ATOM     11  C   UNL     1      44.130   3.625  10.580  0.00  0.00    +0.000 C 
ATOM     12  O   UNL     1      43.259   2.879  11.003  0.00  0.00    +0.000 OA
ATOM     13  H   UNL     1      43.994   2.967   8.664  0.00  0.00    +0.000 HD
ATOM     14  H   UNL     1      45.322   4.050   8.914  0.00  0.00    +0.000 HD
ENDBRANCH   4  11
ENDBRANCH   2   7
ENDBRANCH   1   2
BRANCH   1  15
ATOM     15  C   UNL     1      48.517   6.720  15.969  0.00  0.00    +0.000 C 
BRANCH  15  16
ATOM     16  C   UNL     1      48.520   5.357  16.624  0.00  0.00    +0.000 A 
ATOM     17  C   UNL     1      47.323   4.658  16.813  0.00  0.00    +0.000 A 
ATOM     18  C   UNL     1      47.339   3.375  17.356  0.00  0.00    +0.000 A 
ATOM     19  C   UNL     1      48.553   2.765  17.673  0.00  0.00    +0.000 A 
ATOM     20  C   UNL     1      49.780   3.414  17.447  0.00  0.00    +0.000 A 
ATOM     21  C   UNL     1      49.735   4.735  16.963  0.00  0.00    +0.000 A 
BRANCH  20  22
ATOM     22  C   UNL     1      51.067   2.710  17.619  0.00  0.00    +0.000 A 
ATOM     23  C   UNL     1      52.197   3.341  18.137  0.00  0.00    +0.000 A 
ATOM     24  N   UNL     1      53.377   2.712  18.369  0.00  0.00    +0.000 NA
ATOM     25  C   UNL     1      53.386   1.397  18.064  0.00  0.00    +0.000 A 
ATOM     26  C   UNL     1      52.277   0.752  17.553  0.00  0.00    +0.000 A 
ATOM     27  N   UNL     1      51.099   1.385  17.322  0.00  0.00    +0.000 NA
ENDBRANCH  20  22
ENDBRANCH  15  16
ENDBRANCH   1  15
TORSDOF 6
ENDMDL
MODEL 9
REMARK VINA RESULT:    -6.313      2.805      4.245
REMARK INTER + INTRA:          -9.404
REMARK INTER:                  -8.357
REMARK INTRA:                  -1.047
REMARK UNBOUND:                -0.877
REMARK  Name = 
REMARK  6 active torsions:
REMARK  status: ('A' for Active; 'I' for Inactive)
REMARK    1  A    between atoms: C_2  and  C_4
REMARK    2  A    between atoms: C_7  and  N_8
REMARK    3  A    between atoms: N_8  and  C_9
REMARK    4  A    between atoms: C_9  and  C_10
REMARK    5  A    between atoms: C_10  and  C_11
REMARK    6  A    between atoms: C_15  and  C_16
REMARK                            x       y       z     vdW  Elec       q    Type
REMARK                         _______ _______ _______ _____ _____    ______ ____
ROOT
ATOM      1  C   UNL     1      46.942   8.737  12.447  0.00  0.00    +0.000 C 
ENDROOT
BRANCH   1   2
ATOM      2  N   UNL     1      45.821   7.987  13.011  0.00  0.00    +0.000 N 
ATOM      3  H   UNL     1      45.774   7.979  14.027  0.00  0.00    +0.000 HD
BRANCH   2   7
ATOM      4  C   UNL     1      44.559   4.265  11.459  0.00  0.00    +0.000 A 
ATOM      5  C   UNL     1      44.754   5.341  10.593  0.00  0.00    +0.000 A 
ATOM      6  C   UNL     1      45.187   6.573  11.093  0.00  0.00    +0.000 A 
ATOM      7  C   UNL     1      45.464   6.755  12.453  0.00  0.00    +0.000 A 
ATOM      8  C   UNL     1      45.244   5.667  13.313  0.00  0.00    +0.000 A 
ATOM      9  C   UNL     1      44.790   4.435  12.826  0.00  0.00    +0.000 A 
BRANCH   4  11
ATOM     10  N   UNL     1      44.831   2.309  10.037  0.00  0.00    +0.000 N 
ATOM     11  C   UNL     1      44.063   2.954  10.966  0.00  0.00    +0.000 C 
ATOM     12  O   UNL     1      43.031   2.454  11.391  0.00  0.00    +0.000 OA
ATOM     13  H   UNL     1      44.531   1.378   9.774  0.00  0.00    +0.000 HD
ATOM     14  H   UNL     1      45.790   2.565   9.852  0.00  0.00    +0.000 HD
ENDBRANCH   4  11
ENDBRANCH   2   7
ENDBRANCH   1   2
BRANCH   1  15
ATOM     15  C   UNL     1      48.251   7.945  12.544  0.00  0.00    +0.000 C 
BRANCH  15  16
ATOM     16  C   UNL     1      48.657   7.767  13.990  0.00  0.00    +0.000 A 
ATOM     17  C   UNL     1      49.104   8.860  14.740  0.00  0.00    +0.000 A 
ATOM     18  C   UNL     1      49.414   8.703  16.089  0.00  0.00    +0.000 A 
ATOM     19  C   UNL     1      49.236   7.465  16.708  0.00  0.00    +0.000 A 
ATOM     20  C   UNL     1      48.735   6.357  16.001  0.00  0.00    +0.000 A 
ATOM     21  C   UNL     1      48.496   6.522  14.624  0.00  0.00    +0.000 A 
BRANCH  20  22
ATOM     22  C   UNL     1      48.384   5.098  16.690  0.00  0.00    +0.000 A 
ATOM     23  C   UNL     1      47.159   4.463  16.500  0.00  0.00    +0.000 A 
ATOM     24  N   UNL     1      46.825   3.276  17.065  0.00  0.00    +0.000 NA
ATOM     25  C   UNL     1      47.785   2.728  17.839  0.00  0.00    +0.000 A 
ATOM     26  C   UNL     1      49.008   3.339  18.038  0.00  0.00    +0.000 A 
ATOM     27  N   UNL     1      49.338   4.527  17.471  0.00  0.00    +0.000 NA
ENDBRANCH  20  22
ENDBRANCH  15  16
ENDBRANCH   1  15
TORSDOF 6
ENDMDL
