MODEL 1
REMARK VINA RESULT:    -7.613      0.000      0.000
REMARK INTER + INTRA:          -9.921
REMARK INTER:                  -9.393
REMARK INTRA:                  -0.528
REMARK UNBOUND:                -0.528
REMARK  Name = 
REMARK  4 active torsions:
REMARK  status: ('A' for Active; 'I' for Inactive)
REMARK    1  A    between atoms: C_2  and  C_4
REMARK    2  A    between atoms: N_8  and  C_9
REMARK    3  A    between atoms: C_9  and  C_10
REMARK    4  A    between atoms: C_10  and  C_11
REMARK                            x       y       z     vdW  Elec       q    Type
REMARK                         _______ _______ _______ _____ _____    ______ ____
ROOT
ATOM      1  C   UNL     1      46.058   2.201   8.163  0.00  0.00    +0.000 A 
ATOM      2  C   UNL     1      46.158   3.557   7.872  0.00  0.00    +0.000 A 
ATOM      3  C   UNL     1      45.308   4.452   8.524  0.00  0.00    +0.000 A 
ATOM      4  C   UNL     1      44.412   3.982   9.484  0.00  0.00    +0.000 A 
ATOM      5  N   UNL     1      43.610   4.923  10.154  0.00  0.00    +0.000 N 
ATOM      6  N   UNL     1      44.298   2.667   9.758  0.00  0.00    +0.000 NA
ATOM      7  C   UNL     1      45.099   1.804   9.079  0.00  0.00    +0.000 A 
ATOM      8  H   UNL     1      42.951   5.307   9.482  0.00  0.00    +0.000 HD
ENDROOT
BRANCH   1  10
ATOM      9  N   UNL     1      46.745  -0.056   7.733  0.00  0.00    +0.000 NA
ATOM     10  C   UNL     1      46.956   1.201   7.533  0.00  0.00    +0.000 C 
ATOM     11  N   UNL     1      48.011   1.612   6.770  0.00  0.00    +0.000 N 
ATOM     12  H   UNL     1      47.423  -0.611   7.208  0.00  0.00    +0.000 HD
ATOM     13  H   UNL     1      48.752   0.933   6.645  0.00  0.00    +0.000 HD
ATOM     14  H   UNL     1      48.388   2.528   7.001  0.00  0.00    +0.000 HD
ENDBRANCH   1  10
BRANCH   5  15
ATOM     15  C   UNL     1      42.965   4.414  11.365  0.00  0.00    +0.000 C 
BRANCH  15  16
ATOM     16  C   UNL     1      43.190   5.389  12.529  0.00  0.00    +0.000 C 
BRANCH  16  17
ATOM     17  C   UNL     1      44.653   5.609  12.822  0.00  0.00    +0.000 A 
ATOM     18  C   UNL     1      45.234   6.870  12.618  0.00  0.00    +0.000 A 
ATOM     19  C   UNL     1      46.589   7.076  12.879  0.00  0.00    +0.000 A 
ATOM     20  C   UNL     1      47.380   6.026  13.339  0.00  0.00    +0.000 A 
ATOM     21  C   UNL     1      46.815   4.766  13.537  0.00  0.00    +0.000 A 
ATOM     22  C   UNL     1      45.460   4.557  13.278  0.00  0.00    +0.000 A 
ENDBRANCH  16  17
ENDBRANCH  15  16
ENDBRANCH   5  15
TORSDOF 4
ENDMDL
MODEL 2
REMARK VINA RESULT:    -7.366      2.250      6.620
REMARK INTER + INTRA:          -9.616
REMARK INTER:                  -9.288
REMARK INTRA:                  -0.328
REMARK UNBOUND:                -0.528
REMARK  Name = 
REMARK  4 active torsions:
REMARK  status: ('A' for Active; 'I' for Inactive)
REMARK    1  A    between atoms: C_2  and  C_4
REMARK    2  A    between atoms: N_8  and  C_9
REMARK    3  A    between atoms: C_9  and  C_10
REMARK    4  A    between atoms: C_10  and  C_11
REMARK                            x       y       z     vdW  Elec       q    Type
REMARK                         _______ _______ _______ _____ _____    ______ ____
ROOT
ATOM      1  C   UNL     1      45.436   7.232  12.668  0.00  0.00    +0.000 A 
ATOM      2  C   UNL     1      46.212   6.207  13.198  0.00  0.00    +0.000 A 
ATOM      3  C   UNL     1      46.019   4.904  12.734  0.00  0.00    +0.000 A 
ATOM      4  C   UNL     1      45.093   4.661  11.720  0.00  0.00    +0.000 A 
ATOM      5  N   UNL     1      44.967   3.343  11.246  0.00  0.00    +0.000 N 
ATOM      6  N   UNL     1      44.326   5.647  11.214  0.00  0.00    +0.000 NA
ATOM      7  C   UNL     1      44.492   6.901  11.711  0.00  0.00    +0.000 A 
ATOM      8  H   UNL     1      44.556   2.782  11.988  0.00  0.00    +0.000 HD
ENDROOT
BRANCH   1  10
ATOM      9  N   UNL     1      46.621   8.959  13.836  0.00  0.00    +0.000 NA
ATOM     10  C   UNL     1      45.616   8.643  13.090  0.00  0.00    +0.000 C 
ATOM     11  N   UNL     1      44.710   9.593  12.712  0.00  0.00    +0.000 N 
ATOM     12  H   UNL     1      46.623   9.966  14.011  0.00  0.00    +0.000 HD
ATOM     13  H   UNL     1      44.697  10.433  13.277  0.00  0.00    +0.000 HD
ATOM     14  H   UNL     1      43.768   9.253  12.537  0.00  0.00    +0.000 HD
ENDBRANCH   1  10
BRANCH   5  15
ATOM     15  C   UNL     1      44.253   3.225   9.974  0.00  0.00    +0.000 C 
BRANCH  15  16
ATOM     16  C   UNL     1      44.639   1.913   9.276  0.00  0.00    +0.000 C 
BRANCH  16  17
ATOM     17  C   UNL     1      45.706   2.111   8.228  0.00  0.00    +0.000 A 
ATOM     18  C   UNL     1      45.837   3.346   7.576  0.00  0.00    +0.000 A 
ATOM     19  C   UNL     1      46.817   3.531   6.599  0.00  0.00    +0.000 A 
ATOM     20  C   UNL     1      47.672   2.484   6.260  0.00  0.00    +0.000 A 
ATOM     21  C   UNL     1      47.545   1.249   6.896  0.00  0.00    +0.000 A 
ATOM     22  C   UNL     1      46.566   1.062   7.874  0.00  0.00    +0.000 A 
ENDBRANCH  16  17
ENDBRANCH  15  16
ENDBRANCH   5  15
TORSDOF 4
ENDMDL
MODEL 3
REMARK VINA RESULT:    -7.308      0.991      1.676
REMARK INTER + INTRA:          -9.544
REMARK INTER:                  -9.268
REMARK INTRA:                  -0.277
REMARK UNBOUND:                -0.528
REMARK  Name = 
REMARK  4 active torsions:
REMARK  status: ('A' for Active; 'I' for Inactive)
REMARK    1  A    between atoms: C_2  and  C_4
REMARK    2  A    between atoms: N_8  and  C_9
REMARK    3  A    between atoms: C_9  and  C_10
REMARK    4  A    between atoms: C_10  and  C_11
REMARK                            x       y       z     vdW  Elec       q    Type
REMARK                         _______ _______ _______ _____ _____    ______ ____
ROOT
ATOM      1  C   UNL     1      46.544   2.492   7.559  0.00  0.00    +0.000 A 
ATOM      2  C   UNL     1      46.274   3.854   7.635  0.00  0.00    +0.000 A 
ATOM      3  C   UNL     1      45.323   4.305   8.553  0.00  0.00    +0.000 A 
ATOM      4  C   UNL     1      44.700   3.396   9.407  0.00  0.00    +0.000 A 
ATOM      5  N   UNL     1      43.787   3.898  10.351  0.00  0.00    +0.000 N 
ATOM      6  N   UNL     1      44.944   2.072   9.327  0.00  0.00    +0.000 NA
ATOM      7  C   UNL     1      45.835   1.645   8.395  0.00  0.00    +0.000 A 
ATOM      8  H   UNL     1      42.974   4.243   9.848  0.00  0.00    +0.000 HD
ENDROOT
BRANCH   1  10
ATOM      9  N   UNL     1      48.675   2.593   6.464  0.00  0.00    +0.000 NA
ATOM     10  C   UNL     1      47.568   1.951   6.632  0.00  0.00    +0.000 C 
ATOM     11  N   UNL     1      47.327   0.797   5.943  0.00  0.00    +0.000 N 
ATOM     12  H   UNL     1      49.283   2.078   5.826  0.00  0.00    +0.000 HD
ATOM     13  H   UNL     1      47.891   0.658   5.113  0.00  0.00    +0.000 HD
ATOM     14  H   UNL     1      46.348   0.593   5.760  0.00  0.00    +0.000 HD
ENDBRANCH   1  10
BRANCH   5  15
ATOM     15  C   UNL     1      43.447   2.959  11.420  0.00  0.00    +0.000 C 
BRANCH  15  16
ATOM     16  C   UNL     1      43.512   3.666  12.781  0.00  0.00    +0.000 C 
BRANCH  16  17
ATOM     17  C   UNL     1      44.574   4.738  12.823  0.00  0.00    +0.000 A 
ATOM     18  C   UNL     1      45.904   4.404  13.119  0.00  0.00    +0.000 A 
ATOM     19  C   UNL     1      46.887   5.393  13.168  0.00  0.00    +0.000 A 
ATOM     20  C   UNL     1      46.553   6.724  12.928  0.00  0.00    +0.000 A 
ATOM     21  C   UNL     1      45.233   7.068  12.641  0.00  0.00    +0.000 A 
ATOM     22  C   UNL     1      44.247   6.081  12.591  0.00  0.00    +0.000 A 
ENDBRANCH  16  17
ENDBRANCH  15  16
ENDBRANCH   5  15
TORSDOF 4
ENDMDL
MODEL 4
REMARK VINA RESULT:    -6.908      2.545      6.322
REMARK INTER + INTRA:          -9.052
REMARK INTER:                  -8.632
REMARK INTRA:                  -0.419
REMARK UNBOUND:                -0.528
REMARK  Name = 
REMARK  4 active torsions:
REMARK  status: ('A' for Active; 'I' for Inactive)
REMARK    1  A    between atoms: C_2  and  C_4
REMARK    2  A    between atoms: N_8  and  C_9
REMARK    3  A    between atoms: C_9  and  C_10
REMARK    4  A    between atoms: C_10  and  C_11
REMARK                            x       y       z     vdW  Elec       q    Type
REMARK                         _______ _______ _______ _____ _____    ______ ____
ROOT
ATOM      1  C   UNL     1      47.109   6.176  13.051  0.00  0.00    +0.000 A 
ATOM      2  C   UNL     1      46.407   5.258  13.825  0.00  0.00    +0.000 A 
ATOM      3  C   UNL     1      45.379   4.521  13.235  0.00  0.00    +0.000 A 
ATOM      4  C   UNL     1      45.106   4.680  11.877  0.00  0.00    +0.000 A 
ATOM      5  N   UNL     1      44.097   3.881  11.310  0.00  0.00    +0.000 N 
ATOM      6  N   UNL     1      45.770   5.580  11.124  0.00  0.00    +0.000 NA
ATOM      7  C   UNL     1      46.735   6.324  11.726  0.00  0.00    +0.000 A 
ATOM      8  H   UNL     1      43.206   4.181  11.698  0.00  0.00    +0.000 HD
ENDROOT
BRANCH   1  10
ATOM      9  N   UNL     1      48.058   7.656  14.681  0.00  0.00    +0.000 NA
ATOM     10  C   UNL     1      48.236   6.964  13.607  0.00  0.00    +0.000 C 
ATOM     11  N   UNL     1      49.445   6.975  12.970  0.00  0.00    +0.000 N 
ATOM     12  H   UNL     1      48.931   8.111  14.952  0.00  0.00    +0.000 HD
ATOM     13  H   UNL     1      50.050   7.755  13.195  0.00  0.00    +0.000 HD
ATOM     14  H   UNL     1      49.413   6.813  11.967  0.00  0.00    +0.000 HD
ENDBRANCH   1  10
BRANCH   5  15
ATOM     15  C   UNL     1      44.104   3.846   9.847  0.00  0.00    +0.000 C 
BRANCH  15  16
ATOM     16  C   UNL     1      44.460   2.436   9.358  0.00  0.00    +0.000 C 
BRANCH  16  17
ATOM     17  C   UNL     1      45.577   2.442   8.343  0.00  0.00    +0.000 A 
ATOM     18  C   UNL     1      46.320   1.277   8.101  0.00  0.00    +0.000 A 
ATOM     19  C   UNL     1      47.361   1.281   7.172  0.00  0.00    +0.000 A 
ATOM     20  C   UNL     1      47.674   2.448   6.478  0.00  0.00    +0.000 A 
ATOM     21  C   UNL     1      46.947   3.614   6.717  0.00  0.00    +0.000 A 
ATOM     22  C   UNL     1      45.906   3.613   7.646  0.00  0.00    +0.000 A 
ENDBRANCH  16  17
ENDBRANCH  15  16
ENDBRANCH   5  15
TORSDOF 4
ENDMDL
MODEL 5
REMARK VINA RESULT:    -6.768      2.903      6.401
REMARK INTER + INTRA:          -8.878
REMARK INTER:                  -8.557
REMARK INTRA:                  -0.321
REMARK UNBOUND:                -0.528
REMARK  Name = 
REMARK  4 active torsions:
REMARK  status: ('A' for Active; 'I' for Inactive)
REMARK    1  A    between atoms: C_2  and  C_4
REMARK    2  A    between atoms: N_8  and  C_9
REMARK    3  A    between atoms: C_9  and  C_10
REMARK    4  A    between atoms: C_10  and  C_11
REMARK                            x       y       z     vdW  Elec       q    Type
REMARK                         _______ _______ _______ _____ _____    ______ ____
ROOT
ATOM      1  C   UNL     1      46.994   4.623  14.497  0.00  0.00    +0.000 A 
ATOM      2  C   UNL     1      46.868   5.914  13.997  0.00  0.00    +0.000 A 
ATOM      3  C   UNL     1      46.326   6.096  12.723  0.00  0.00    +0.000 A 
ATOM      4  C   UNL     1      45.880   4.992  11.997  0.00  0.00    +0.000 A 
ATOM      5  N   UNL     1      45.294   5.223  10.740  0.00  0.00    +0.000 N 
ATOM      6  N   UNL     1      46.016   3.736  12.468  0.00  0.00    +0.000 NA
ATOM      7  C   UNL     1      46.590   3.573  13.689  0.00  0.00    +0.000 A 
ATOM      8  H   UNL     1      46.022   5.555  10.112  0.00  0.00    +0.000 HD
ENDROOT
BRANCH   1  10
ATOM      9  N   UNL     1      48.639   4.910  16.218  0.00  0.00    +0.000 NA
ATOM     10  C   UNL     1      47.527   4.363  15.857  0.00  0.00    +0.000 C 
ATOM     11  N   UNL     1      46.858   3.532  16.708  0.00  0.00    +0.000 N 
ATOM     12  H   UNL     1      48.852   4.662  17.186  0.00  0.00    +0.000 HD
ATOM     13  H   UNL     1      47.409   3.143  17.464  0.00  0.00    +0.000 HD
ATOM     14  H   UNL     1      46.289   2.816  16.264  0.00  0.00    +0.000 HD
ENDBRANCH   1  10
BRANCH   5  15
ATOM     15  C   UNL     1      44.548   4.085  10.202  0.00  0.00    +0.000 C 
BRANCH  15  16
ATOM     16  C   UNL     1      44.588   4.108   8.668  0.00  0.00    +0.000 C 
BRANCH  16  17
ATOM     17  C   UNL     1      45.604   3.146   8.104  0.00  0.00    +0.000 A 
ATOM     18  C   UNL     1      46.512   3.571   7.123  0.00  0.00    +0.000 A 
ATOM     19  C   UNL     1      47.448   2.682   6.591  0.00  0.00    +0.000 A 
ATOM     20  C   UNL     1      47.483   1.359   7.029  0.00  0.00    +0.000 A 
ATOM     21  C   UNL     1      46.579   0.924   7.998  0.00  0.00    +0.000 A 
ATOM     22  C   UNL     1      45.643   1.811   8.532  0.00  0.00    +0.000 A 
ENDBRANCH  16  17
ENDBRANCH  15  16
ENDBRANCH   5  15
TORSDOF 4
ENDMDL
MODEL 6
REMARK VINA RESULT:    -6.381      3.869      5.595
REMARK INTER + INTRA:          -8.402
REMARK INTER:                  -8.149
REMARK INTRA:                  -0.252
REMARK UNBOUND:                -0.528
REMARK  Name = 
REMARK  4 active torsions:
REMARK  status: ('A' for Active; 'I' for Inactive)
REMARK    1  A    between atoms: C_2  and  C_4
REMARK    2  A    between atoms: N_8  and  C_9
REMARK    3  A    between atoms: C_9  and  C_10
REMARK    4  A    between atoms: C_10  and  C_11
REMARK                            x       y       z     vdW  Elec       q    Type
REMARK                         _______ _______ _______ _____ _____    ______ ____
ROOT
ATOM      1  C   UNL     1      45.001   4.211  11.092  0.00  0.00    +0.000 A 
ATOM      2  C   UNL     1      45.532   5.479  11.302  0.00  0.00    +0.000 A 
ATOM      3  C   UNL     1      46.114   5.772  12.537  0.00  0.00    +0.000 A 
ATOM      4  C   UNL     1      46.197   4.781  13.515  0.00  0.00    +0.000 A 
ATOM      5  N   UNL     1      46.837   5.102  14.726  0.00  0.00    +0.000 N 
ATOM      6  N   UNL     1      45.668   3.555  13.324  0.00  0.00    +0.000 NA
ATOM      7  C   UNL     1      45.062   3.303  12.135  0.00  0.00    +0.000 A 
ATOM      8  H   UNL     1      46.256   5.777  15.217  0.00  0.00    +0.000 HD
ENDROOT
BRANCH   1  10
ATOM      9  N   UNL     1      43.725   4.695   9.120  0.00  0.00    +0.000 NA
ATOM     10  C   UNL     1      44.401   3.824   9.791  0.00  0.00    +0.000 C 
ATOM     11  N   UNL     1      44.543   2.549   9.323  0.00  0.00    +0.000 N 
ATOM     12  H   UNL     1      43.409   4.287   8.238  0.00  0.00    +0.000 HD
ATOM     13  H   UNL     1      43.866   2.260   8.628  0.00  0.00    +0.000 HD
ATOM     14  H   UNL     1      44.667   1.833  10.034  0.00  0.00    +0.000 HD
ENDBRANCH   1  10
BRANCH   5  15
ATOM     15  C   UNL     1      47.192   3.944  15.547  0.00  0.00    +0.000 C 
BRANCH  15  16
ATOM     16  C   UNL     1      47.761   4.410  16.893  0.00  0.00    +0.000 C 
BRANCH  16  17
ATOM     17  C   UNL     1      49.136   3.850  17.163  0.00  0.00    +0.000 A 
ATOM     18  C   UNL     1      49.378   2.474  17.032  0.00  0.00    +0.000 A 
ATOM     19  C   UNL     1      50.645   1.950  17.290  0.00  0.00    +0.000 A 
ATOM     20  C   UNL     1      51.683   2.792  17.685  0.00  0.00    +0.000 A 
ATOM     21  C   UNL     1      51.452   4.160  17.826  0.00  0.00    +0.000 A 
ATOM     22  C   UNL     1      50.185   4.687  17.568  0.00  0.00    +0.000 A 
ENDBRANCH  16  17
ENDBRANCH  15  16
ENDBRANCH   5  15
TORSDOF 4
ENDMDL
MODEL 7
REMARK VINA RESULT:    -5.792      4.084      6.928
REMARK INTER + INTRA:          -7.674
REMARK INTER:                  -7.302
REMARK INTRA:                  -0.373
REMARK UNBOUND:                -0.528
REMARK  Name = 
REMARK  4 active torsions:
REMARK  status: ('A' for Active; 'I' for Inactive)
REMARK    1  A    between atoms: C_2  and  C_4
REMARK    2  A    between atoms: N_8  and  C_9
REMARK    3  A    between atoms: C_9  and  C_10
REMARK    4  A    between atoms: C_10  and  C_11
REMARK                            x       y       z     vdW  Elec       q    Type
REMARK                         _______ _______ _______ _____ _____    ______ ____
ROOT
ATOM      1  C   UNL     1      47.907   4.358  16.537  0.00  0.00    +0.000 A 
ATOM      2  C   UNL     1      48.507   5.599  16.726  0.00  0.00    +0.000 A 
ATOM      3  C   UNL     1      48.646   6.456  15.633  0.00  0.00    +0.000 A 
ATOM      4  C   UNL     1      48.143   6.078  14.389  0.00  0.00    +0.000 A 
ATOM      5  N   UNL     1      48.259   6.992  13.326  0.00  0.00    +0.000 N 
ATOM      6  N   UNL     1      47.577   4.870  14.194  0.00  0.00    +0.000 NA
ATOM      7  C   UNL     1      47.493   4.028  15.257  0.00  0.00    +0.000 A 
ATOM      8  H   UNL     1      49.244   7.076  13.092  0.00  0.00    +0.000 HD
ENDROOT
BRANCH   1  10
ATOM      9  N   UNL     1      46.576   2.779  17.756  0.00  0.00    +0.000 NA
ATOM     10  C   UNL     1      47.695   3.416  17.663  0.00  0.00    +0.000 C 
ATOM     11  N   UNL     1      48.668   3.244  18.606  0.00  0.00    +0.000 N 
ATOM     12  H   UNL     1      46.599   2.149  18.559  0.00  0.00    +0.000 HD
ATOM     13  H   UNL     1      48.357   2.862  19.491  0.00  0.00    +0.000 HD
ATOM     14  H   UNL     1      49.286   4.039  18.747  0.00  0.00    +0.000 HD
ENDBRANCH   1  10
BRANCH   5  15
ATOM     15  C   UNL     1      47.417   6.683  12.170  0.00  0.00    +0.000 C 
BRANCH  15  16
ATOM     16  C   UNL     1      45.984   7.174  12.418  0.00  0.00    +0.000 C 
BRANCH  16  17
ATOM     17  C   UNL     1      44.950   6.128  12.081  0.00  0.00    +0.000 A 
ATOM     18  C   UNL     1      44.098   5.629  13.078  0.00  0.00    +0.000 A 
ATOM     19  C   UNL     1      43.147   4.654  12.773  0.00  0.00    +0.000 A 
ATOM     20  C   UNL     1      43.039   4.164  11.473  0.00  0.00    +0.000 A 
ATOM     21  C   UNL     1      43.887   4.648  10.477  0.00  0.00    +0.000 A 
ATOM     22  C   UNL     1      44.839   5.623  10.778  0.00  0.00    +0.000 A 
ENDBRANCH  16  17
ENDBRANCH  15  16
ENDBRANCH   5  15
TORSDOF 4
ENDMDL
MODEL 8
REMARK VINA RESULT:    -5.594      5.335      8.069
REMARK INTER + INTRA:          -7.430
REMARK INTER:                  -7.164
REMARK INTRA:                  -0.265
REMARK UNBOUND:                -0.528
REMARK  Name = 
REMARK  4 active torsions:
REMARK  status: ('A' for Active; 'I' for Inactive)
REMARK    1  A    between atoms: C_2  and  C_4
REMARK    2  A    between atoms: N_8  and  C_9
REMARK    3  A    between atoms: C_9  and  C_10
REMARK    4  A    between atoms: C_10  and  C_11
REMARK                            x       y       z     vdW  Elec       q    Type
REMARK                         _______ _______ _______ _____ _____    ______ ____
ROOT
ATOM      1  C   UNL     1      49.134   4.535  18.083  0.00  0.00    +0.000 A 
ATOM      2  C   UNL     1      48.434   3.341  17.954  0.00  0.00    +0.000 A 
ATOM      3  C   UNL     1      47.586   3.169  16.858  0.00  0.00    +0.000 A 
ATOM      4  C   UNL     1      47.494   4.170  15.891  0.00  0.00    +0.000 A 
ATOM      5  N   UNL     1      46.669   3.935  14.777  0.00  0.00    +0.000 N 
ATOM      6  N   UNL     1      48.156   5.337  16.019  0.00  0.00    +0.000 NA
ATOM      7  C   UNL     1      48.938   5.508  17.117  0.00  0.00    +0.000 A 
ATOM      8  H   UNL     1      45.704   3.921  15.099  0.00  0.00    +0.000 HD
ENDROOT
BRANCH   1  10
ATOM      9  N   UNL     1      51.201   5.362  18.976  0.00  0.00    +0.000 NA
ATOM     10  C   UNL     1      50.078   4.768  19.204  0.00  0.00    +0.000 C 
ATOM     11  N   UNL     1      49.770   4.332  20.461  0.00  0.00    +0.000 N 
ATOM     12  H   UNL     1      51.719   5.476  19.848  0.00  0.00    +0.000 HD
ATOM     13  H   UNL     1      50.556   4.223  21.091  0.00  0.00    +0.000 HD
ATOM     14  H   UNL     1      49.150   3.527  20.505  0.00  0.00    +0.000 HD
ENDBRANCH   1  10
BRANCH   5  15
ATOM     15  C   UNL     1      46.888   4.854  13.659  0.00  0.00    +0.000 C 
BRANCH  15  16
ATOM     16  C   UNL     1      45.540   5.314  13.087  0.00  0.00    +0.000 C 
BRANCH  16  17
ATOM     17  C   UNL     1      45.311   4.817  11.680  0.00  0.00    +0.000 A 
ATOM     18  C   UNL     1      45.723   5.585  10.582  0.00  0.00    +0.000 A 
ATOM     19  C   UNL     1      45.505   5.133   9.280  0.00  0.00    +0.000 A 
ATOM     20  C   UNL     1      44.869   3.913   9.061  0.00  0.00    +0.000 A 
ATOM     21  C   UNL     1      44.448   3.145  10.146  0.00  0.00    +0.000 A 
ATOM     22  C   UNL     1      44.665   3.594  11.449  0.00  0.00    +0.000 A 
ENDBRANCH  16  17
ENDBRANCH  15  16
ENDBRANCH   5  15
TORSDOF 4
ENDMDL
MODEL 9
REMARK VINA RESULT:    -5.518      3.911      5.787
REMARK INTER + INTRA:          -7.336
REMARK INTER:                  -7.081
REMARK INTRA:                  -0.255
REMARK UNBOUND:                -0.528
REMARK  Name = 
REMARK  4 active torsions:
REMARK  status: ('A' for Active; 'I' for Inactive)
REMARK    1  A    between atoms: C_2  and  C_4
REMARK    2  A    between atoms: N_8  and  C_9
REMARK    3  A    between atoms: C_9  and  C_10
REMARK    4  A    between atoms: C_10  and  C_11
REMARK                            x       y       z     vdW  Elec       q    Type
REMARK                         _______ _______ _______ _____ _____    ______ ____
ROOT
ATOM      1  C   UNL     1      45.338   5.135  11.564  0.00  0.00    +0.000 A 
ATOM      2  C   UNL     1      46.317   6.095  11.799  0.00  0.00    +0.000 A 
ATOM      3  C   UNL     1      46.973   6.103  13.031  0.00  0.00    +0.000 A 
ATOM      4  C   UNL     1      46.674   5.127  13.981  0.00  0.00    +0.000 A 
ATOM      5  N   UNL     1      47.394   5.141  15.189  0.00  0.00    +0.000 N 
ATOM      6  N   UNL     1      45.714   4.205  13.767  0.00  0.00    +0.000 NA
ATOM      7  C   UNL     1      45.051   4.241  12.582  0.00  0.00    +0.000 A 
ATOM      8  H   UNL     1      47.120   5.971  15.708  0.00  0.00    +0.000 HD
ENDROOT
BRANCH   1  10
ATOM      9  N   UNL     1      43.343   5.149  10.234  0.00  0.00    +0.000 NA
ATOM     10  C   UNL     1      44.629   5.048  10.264  0.00  0.00    +0.000 C 
ATOM     11  N   UNL     1      45.333   4.837   9.112  0.00  0.00    +0.000 N 
ATOM     12  H   UNL     1      43.012   5.103   9.269  0.00  0.00    +0.000 HD
ATOM     13  H   UNL     1      44.798   4.470   8.335  0.00  0.00    +0.000 HD
ATOM     14  H   UNL     1      46.212   4.338   9.221  0.00  0.00    +0.000 HD
ENDBRANCH   1  10
BRANCH   5  15
ATOM     15  C   UNL     1      47.281   3.910  15.974  0.00  0.00    +0.000 C 
BRANCH  15  16
ATOM     16  C   UNL     1      48.386   3.864  17.038  0.00  0.00    +0.000 C 
BRANCH  16  17
ATOM     17  C   UNL     1      48.461   5.135  17.847  0.00  0.00    +0.000 A 
ATOM     18  C   UNL     1      47.390   5.516  18.669  0.00  0.00    +0.000 A 
ATOM     19  C   UNL     1      47.451   6.695  19.411  0.00  0.00    +0.000 A 
ATOM     20  C   UNL     1      48.578   7.511  19.337  0.00  0.00    +0.000 A 
ATOM     21  C   UNL     1      49.646   7.146  18.517  0.00  0.00    +0.000 A 
ATOM     22  C   UNL     1      49.588   5.966  17.774  0.00  0.00    +0.000 A 
ENDBRANCH  16  17
ENDBRANCH  15  16
ENDBRANCH   5  15
TORSDOF 4
ENDMDL
