MODEL 1
REMARK VINA RESULT:    -8.296      0.000      0.000
REMARK INTER + INTRA:         -10.931
REMARK INTER:                 -10.721
REMARK INTRA:                  -0.211
REMARK UNBOUND:                -0.211
REMARK  Name = 
REMARK  5 active torsions:
REMARK  status: ('A' for Active; 'I' for Inactive)
REMARK    1  A    between atoms: C_2  and  C_3
REMARK    2  A    between atoms: C_6  and  N_7
REMARK    3  A    between atoms: N_7  and  C_8
REMARK    4  A    between atoms: C_8  and  C_9
REMARK    5  A    between atoms: C_14  and  C_15
REMARK                            x       y       z     vdW  Elec       q    Type
REMARK                         _______ _______ _______ _____ _____    ______ ____
ROOT
ATOM      1  C   UNL     1      44.070   4.808  11.401  0.00  0.00    +0.000 C 
ATOM      2  C   UNL     1      43.247   3.796  12.201  0.00  0.00    +0.000 C 
ATOM      3  C   UNL     1      42.862   5.236  12.216  0.00  0.00    +0.000 C 
ENDROOT
BRANCH   1   4
ATOM      4  C   UNL     1      45.428   5.187  11.987  0.00  0.00    +0.000 A 
ATOM      5  C   UNL     1      46.213   6.182  11.386  0.00  0.00    +0.000 A 
ATOM      6  C   UNL     1      47.284   6.743  12.067  0.00  0.00    +0.000 A 
ATOM      7  F   UNL     1      47.962   7.753  11.507  0.00  0.00    +0.000 F 
ATOM      8  C   UNL     1      47.623   6.317  13.342  0.00  0.00    +0.000 A 
ATOM      9  C   UNL     1      46.929   5.257  13.937  0.00  0.00    +0.000 A 
ATOM     10  C   UNL     1      45.854   4.686  13.234  0.00  0.00    +0.000 A 
BRANCH   9  11
ATOM     11  C   UNL     1      47.287   4.752  15.323  0.00  0.00    +0.000 C 
ATOM     12  C   UNL     1      48.368   5.615  15.993  0.00  0.00    +0.000 C 
ATOM     13  C   UNL     1      48.817   4.996  17.310  0.00  0.00    +0.000 C 
ATOM     14  O   UNL     1      49.242   3.649  17.117  0.00  0.00    +0.000 OA
ATOM     15  C   UNL     1      48.186   2.813  16.647  0.00  0.00    +0.000 C 
ATOM     16  C   UNL     1      47.707   3.277  15.281  0.00  0.00    +0.000 C 
ENDBRANCH   9  11
ENDBRANCH   1   4
BRANCH   1  17
ATOM     17  N   UNL     1      44.021   4.630   9.955  0.00  0.00    +0.000 N 
ATOM     18  H   UNL     1      43.210   4.941   9.431  0.00  0.00    +0.000 HD
BRANCH  17  22
ATOM     19  C   UNL     1      46.565   2.525   7.510  0.00  0.00    +0.000 A 
ATOM     20  C   UNL     1      46.379   3.892   7.402  0.00  0.00    +0.000 A 
ATOM     21  N   UNL     1      45.527   4.579   8.207  0.00  0.00    +0.000 NA
ATOM     22  C   UNL     1      44.847   3.871   9.139  0.00  0.00    +0.000 A 
ATOM     23  C   UNL     1      45.044   2.494   9.235  0.00  0.00    +0.000 A 
ATOM     24  N   UNL     1      45.895   1.791   8.432  0.00  0.00    +0.000 NA
BRANCH  19  26
ATOM     25  N   UNL     1      48.212   1.298   5.918  0.00  0.00    +0.000 NA
ATOM     26  C   UNL     1      47.491   1.841   6.653  0.00  0.00    +0.000 C 
ENDBRANCH  19  26
ENDBRANCH  17  22
ENDBRANCH   1  17
TORSDOF 5
ENDMDL
MODEL 2
REMARK VINA RESULT:    -8.216      2.541      3.750
REMARK INTER + INTRA:         -10.828
REMARK INTER:                  -9.893
REMARK INTRA:                  -0.935
REMARK UNBOUND:                -0.211
REMARK  Name = 
REMARK  5 active torsions:
REMARK  status: ('A' for Active; 'I' for Inactive)
REMARK    1  A    between atoms: C_2  and  C_3
REMARK    2  A    between atoms: C_6  and  N_7
REMARK    3  A    between atoms: N_7  and  C_8
REMARK    4  A    between atoms: C_8  and  C_9
REMARK    5  A    between atoms: C_14  and  C_15
REMARK                            x       y       z     vdW  Elec       q    Type
REMARK                         _______ _______ _______ _____ _____    ______ ____
ROOT
ATOM      1  C   UNL     1      43.827   5.027  11.366  0.00  0.00    +0.000 C 
ATOM      2  C   UNL     1      42.454   5.349  11.959  0.00  0.00    +0.000 C 
ATOM      3  C   UNL     1      43.085   6.301  11.001  0.00  0.00    +0.000 C 
ENDROOT
BRANCH   1   4
ATOM      4  C   UNL     1      45.024   5.206  12.296  0.00  0.00    +0.000 A 
ATOM      5  C   UNL     1      45.525   4.123  13.033  0.00  0.00    +0.000 A 
ATOM      6  C   UNL     1      46.775   4.194  13.633  0.00  0.00    +0.000 A 
ATOM      7  F   UNL     1      47.267   3.116  14.255  0.00  0.00    +0.000 F 
ATOM      8  C   UNL     1      47.546   5.343  13.542  0.00  0.00    +0.000 A 
ATOM      9  C   UNL     1      47.041   6.480  12.902  0.00  0.00    +0.000 A 
ATOM     10  C   UNL     1      45.769   6.403  12.310  0.00  0.00    +0.000 A 
BRANCH   9  11
ATOM     11  C   UNL     1      47.852   7.760  12.803  0.00  0.00    +0.000 C 
ATOM     12  C   UNL     1      46.990   8.961  12.380  0.00  0.00    +0.000 C 
ATOM     13  C   UNL     1      47.856  10.191  12.139  0.00  0.00    +0.000 C 
ATOM     14  O   UNL     1      48.888   9.906  11.197  0.00  0.00    +0.000 OA
ATOM     15  C   UNL     1      49.783   8.900  11.667  0.00  0.00    +0.000 C 
ATOM     16  C   UNL     1      49.049   7.583  11.862  0.00  0.00    +0.000 C 
ENDBRANCH   9  11
ENDBRANCH   1   4
BRANCH   1  17
ATOM     17  N   UNL     1      43.860   3.859  10.495  0.00  0.00    +0.000 N 
ATOM     18  H   UNL     1      43.255   3.066  10.683  0.00  0.00    +0.000 HD
BRANCH  17  22
ATOM     19  C   UNL     1      46.517   2.709   7.579  0.00  0.00    +0.000 A 
ATOM     20  C   UNL     1      45.908   1.810   8.438  0.00  0.00    +0.000 A 
ATOM     21  N   UNL     1      45.040   2.200   9.407  0.00  0.00    +0.000 NA
ATOM     22  C   UNL     1      44.781   3.525   9.513  0.00  0.00    +0.000 A 
ATOM     23  C   UNL     1      45.402   4.418   8.641  0.00  0.00    +0.000 A 
ATOM     24  N   UNL     1      46.278   4.041   7.664  0.00  0.00    +0.000 NA
BRANCH  19  26
ATOM     25  N   UNL     1      48.140   1.836   5.747  0.00  0.00    +0.000 NA
ATOM     26  C   UNL     1      47.412   2.253   6.555  0.00  0.00    +0.000 C 
ENDBRANCH  19  26
ENDBRANCH  17  22
ENDBRANCH   1  17
TORSDOF 5
ENDMDL
MODEL 3
REMARK VINA RESULT:    -7.736      3.972      7.418
REMARK INTER + INTRA:         -10.207
REMARK INTER:                  -9.497
REMARK INTRA:                  -0.710
REMARK UNBOUND:                -0.211
REMARK  Name = 
REMARK  5 active torsions:
REMARK  status: ('A' for Active; 'I' for Inactive)
REMARK    1  A    between atoms: C_2  and  C_3
REMARK    2  A    between atoms: C_6  and  N_7
REMARK    3  A    between atoms: N_7  and  C_8
REMARK    4  A    between atoms: C_8  and  C_9
REMARK    5  A    between atoms: C_14  and  C_15
REMARK                            x       y       z     vdW  Elec       q    Type
REMARK                         _______ _______ _______ _____ _____    ______ ____
ROOT
ATOM      1  C   UNL     1      46.365   6.974  12.541  0.00  0.00    +0.000 C 
ATOM      2  C   UNL     1      46.633   8.279  11.788  0.00  0.00    +0.000 C 
ATOM      3  C   UNL     1      45.836   8.304  13.048  0.00  0.00    +0.000 C 
ENDROOT
BRANCH   1   4
ATOM      4  C   UNL     1      45.324   6.041  11.927  0.00  0.00    +0.000 A 
ATOM      5  C   UNL     1      43.972   6.142  12.287  0.00  0.00    +0.000 A 
ATOM      6  C   UNL     1      42.991   5.523  11.526  0.00  0.00    +0.000 A 
ATOM      7  F   UNL     1      41.702   5.709  11.840  0.00  0.00    +0.000 F 
ATOM      8  C   UNL     1      43.321   4.768  10.411  0.00  0.00    +0.000 A 
ATOM      9  C   UNL     1      44.664   4.559  10.076  0.00  0.00    +0.000 A 
ATOM     10  C   UNL     1      45.651   5.178  10.861  0.00  0.00    +0.000 A 
BRANCH   9  11
ATOM     11  C   UNL     1      45.060   3.721   8.874  0.00  0.00    +0.000 C 
ATOM     12  C   UNL     1      45.479   2.297   9.272  0.00  0.00    +0.000 C 
ATOM     13  C   UNL     1      46.018   1.534   8.069  0.00  0.00    +0.000 C 
ATOM     14  O   UNL     1      47.077   2.256   7.445  0.00  0.00    +0.000 OA
ATOM     15  C   UNL     1      46.643   3.513   6.931  0.00  0.00    +0.000 C 
ATOM     16  C   UNL     1      46.161   4.411   8.059  0.00  0.00    +0.000 C 
ENDBRANCH   9  11
ENDBRANCH   1   4
BRANCH   1  17
ATOM     17  N   UNL     1      47.550   6.335  13.099  0.00  0.00    +0.000 N 
ATOM     18  H   UNL     1      48.367   6.178  12.517  0.00  0.00    +0.000 HD
BRANCH  17  22
ATOM     19  C   UNL     1      48.036   4.505  16.747  0.00  0.00    +0.000 A 
ATOM     20  C   UNL     1      48.738   5.639  16.374  0.00  0.00    +0.000 A 
ATOM     21  N   UNL     1      48.581   6.230  15.162  0.00  0.00    +0.000 NA
ATOM     22  C   UNL     1      47.697   5.666  14.306  0.00  0.00    +0.000 A 
ATOM     23  C   UNL     1      46.997   4.524  14.694  0.00  0.00    +0.000 A 
ATOM     24  N   UNL     1      47.147   3.918  15.908  0.00  0.00    +0.000 NA
BRANCH  19  26
ATOM     25  N   UNL     1      48.415   3.454  19.093  0.00  0.00    +0.000 NA
ATOM     26  C   UNL     1      48.217   3.924  18.046  0.00  0.00    +0.000 C 
ENDBRANCH  19  26
ENDBRANCH  17  22
ENDBRANCH   1  17
TORSDOF 5
ENDMDL
MODEL 4
REMARK VINA RESULT:    -7.466      3.347      4.899
REMARK INTER + INTRA:          -9.859
REMARK INTER:                  -9.173
REMARK INTRA:                  -0.686
REMARK UNBOUND:                -0.211
REMARK  Name = 
REMARK  5 active torsions:
REMARK  status: ('A' for Active; 'I' for Inactive)
REMARK    1  A    between atoms: C_2  and  C_3
REMARK    2  A    between atoms: C_6  and  N_7
REMARK    3  A    between atoms: N_7  and  C_8
REMARK    4  A    between atoms: C_8  and  C_9
REMARK    5  A    between atoms: C_14  and  C_15
REMARK                            x       y       z     vdW  Elec       q    Type
REMARK                         _______ _______ _______ _____ _____    ______ ____
ROOT
ATOM      1  C   UNL     1      44.021   5.087  11.918  0.00  0.00    +0.000 C 
ATOM      2  C   UNL     1      42.875   4.877  12.910  0.00  0.00    +0.000 C 
ATOM      3  C   UNL     1      42.634   5.649  11.657  0.00  0.00    +0.000 C 
ENDROOT
BRANCH   1   4
ATOM      4  C   UNL     1      45.081   6.110  12.318  0.00  0.00    +0.000 A 
ATOM      5  C   UNL     1      46.392   5.705  12.611  0.00  0.00    +0.000 A 
ATOM      6  C   UNL     1      47.421   6.634  12.672  0.00  0.00    +0.000 A 
ATOM      7  F   UNL     1      48.676   6.211  12.865  0.00  0.00    +0.000 F 
ATOM      8  C   UNL     1      47.177   7.984  12.475  0.00  0.00    +0.000 A 
ATOM      9  C   UNL     1      45.869   8.442  12.281  0.00  0.00    +0.000 A 
ATOM     10  C   UNL     1      44.831   7.495  12.233  0.00  0.00    +0.000 A 
BRANCH   9  11
ATOM     11  C   UNL     1      45.565   9.916  12.082  0.00  0.00    +0.000 C 
ATOM     12  C   UNL     1      44.450  10.144  11.049  0.00  0.00    +0.000 C 
ATOM     13  C   UNL     1      44.278  11.629  10.757  0.00  0.00    +0.000 C 
ATOM     14  O   UNL     1      45.515  12.213  10.356  0.00  0.00    +0.000 OA
ATOM     15  C   UNL     1      46.502  12.142  11.384  0.00  0.00    +0.000 C 
ATOM     16  C   UNL     1      46.833  10.694  11.706  0.00  0.00    +0.000 C 
ENDBRANCH   9  11
ENDBRANCH   1   4
BRANCH   1  17
ATOM     17  N   UNL     1      44.510   3.871  11.281  0.00  0.00    +0.000 N 
ATOM     18  H   UNL     1      44.643   3.027  11.828  0.00  0.00    +0.000 HD
BRANCH  17  22
ATOM     19  C   UNL     1      46.074   3.226   7.536  0.00  0.00    +0.000 A 
ATOM     20  C   UNL     1      45.725   2.196   8.392  0.00  0.00    +0.000 A 
ATOM     21  N   UNL     1      45.220   2.418   9.634  0.00  0.00    +0.000 NA
ATOM     22  C   UNL     1      45.065   3.707  10.020  0.00  0.00    +0.000 A 
ATOM     23  C   UNL     1      45.421   4.734   9.147  0.00  0.00    +0.000 A 
ATOM     24  N   UNL     1      45.932   4.526   7.898  0.00  0.00    +0.000 NA
BRANCH  19  26
ATOM     25  N   UNL     1      46.956   2.697   5.149  0.00  0.00    +0.000 NA
ATOM     26  C   UNL     1      46.585   2.948   6.224  0.00  0.00    +0.000 C 
ENDBRANCH  19  26
ENDBRANCH  17  22
ENDBRANCH   1  17
TORSDOF 5
ENDMDL
MODEL 5
REMARK VINA RESULT:    -6.812      4.459      7.921
REMARK INTER + INTRA:          -9.013
REMARK INTER:                  -8.255
REMARK INTRA:                  -0.758
REMARK UNBOUND:                -0.211
REMARK  Name = 
REMARK  5 active torsions:
REMARK  status: ('A' for Active; 'I' for Inactive)
REMARK    1  A    between atoms: C_2  and  C_3
REMARK    2  A    between atoms: C_6  and  N_7
REMARK    3  A    between atoms: N_7  and  C_8
REMARK    4  A    between atoms: C_8  and  C_9
REMARK    5  A    between atoms: C_14  and  C_15
REMARK                            x       y       z     vdW  Elec       q    Type
REMARK                         _______ _______ _______ _____ _____    ______ ____
ROOT
ATOM      1  C   UNL     1      49.225   7.776  13.094  0.00  0.00    +0.000 C 
ATOM      2  C   UNL     1      49.994   7.647  11.777  0.00  0.00    +0.000 C 
ATOM      3  C   UNL     1      49.743   8.998  12.356  0.00  0.00    +0.000 C 
ENDROOT
BRANCH   1   4
ATOM      4  C   UNL     1      47.717   7.552  13.020  0.00  0.00    +0.000 A 
ATOM      5  C   UNL     1      46.829   8.637  13.059  0.00  0.00    +0.000 A 
ATOM      6  C   UNL     1      45.501   8.477  12.690  0.00  0.00    +0.000 A 
ATOM      7  F   UNL     1      44.697   9.547  12.650  0.00  0.00    +0.000 F 
ATOM      8  C   UNL     1      45.012   7.239  12.302  0.00  0.00    +0.000 A 
ATOM      9  C   UNL     1      45.838   6.111  12.346  0.00  0.00    +0.000 A 
ATOM     10  C   UNL     1      47.178   6.280  12.734  0.00  0.00    +0.000 A 
BRANCH   9  11
ATOM     11  C   UNL     1      45.328   4.738  11.947  0.00  0.00    +0.000 C 
ATOM     12  C   UNL     1      44.933   4.674  10.463  0.00  0.00    +0.000 C 
ATOM     13  C   UNL     1      44.282   3.338  10.133  0.00  0.00    +0.000 C 
ATOM     14  O   UNL     1      43.178   3.085  10.998  0.00  0.00    +0.000 OA
ATOM     15  C   UNL     1      43.576   2.983  12.364  0.00  0.00    +0.000 C 
ATOM     16  C   UNL     1      44.165   4.299  12.846  0.00  0.00    +0.000 C 
ENDBRANCH   9  11
ENDBRANCH   1   4
BRANCH   1  17
ATOM     17  N   UNL     1      49.901   7.213  14.256  0.00  0.00    +0.000 N 
ATOM     18  H   UNL     1      50.794   6.743  14.148  0.00  0.00    +0.000 HD
BRANCH  17  22
ATOM     19  C   UNL     1      48.525   6.437  18.050  0.00  0.00    +0.000 A 
ATOM     20  C   UNL     1      48.797   5.439  17.129  0.00  0.00    +0.000 A 
ATOM     21  N   UNL     1      49.240   5.705  15.873  0.00  0.00    +0.000 NA
ATOM     22  C   UNL     1      49.412   7.006  15.537  0.00  0.00    +0.000 A 
ATOM     23  C   UNL     1      49.133   8.000  16.475  0.00  0.00    +0.000 A 
ATOM     24  N   UNL     1      48.685   7.747  17.739  0.00  0.00    +0.000 NA
BRANCH  19  26
ATOM     25  N   UNL     1      47.704   5.897  20.455  0.00  0.00    +0.000 NA
ATOM     26  C   UNL     1      48.078   6.111  19.373  0.00  0.00    +0.000 C 
ENDBRANCH  19  26
ENDBRANCH  17  22
ENDBRANCH   1  17
TORSDOF 5
ENDMDL
MODEL 6
REMARK VINA RESULT:    -6.666      3.372      4.881
REMARK INTER + INTRA:          -8.825
REMARK INTER:                  -8.133
REMARK INTRA:                  -0.692
REMARK UNBOUND:                -0.211
REMARK  Name = 
REMARK  5 active torsions:
REMARK  status: ('A' for Active; 'I' for Inactive)
REMARK    1  A    between atoms: C_2  and  C_3
REMARK    2  A    between atoms: C_6  and  N_7
REMARK    3  A    between atoms: N_7  and  C_8
REMARK    4  A    between atoms: C_8  and  C_9
REMARK    5  A    between atoms: C_14  and  C_15
REMARK                            x       y       z     vdW  Elec       q    Type
REMARK                         _______ _______ _______ _____ _____    ______ ____
ROOT
ATOM      1  C   UNL     1      47.691   7.811  13.313  0.00  0.00    +0.000 C 
ATOM      2  C   UNL     1      48.250   8.834  12.322  0.00  0.00    +0.000 C 
ATOM      3  C   UNL     1      48.664   7.405  12.220  0.00  0.00    +0.000 C 
ENDROOT
BRANCH   1   4
ATOM      4  C   UNL     1      48.268   7.854  14.725  0.00  0.00    +0.000 A 
ATOM      5  C   UNL     1      48.172   9.018  15.502  0.00  0.00    +0.000 A 
ATOM      6  C   UNL     1      48.410   8.976  16.869  0.00  0.00    +0.000 A 
ATOM      7  F   UNL     1      48.225  10.081  17.602  0.00  0.00    +0.000 F 
ATOM      8  C   UNL     1      48.776   7.794  17.495  0.00  0.00    +0.000 A 
ATOM      9  C   UNL     1      48.982   6.633  16.740  0.00  0.00    +0.000 A 
ATOM     10  C   UNL     1      48.751   6.688  15.355  0.00  0.00    +0.000 A 
BRANCH   9  11
ATOM     11  C   UNL     1      49.402   5.328  17.392  0.00  0.00    +0.000 C 
ATOM     12  C   UNL     1      50.901   5.044  17.207  0.00  0.00    +0.000 C 
ATOM     13  C   UNL     1      51.259   3.660  17.733  0.00  0.00    +0.000 C 
ATOM     14  O   UNL     1      50.440   2.662  17.128  0.00  0.00    +0.000 OA
ATOM     15  C   UNL     1      49.060   2.838  17.438  0.00  0.00    +0.000 C 
ATOM     16  C   UNL     1      48.552   4.158  16.880  0.00  0.00    +0.000 C 
ENDBRANCH   9  11
ENDBRANCH   1   4
BRANCH   1  17
ATOM     17  N   UNL     1      46.255   7.582  13.212  0.00  0.00    +0.000 N 
ATOM     18  H   UNL     1      45.603   8.279  13.555  0.00  0.00    +0.000 HD
BRANCH  17  22
ATOM     19  C   UNL     1      44.224   4.174  12.139  0.00  0.00    +0.000 A 
ATOM     20  C   UNL     1      44.053   5.387  11.493  0.00  0.00    +0.000 A 
ATOM     21  N   UNL     1      44.720   6.511  11.862  0.00  0.00    +0.000 NA
ATOM     22  C   UNL     1      45.576   6.412  12.906  0.00  0.00    +0.000 A 
ATOM     23  C   UNL     1      45.737   5.184  13.548  0.00  0.00    +0.000 A 
ATOM     24  N   UNL     1      45.072   4.047  13.190  0.00  0.00    +0.000 NA
BRANCH  19  26
ATOM     25  N   UNL     1      42.952   2.034  11.396  0.00  0.00    +0.000 NA
ATOM     26  C   UNL     1      43.515   3.005  11.704  0.00  0.00    +0.000 C 
ENDBRANCH  19  26
ENDBRANCH  17  22
ENDBRANCH   1  17
TORSDOF 5
ENDMDL
MODEL 7
REMARK VINA RESULT:    -6.033      4.375      6.834
REMARK INTER + INTRA:          -8.007
REMARK INTER:                  -7.367
REMARK INTRA:                  -0.641
REMARK UNBOUND:                -0.211
REMARK  Name = 
REMARK  5 active torsions:
REMARK  status: ('A' for Active; 'I' for Inactive)
REMARK    1  A    between atoms: C_2  and  C_3
REMARK    2  A    between atoms: C_6  and  N_7
REMARK    3  A    between atoms: N_7  and  C_8
REMARK    4  A    between atoms: C_8  and  C_9
REMARK    5  A    between atoms: C_14  and  C_15
REMARK                            x       y       z     vdW  Elec       q    Type
REMARK                         _______ _______ _______ _____ _____    ______ ____
ROOT
ATOM      1  C   UNL     1      45.968   4.790  13.558  0.00  0.00    +0.000 C 
ATOM      2  C   UNL     1      44.697   4.140  13.008  0.00  0.00    +0.000 C 
ATOM      3  C   UNL     1      46.031   3.614  12.599  0.00  0.00    +0.000 C 
ENDROOT
BRANCH   1   4
ATOM      4  C   UNL     1      46.346   6.144  12.964  0.00  0.00    +0.000 A 
ATOM      5  C   UNL     1      45.408   7.185  12.901  0.00  0.00    +0.000 A 
ATOM      6  C   UNL     1      45.815   8.488  12.654  0.00  0.00    +0.000 A 
ATOM      7  F   UNL     1      44.911   9.476  12.689  0.00  0.00    +0.000 F 
ATOM      8  C   UNL     1      47.150   8.791  12.435  0.00  0.00    +0.000 A 
ATOM      9  C   UNL     1      48.104   7.768  12.388  0.00  0.00    +0.000 A 
ATOM     10  C   UNL     1      47.681   6.450  12.626  0.00  0.00    +0.000 A 
BRANCH   9  11
ATOM     11  C   UNL     1      49.571   8.063  12.130  0.00  0.00    +0.000 C 
ATOM     12  C   UNL     1      50.391   8.107  13.429  0.00  0.00    +0.000 C 
ATOM     13  C   UNL     1      51.819   8.557  13.153  0.00  0.00    +0.000 C 
ATOM     14  O   UNL     1      51.833   9.804  12.463  0.00  0.00    +0.000 OA
ATOM     15  C   UNL     1      51.210   9.717  11.182  0.00  0.00    +0.000 C 
ATOM     16  C   UNL     1      49.740   9.360  11.328  0.00  0.00    +0.000 C 
ENDBRANCH   9  11
ENDBRANCH   1   4
BRANCH   1  17
ATOM     17  N   UNL     1      46.159   4.644  14.995  0.00  0.00    +0.000 N 
ATOM     18  H   UNL     1      45.413   4.894  15.636  0.00  0.00    +0.000 HD
BRANCH  17  22
ATOM     19  C   UNL     1      49.632   3.788  17.018  0.00  0.00    +0.000 A 
ATOM     20  C   UNL     1      48.749   2.811  16.594  0.00  0.00    +0.000 A 
ATOM     21  N   UNL     1      47.597   3.103  15.937  0.00  0.00    +0.000 NA
ATOM     22  C   UNL     1      47.329   4.409  15.703  0.00  0.00    +0.000 A 
ATOM     23  C   UNL     1      48.228   5.383  16.137  0.00  0.00    +0.000 A 
ATOM     24  N   UNL     1      49.388   5.104  16.800  0.00  0.00    +0.000 NA
BRANCH  19  26
ATOM     25  N   UNL     1      51.853   3.197  18.230  0.00  0.00    +0.000 NA
ATOM     26  C   UNL     1      50.849   3.435  17.691  0.00  0.00    +0.000 C 
ENDBRANCH  19  26
ENDBRANCH  17  22
ENDBRANCH   1  17
TORSDOF 5
ENDMDL
MODEL 8
REMARK VINA RESULT:    -5.844      4.665      6.747
REMARK INTER + INTRA:          -7.763
REMARK INTER:                  -7.047
REMARK INTRA:                  -0.716
REMARK UNBOUND:                -0.211
REMARK  Name = 
REMARK  5 active torsions:
REMARK  status: ('A' for Active; 'I' for Inactive)
REMARK    1  A    between atoms: C_2  and  C_3
REMARK    2  A    between atoms: C_6  and  N_7
REMARK    3  A    between atoms: N_7  and  C_8
REMARK    4  A    between atoms: C_8  and  C_9
REMARK    5  A    between atoms: C_14  and  C_15
REMARK                            x       y       z     vdW  Elec       q    Type
REMARK                         _______ _______ _______ _____ _____    ______ ____
ROOT
ATOM      1  C   UNL     1      48.266   8.425  13.691  0.00  0.00    +0.000 C 
ATOM      2  C   UNL     1      48.289   8.753  15.186  0.00  0.00    +0.000 C 
ATOM      3  C   UNL     1      48.820   7.444  14.709  0.00  0.00    +0.000 C 
ENDROOT
BRANCH   1   4
ATOM      4  C   UNL     1      46.906   8.063  13.100  0.00  0.00    +0.000 A 
ATOM      5  C   UNL     1      46.067   9.057  12.574  0.00  0.00    +0.000 A 
ATOM      6  C   UNL     1      44.987   8.717  11.771  0.00  0.00    +0.000 A 
ATOM      7  F   UNL     1      44.256   9.688  11.209  0.00  0.00    +0.000 F 
ATOM      8  C   UNL     1      44.694   7.391  11.492  0.00  0.00    +0.000 A 
ATOM      9  C   UNL     1      45.444   6.366  12.079  0.00  0.00    +0.000 A 
ATOM     10  C   UNL     1      46.527   6.719  12.901  0.00  0.00    +0.000 A 
BRANCH   9  11
ATOM     11  C   UNL     1      45.136   4.904  11.810  0.00  0.00    +0.000 C 
ATOM     12  C   UNL     1      44.788   4.646  10.336  0.00  0.00    +0.000 C 
ATOM     13  C   UNL     1      44.334   3.207  10.130  0.00  0.00    +0.000 C 
ATOM     14  O   UNL     1      43.255   2.886  11.005  0.00  0.00    +0.000 OA
ATOM     15  C   UNL     1      43.632   2.971  12.378  0.00  0.00    +0.000 C 
ATOM     16  C   UNL     1      44.024   4.396  12.736  0.00  0.00    +0.000 C 
ENDBRANCH   9  11
ENDBRANCH   1   4
BRANCH   1  17
ATOM     17  N   UNL     1      49.121   9.269  12.866  0.00  0.00    +0.000 N 
ATOM     18  H   UNL     1      48.864  10.234  12.685  0.00  0.00    +0.000 HD
BRANCH  17  22
ATOM     19  C   UNL     1      52.378   8.299  10.555  0.00  0.00    +0.000 A 
ATOM     20  C   UNL     1      52.275   9.495  11.245  0.00  0.00    +0.000 A 
ATOM     21  N   UNL     1      51.189   9.813  11.997  0.00  0.00    +0.000 NA
ATOM     22  C   UNL     1      50.185   8.906  12.053  0.00  0.00    +0.000 A 
ATOM     23  C   UNL     1      50.303   7.706  11.353  0.00  0.00    +0.000 A 
ATOM     24  N   UNL     1      51.387   7.374  10.592  0.00  0.00    +0.000 NA
BRANCH  19  26
ATOM     25  N   UNL     1      54.525   7.791   9.182  0.00  0.00    +0.000 NA
ATOM     26  C   UNL     1      53.552   7.994   9.789  0.00  0.00    +0.000 C 
ENDBRANCH  19  26
ENDBRANCH  17  22
ENDBRANCH   1  17
TORSDOF 5
ENDMDL
MODEL 9
REMARK VINA RESULT:    -5.646      4.407      7.195
REMARK INTER + INTRA:          -7.507
REMARK INTER:                  -7.464
REMARK INTRA:                  -0.043
REMARK UNBOUND:                -0.211
REMARK  Name = 
REMARK  5 active torsions:
REMARK  status: ('A' for Active; 'I' for Inactive)
REMARK    1  A    between atoms: C_2  and  C_3
REMARK    2  A    between atoms: C_6  and  N_7
REMARK    3  A    between atoms: N_7  and  C_8
REMARK    4  A    between atoms: C_8  and  C_9
REMARK    5  A    between atoms: C_14  and  C_15
REMARK                            x       y       z     vdW  Elec       q    Type
REMARK                         _______ _______ _______ _____ _____    ______ ____
ROOT
ATOM      1  C   UNL     1      46.118   5.151  12.842  0.00  0.00    +0.000 C 
ATOM      2  C   UNL     1      44.669   4.798  13.185  0.00  0.00    +0.000 C 
ATOM      3  C   UNL     1      45.236   4.392  11.867  0.00  0.00    +0.000 C 
ENDROOT
BRANCH   1   4
ATOM      4  C   UNL     1      46.391   6.610  12.484  0.00  0.00    +0.000 A 
ATOM      5  C   UNL     1      45.373   7.570  12.570  0.00  0.00    +0.000 A 
ATOM      6  C   UNL     1      45.676   8.925  12.547  0.00  0.00    +0.000 A 
ATOM      7  F   UNL     1      44.696   9.820  12.720  0.00  0.00    +0.000 F 
ATOM      8  C   UNL     1      46.985   9.362  12.410  0.00  0.00    +0.000 A 
ATOM      9  C   UNL     1      48.019   8.438  12.220  0.00  0.00    +0.000 A 
ATOM     10  C   UNL     1      47.701   7.069  12.232  0.00  0.00    +0.000 A 
BRANCH   9  11
ATOM     11  C   UNL     1      49.460   8.884  12.048  0.00  0.00    +0.000 C 
ATOM     12  C   UNL     1      49.567  10.216  11.288  0.00  0.00    +0.000 C 
ATOM     13  C   UNL     1      51.022  10.556  10.995  0.00  0.00    +0.000 C 
ATOM     14  O   UNL     1      51.664   9.486  10.305  0.00  0.00    +0.000 OA
ATOM     15  C   UNL     1      51.705   8.292  11.083  0.00  0.00    +0.000 C 
ATOM     16  C   UNL     1      50.297   7.793  11.369  0.00  0.00    +0.000 C 
ENDBRANCH   9  11
ENDBRANCH   1   4
BRANCH   1  17
ATOM     17  N   UNL     1      47.121   4.495  13.672  0.00  0.00    +0.000 N 
ATOM     18  H   UNL     1      47.633   3.695  13.315  0.00  0.00    +0.000 HD
BRANCH  17  22
ATOM     19  C   UNL     1      47.903   5.105  17.660  0.00  0.00    +0.000 A 
ATOM     20  C   UNL     1      48.540   5.808  16.653  0.00  0.00    +0.000 A 
ATOM     21  N   UNL     1      48.285   5.592  15.336  0.00  0.00    +0.000 NA
ATOM     22  C   UNL     1      47.368   4.645  15.029  0.00  0.00    +0.000 A 
ATOM     23  C   UNL     1      46.734   3.944  16.054  0.00  0.00    +0.000 A 
ATOM     24  N   UNL     1      46.982   4.149  17.381  0.00  0.00    +0.000 NA
BRANCH  19  26
ATOM     25  N   UNL     1      48.393   5.647  20.154  0.00  0.00    +0.000 NA
ATOM     26  C   UNL     1      48.187   5.379  19.039  0.00  0.00    +0.000 C 
ENDBRANCH  19  26
ENDBRANCH  17  22
ENDBRANCH   1  17
TORSDOF 5
ENDMDL
