MODEL 1
REMARK VINA RESULT:    -6.844      0.000      0.000
REMARK INTER + INTRA:         -11.811
REMARK INTER:                 -10.444
REMARK INTRA:                  -1.367
REMARK UNBOUND:                -1.367
REMARK  Name = 
REMARK  14 active torsions:
REMARK  status: ('A' for Active; 'I' for Inactive)
REMARK    1  A    between atoms: C_1  and  O_2
REMARK    2  A    between atoms: O_2  and  C_3
REMARK    3  A    between atoms: C_5  and  O_6
REMARK    4  A    between atoms: O_6  and  C_7
REMARK    5  A    between atoms: C_7  and  C_8
REMARK    6  A    between atoms: C_8  and  C_9
REMARK    7  A    between atoms: C_8  and  C_10
REMARK    8  A    between atoms: C_8  and  C_11
REMARK    9  A    between atoms: C_15  and  C_16
REMARK   10  A    between atoms: C_21  and  C_22
REMARK   11  A    between atoms: C_22  and  C_23
REMARK   12  A    between atoms: C_22  and  C_24
REMARK   13  A    between atoms: C_25  and  N_26
REMARK   14  A    between atoms: N_26  and  C_27
REMARK                            x       y       z     vdW  Elec       q    Type
REMARK                         _______ _______ _______ _____ _____    ______ ____
ROOT
ATOM      1  C   UNL     1      48.006   5.482  14.904  0.00  0.00    +0.000 A 
ATOM      2  C   UNL     1      46.866   5.043  14.217  0.00  0.00    +0.000 A 
ATOM      3  C   UNL     1      46.463   5.629  13.022  0.00  0.00    +0.000 A 
ATOM      4  C   UNL     1      47.206   6.683  12.504  0.00  0.00    +0.000 A 
ATOM      5  C   UNL     1      48.331   7.197  13.185  0.00  0.00    +0.000 A 
ATOM      6  C   UNL     1      48.770   6.557  14.386  0.00  0.00    +0.000 A 
ENDROOT
BRANCH   5   7
ATOM      7  C   UNL     1      48.995   8.480  12.667  0.00  0.00    +0.000 C 
ATOM      8  C   UNL     1      50.014   8.202  11.562  0.00  0.00    +0.000 C 
ATOM      9  C   UNL     1      47.990   9.539  12.182  0.00  0.00    +0.000 C 
ENDBRANCH   5   7
BRANCH   1  11
ATOM     10  C   UNL     1      47.385   4.420  16.957  0.00  0.00    +0.000 C 
ATOM     11  O   UNL     1      48.409   4.894  16.083  0.00  0.00    +0.000 OA
ENDBRANCH   1  11
BRANCH   6  12
ATOM     12  N   UNL     1      49.908   7.089  15.046  0.00  0.00    +0.000 N 
ATOM     13  H   UNL     1      50.697   6.449  15.029  0.00  0.00    +0.000 HD
BRANCH  12  14
ATOM     14  C   UNL     1      49.983   8.096  16.067  0.00  0.00    +0.000 C 
ATOM     15  C   UNL     1      50.302   7.474  17.444  0.00  0.00    +0.000 C 
ATOM     16  N   UNL     1      49.169   8.200  18.043  0.00  0.00    +0.000 NA
ATOM     17  C   UNL     1      48.645   8.521  16.700  0.00  0.00    +0.000 C 
ATOM     18  H   UNL     1      49.456   9.021  18.577  0.00  0.00    +0.000 HD
ENDBRANCH  12  14
ENDBRANCH   6  12
BRANCH   3  19
ATOM     19  O   UNL     1      45.349   5.270  12.304  0.00  0.00    +0.000 OA
BRANCH  19  20
ATOM     20  C   UNL     1      45.103   3.860  12.210  0.00  0.00    +0.000 C 
BRANCH  20  21
ATOM     21  C   UNL     1      44.116   3.503  11.066  0.00  0.00    +0.000 C 
ATOM     22  C   UNL     1      43.486   2.120  11.327  0.00  0.00    +0.000 C 
ATOM     23  C   UNL     1      42.975   4.545  11.087  0.00  0.00    +0.000 C 
BRANCH  21  24
ATOM     24  C   UNL     1      44.913   3.480   9.738  0.00  0.00    +0.000 A 
ATOM     25  C   UNL     1      45.241   4.654   9.041  0.00  0.00    +0.000 A 
ATOM     26  C   UNL     1      46.044   4.620   7.899  0.00  0.00    +0.000 A 
ATOM     27  C   UNL     1      46.549   3.409   7.433  0.00  0.00    +0.000 A 
ATOM     28  C   UNL     1      46.234   2.214   8.087  0.00  0.00    +0.000 A 
ATOM     29  C   UNL     1      45.400   2.257   9.216  0.00  0.00    +0.000 A 
BRANCH  28  30
ATOM     30  C   UNL     1      46.855   0.962   7.570  0.00  0.00    +0.000 C 
ATOM     31  N   UNL     1      47.818   1.044   6.602  0.00  0.00    +0.000 N 
ATOM     32  O   UNL     1      46.506  -0.148   7.977  0.00  0.00    +0.000 OA
ATOM     33  H   UNL     1      48.195   1.891   6.211  0.00  0.00    +0.000 HD
ATOM     34  H   UNL     1      48.186   0.163   6.261  0.00  0.00    +0.000 HD
ENDBRANCH  28  30
ENDBRANCH  21  24
ENDBRANCH  20  21
ENDBRANCH  19  20
ENDBRANCH   3  19
TORSDOF 9
ENDMDL
MODEL 2
REMARK VINA RESULT:    -6.799      1.200      3.030
REMARK INTER + INTRA:         -11.744
REMARK INTER:                 -10.438
REMARK INTRA:                  -1.305
REMARK UNBOUND:                -1.367
REMARK  Name = 
REMARK  14 active torsions:
REMARK  status: ('A' for Active; 'I' for Inactive)
REMARK    1  A    between atoms: C_1  and  O_2
REMARK    2  A    between atoms: O_2  and  C_3
REMARK    3  A    between atoms: C_5  and  O_6
REMARK    4  A    between atoms: O_6  and  C_7
REMARK    5  A    between atoms: C_7  and  C_8
REMARK    6  A    between atoms: C_8  and  C_9
REMARK    7  A    between atoms: C_8  and  C_10
REMARK    8  A    between atoms: C_8  and  C_11
REMARK    9  A    between atoms: C_15  and  C_16
REMARK   10  A    between atoms: C_21  and  C_22
REMARK   11  A    between atoms: C_22  and  C_23
REMARK   12  A    between atoms: C_22  and  C_24
REMARK   13  A    between atoms: C_25  and  N_26
REMARK   14  A    between atoms: N_26  and  C_27
REMARK                            x       y       z     vdW  Elec       q    Type
REMARK                         _______ _______ _______ _____ _____    ______ ____
ROOT
ATOM      1  C   UNL     1      48.019   6.464  13.936  0.00  0.00    +0.000 A 
ATOM      2  C   UNL     1      46.962   5.758  13.345  0.00  0.00    +0.000 A 
ATOM      3  C   UNL     1      46.318   4.718  14.006  0.00  0.00    +0.000 A 
ATOM      4  C   UNL     1      46.742   4.366  15.282  0.00  0.00    +0.000 A 
ATOM      5  C   UNL     1      47.837   5.011  15.899  0.00  0.00    +0.000 A 
ATOM      6  C   UNL     1      48.461   6.112  15.236  0.00  0.00    +0.000 A 
ENDROOT
BRANCH   5   7
ATOM      7  C   UNL     1      48.381   4.453  17.221  0.00  0.00    +0.000 C 
ATOM      8  C   UNL     1      47.712   5.089  18.440  0.00  0.00    +0.000 C 
ATOM      9  C   UNL     1      48.288   2.921  17.328  0.00  0.00    +0.000 C 
ENDBRANCH   5   7
BRANCH   1  11
ATOM     10  C   UNL     1      48.400   7.635  11.883  0.00  0.00    +0.000 C 
ATOM     11  O   UNL     1      48.650   7.500  13.282  0.00  0.00    +0.000 OA
ENDBRANCH   1  11
BRANCH   6  12
ATOM     12  N   UNL     1      49.553   6.747  15.882  0.00  0.00    +0.000 N 
ATOM     13  H   UNL     1      50.321   6.105  16.059  0.00  0.00    +0.000 HD
BRANCH  12  14
ATOM     14  C   UNL     1      49.571   7.931  16.693  0.00  0.00    +0.000 C 
ATOM     15  C   UNL     1      50.436   9.037  16.050  0.00  0.00    +0.000 C 
ATOM     16  N   UNL     1      51.162   9.218  17.318  0.00  0.00    +0.000 NA
ATOM     17  C   UNL     1      50.603   7.953  17.837  0.00  0.00    +0.000 C 
ATOM     18  H   UNL     1      50.861  10.042  17.839  0.00  0.00    +0.000 HD
ENDBRANCH  12  14
ENDBRANCH   6  12
BRANCH   3  19
ATOM     19  O   UNL     1      45.293   3.967  13.485  0.00  0.00    +0.000 OA
BRANCH  19  20
ATOM     20  C   UNL     1      45.579   3.310  12.244  0.00  0.00    +0.000 C 
BRANCH  20  21
ATOM     21  C   UNL     1      44.455   3.508  11.192  0.00  0.00    +0.000 C 
ATOM     22  C   UNL     1      43.405   2.387  11.327  0.00  0.00    +0.000 C 
ATOM     23  C   UNL     1      43.749   4.846  11.505  0.00  0.00    +0.000 C 
BRANCH  21  24
ATOM     24  C   UNL     1      45.102   3.461   9.786  0.00  0.00    +0.000 A 
ATOM     25  C   UNL     1      45.351   4.622   9.037  0.00  0.00    +0.000 A 
ATOM     26  C   UNL     1      46.025   4.568   7.814  0.00  0.00    +0.000 A 
ATOM     27  C   UNL     1      46.479   3.348   7.318  0.00  0.00    +0.000 A 
ATOM     28  C   UNL     1      46.239   2.165   8.023  0.00  0.00    +0.000 A 
ATOM     29  C   UNL     1      45.532   2.229   9.235  0.00  0.00    +0.000 A 
BRANCH  28  30
ATOM     30  C   UNL     1      46.801   0.904   7.465  0.00  0.00    +0.000 C 
ATOM     31  N   UNL     1      47.583   0.961   6.343  0.00  0.00    +0.000 N 
ATOM     32  O   UNL     1      46.562  -0.192   7.975  0.00  0.00    +0.000 OA
ATOM     33  H   UNL     1      47.861   1.796   5.856  0.00  0.00    +0.000 HD
ATOM     34  H   UNL     1      47.915   0.073   5.984  0.00  0.00    +0.000 HD
ENDBRANCH  28  30
ENDBRANCH  21  24
ENDBRANCH  20  21
ENDBRANCH  19  20
ENDBRANCH   3  19
TORSDOF 9
ENDMDL
MODEL 3
REMARK VINA RESULT:    -6.589      1.869      3.677
REMARK INTER + INTRA:         -11.422
REMARK INTER:                  -9.978
REMARK INTRA:                  -1.444
REMARK UNBOUND:                -1.367
REMARK  Name = 
REMARK  14 active torsions:
REMARK  status: ('A' for Active; 'I' for Inactive)
REMARK    1  A    between atoms: C_1  and  O_2
REMARK    2  A    between atoms: O_2  and  C_3
REMARK    3  A    between atoms: C_5  and  O_6
REMARK    4  A    between atoms: O_6  and  C_7
REMARK    5  A    between atoms: C_7  and  C_8
REMARK    6  A    between atoms: C_8  and  C_9
REMARK    7  A    between atoms: C_8  and  C_10
REMARK    8  A    between atoms: C_8  and  C_11
REMARK    9  A    between atoms: C_15  and  C_16
REMARK   10  A    between atoms: C_21  and  C_22
REMARK   11  A    between atoms: C_22  and  C_23
REMARK   12  A    between atoms: C_22  and  C_24
REMARK   13  A    between atoms: C_25  and  N_26
REMARK   14  A    between atoms: N_26  and  C_27
REMARK                            x       y       z     vdW  Elec       q    Type
REMARK                         _______ _______ _______ _____ _____    ______ ____
ROOT
ATOM      1  C   UNL     1      48.477   6.624  14.968  0.00  0.00    +0.000 A 
ATOM      2  C   UNL     1      47.611   6.215  13.945  0.00  0.00    +0.000 A 
ATOM      3  C   UNL     1      46.923   5.008  14.008  0.00  0.00    +0.000 A 
ATOM      4  C   UNL     1      47.111   4.183  15.111  0.00  0.00    +0.000 A 
ATOM      5  C   UNL     1      48.014   4.525  16.142  0.00  0.00    +0.000 A 
ATOM      6  C   UNL     1      48.677   5.790  16.096  0.00  0.00    +0.000 A 
ENDROOT
BRANCH   5   7
ATOM      7  C   UNL     1      48.324   3.491  17.233  0.00  0.00    +0.000 C 
ATOM      8  C   UNL     1      47.062   2.818  17.773  0.00  0.00    +0.000 C 
ATOM      9  C   UNL     1      49.329   2.413  16.791  0.00  0.00    +0.000 C 
ENDBRANCH   5   7
BRANCH   1  11
ATOM     10  C   UNL     1      50.024   8.025  13.798  0.00  0.00    +0.000 C 
ATOM     11  O   UNL     1      49.149   7.825  14.907  0.00  0.00    +0.000 OA
ENDBRANCH   1  11
BRANCH   6  12
ATOM     12  N   UNL     1      49.572   6.111  17.149  0.00  0.00    +0.000 N 
ATOM     13  H   UNL     1      50.279   5.394  17.285  0.00  0.00    +0.000 HD
BRANCH  12  14
ATOM     14  C   UNL     1      49.381   6.977  18.279  0.00  0.00    +0.000 C 
ATOM     15  C   UNL     1      49.434   6.187  19.604  0.00  0.00    +0.000 C 
ATOM     16  N   UNL     1      48.166   6.802  20.031  0.00  0.00    +0.000 NA
ATOM     17  C   UNL     1      47.920   7.284  18.657  0.00  0.00    +0.000 C 
ATOM     18  H   UNL     1      48.293   7.552  20.711  0.00  0.00    +0.000 HD
ENDBRANCH  12  14
ENDBRANCH   6  12
BRANCH   3  19
ATOM     19  O   UNL     1      46.077   4.530  13.038  0.00  0.00    +0.000 OA
BRANCH  19  20
ATOM     20  C   UNL     1      44.786   5.151  12.985  0.00  0.00    +0.000 C 
BRANCH  20  21
ATOM     21  C   UNL     1      44.354   5.504  11.536  0.00  0.00    +0.000 C 
ATOM     22  C   UNL     1      42.858   5.878  11.509  0.00  0.00    +0.000 C 
ATOM     23  C   UNL     1      45.153   6.750  11.097  0.00  0.00    +0.000 C 
BRANCH  21  24
ATOM     24  C   UNL     1      44.604   4.260  10.647  0.00  0.00    +0.000 A 
ATOM     25  C   UNL     1      43.935   3.044  10.855  0.00  0.00    +0.000 A 
ATOM     26  C   UNL     1      44.101   1.965   9.983  0.00  0.00    +0.000 A 
ATOM     27  C   UNL     1      44.933   2.082   8.873  0.00  0.00    +0.000 A 
ATOM     28  C   UNL     1      45.632   3.270   8.637  0.00  0.00    +0.000 A 
ATOM     29  C   UNL     1      45.481   4.337   9.538  0.00  0.00    +0.000 A 
BRANCH  28  30
ATOM     30  C   UNL     1      46.459   3.348   7.400  0.00  0.00    +0.000 C 
ATOM     31  N   UNL     1      47.159   2.245   6.994  0.00  0.00    +0.000 N 
ATOM     32  O   UNL     1      46.546   4.389   6.745  0.00  0.00    +0.000 OA
ATOM     33  H   UNL     1      47.148   1.340   7.434  0.00  0.00    +0.000 HD
ATOM     34  H   UNL     1      47.732   2.358   6.166  0.00  0.00    +0.000 HD
ENDBRANCH  28  30
ENDBRANCH  21  24
ENDBRANCH  20  21
ENDBRANCH  19  20
ENDBRANCH   3  19
TORSDOF 9
ENDMDL
MODEL 4
REMARK VINA RESULT:    -6.531      3.237      7.661
REMARK INTER + INTRA:         -11.334
REMARK INTER:                  -9.495
REMARK INTRA:                  -1.839
REMARK UNBOUND:                -1.367
REMARK  Name = 
REMARK  14 active torsions:
REMARK  status: ('A' for Active; 'I' for Inactive)
REMARK    1  A    between atoms: C_1  and  O_2
REMARK    2  A    between atoms: O_2  and  C_3
REMARK    3  A    between atoms: C_5  and  O_6
REMARK    4  A    between atoms: O_6  and  C_7
REMARK    5  A    between atoms: C_7  and  C_8
REMARK    6  A    between atoms: C_8  and  C_9
REMARK    7  A    between atoms: C_8  and  C_10
REMARK    8  A    between atoms: C_8  and  C_11
REMARK    9  A    between atoms: C_15  and  C_16
REMARK   10  A    between atoms: C_21  and  C_22
REMARK   11  A    between atoms: C_22  and  C_23
REMARK   12  A    between atoms: C_22  and  C_24
REMARK   13  A    between atoms: C_25  and  N_26
REMARK   14  A    between atoms: N_26  and  C_27
REMARK                            x       y       z     vdW  Elec       q    Type
REMARK                         _______ _______ _______ _____ _____    ______ ____
ROOT
ATOM      1  C   UNL     1      47.707   5.881  13.567  0.00  0.00    +0.000 A 
ATOM      2  C   UNL     1      48.494   6.423  14.591  0.00  0.00    +0.000 A 
ATOM      3  C   UNL     1      48.510   7.789  14.855  0.00  0.00    +0.000 A 
ATOM      4  C   UNL     1      47.732   8.635  14.073  0.00  0.00    +0.000 A 
ATOM      5  C   UNL     1      46.964   8.144  12.995  0.00  0.00    +0.000 A 
ATOM      6  C   UNL     1      46.911   6.735  12.763  0.00  0.00    +0.000 A 
ENDROOT
BRANCH   5   7
ATOM      7  C   UNL     1      46.281   9.142  12.051  0.00  0.00    +0.000 C 
ATOM      8  C   UNL     1      44.881   9.530  12.528  0.00  0.00    +0.000 C 
ATOM      9  C   UNL     1      47.107  10.416  11.802  0.00  0.00    +0.000 C 
ENDBRANCH   5   7
BRANCH   1  11
ATOM     10  C   UNL     1      46.974   3.703  14.237  0.00  0.00    +0.000 C 
ATOM     11  O   UNL     1      47.685   4.526  13.314  0.00  0.00    +0.000 OA
ENDBRANCH   1  11
BRANCH   6  12
ATOM     12  N   UNL     1      46.125   6.268  11.678  0.00  0.00    +0.000 N 
ATOM     13  H   UNL     1      46.254   6.828  10.840  0.00  0.00    +0.000 HD
BRANCH  12  14
ATOM     14  C   UNL     1      44.915   5.494  11.693  0.00  0.00    +0.000 C 
ATOM     15  C   UNL     1      44.691   4.779  10.343  0.00  0.00    +0.000 C 
ATOM     16  N   UNL     1      43.317   5.303  10.283  0.00  0.00    +0.000 NA
ATOM     17  C   UNL     1      43.618   6.259  11.368  0.00  0.00    +0.000 C 
ATOM     18  H   UNL     1      42.612   4.609  10.534  0.00  0.00    +0.000 HD
ENDBRANCH  12  14
ENDBRANCH   6  12
BRANCH   3  19
ATOM     19  O   UNL     1      49.271   8.396  15.824  0.00  0.00    +0.000 OA
BRANCH  19  20
ATOM     20  C   UNL     1      50.254   7.560  16.450  0.00  0.00    +0.000 C 
BRANCH  20  21
ATOM     21  C   UNL     1      49.891   7.213  17.919  0.00  0.00    +0.000 C 
ATOM     22  C   UNL     1      51.167   7.183  18.784  0.00  0.00    +0.000 C 
ATOM     23  C   UNL     1      48.989   8.344  18.461  0.00  0.00    +0.000 C 
BRANCH  21  24
ATOM     24  C   UNL     1      49.213   5.820  17.926  0.00  0.00    +0.000 A 
ATOM     25  C   UNL     1      47.843   5.655  18.182  0.00  0.00    +0.000 A 
ATOM     26  C   UNL     1      47.232   4.402  18.087  0.00  0.00    +0.000 A 
ATOM     27  C   UNL     1      47.977   3.284  17.720  0.00  0.00    +0.000 A 
ATOM     28  C   UNL     1      49.348   3.401  17.471  0.00  0.00    +0.000 A 
ATOM     29  C   UNL     1      49.957   4.659  17.601  0.00  0.00    +0.000 A 
BRANCH  28  30
ATOM     30  C   UNL     1      50.073   2.177  17.027  0.00  0.00    +0.000 C 
ATOM     31  N   UNL     1      51.043   1.646  17.832  0.00  0.00    +0.000 N 
ATOM     32  O   UNL     1      49.835   1.644  15.941  0.00  0.00    +0.000 OA
ATOM     33  H   UNL     1      51.307   1.982  18.743  0.00  0.00    +0.000 HD
ATOM     34  H   UNL     1      51.529   0.834  17.470  0.00  0.00    +0.000 HD
ENDBRANCH  28  30
ENDBRANCH  21  24
ENDBRANCH  20  21
ENDBRANCH  19  20
ENDBRANCH   3  19
TORSDOF 9
ENDMDL
MODEL 5
REMARK VINA RESULT:    -6.427      3.715      7.728
REMARK INTER + INTRA:         -11.176
REMARK INTER:                  -8.991
REMARK INTRA:                  -2.185
REMARK UNBOUND:                -1.367
REMARK  Name = 
REMARK  14 active torsions:
REMARK  status: ('A' for Active; 'I' for Inactive)
REMARK    1  A    between atoms: C_1  and  O_2
REMARK    2  A    between atoms: O_2  and  C_3
REMARK    3  A    between atoms: C_5  and  O_6
REMARK    4  A    between atoms: O_6  and  C_7
REMARK    5  A    between atoms: C_7  and  C_8
REMARK    6  A    between atoms: C_8  and  C_9
REMARK    7  A    between atoms: C_8  and  C_10
REMARK    8  A    between atoms: C_8  and  C_11
REMARK    9  A    between atoms: C_15  and  C_16
REMARK   10  A    between atoms: C_21  and  C_22
REMARK   11  A    between atoms: C_22  and  C_23
REMARK   12  A    between atoms: C_22  and  C_24
REMARK   13  A    between atoms: C_25  and  N_26
REMARK   14  A    between atoms: N_26  and  C_27
REMARK                            x       y       z     vdW  Elec       q    Type
REMARK                         _______ _______ _______ _____ _____    ______ ____
ROOT
ATOM      1  C   UNL     1      45.204   5.752  12.887  0.00  0.00    +0.000 A 
ATOM      2  C   UNL     1      45.643   4.689  13.686  0.00  0.00    +0.000 A 
ATOM      3  C   UNL     1      46.910   4.681  14.260  0.00  0.00    +0.000 A 
ATOM      4  C   UNL     1      47.763   5.753  14.024  0.00  0.00    +0.000 A 
ATOM      5  C   UNL     1      47.387   6.823  13.183  0.00  0.00    +0.000 A 
ATOM      6  C   UNL     1      46.066   6.850  12.639  0.00  0.00    +0.000 A 
ENDROOT
BRANCH   5   7
ATOM      7  C   UNL     1      48.435   7.878  12.805  0.00  0.00    +0.000 C 
ATOM      8  C   UNL     1      49.588   7.937  13.808  0.00  0.00    +0.000 C 
ATOM      9  C   UNL     1      49.001   7.702  11.385  0.00  0.00    +0.000 C 
ENDBRANCH   5   7
BRANCH   1  11
ATOM     10  C   UNL     1      42.919   5.053  13.020  0.00  0.00    +0.000 C 
ATOM     11  O   UNL     1      43.945   5.762  12.327  0.00  0.00    +0.000 OA
ENDBRANCH   1  11
BRANCH   6  12
ATOM     12  N   UNL     1      45.712   7.940  11.803  0.00  0.00    +0.000 N 
ATOM     13  H   UNL     1      46.271   7.974  10.956  0.00  0.00    +0.000 HD
BRANCH  12  14
ATOM     14  C   UNL     1      45.076   9.183  12.143  0.00  0.00    +0.000 C 
ATOM     15  C   UNL     1      44.089   9.626  11.042  0.00  0.00    +0.000 C 
ATOM     16  N   UNL     1      44.707  10.962  11.013  0.00  0.00    +0.000 NA
ATOM     17  C   UNL     1      45.859  10.462  11.792  0.00  0.00    +0.000 C 
ATOM     18  H   UNL     1      44.158  11.668  11.503  0.00  0.00    +0.000 HD
ENDBRANCH  12  14
ENDBRANCH   6  12
BRANCH   3  19
ATOM     19  O   UNL     1      47.419   3.667  15.034  0.00  0.00    +0.000 OA
BRANCH  19  20
ATOM     20  C   UNL     1      47.174   3.784  16.442  0.00  0.00    +0.000 C 
BRANCH  20  21
ATOM     21  C   UNL     1      48.463   3.601  17.287  0.00  0.00    +0.000 C 
ATOM     22  C   UNL     1      48.098   3.126  18.708  0.00  0.00    +0.000 C 
ATOM     23  C   UNL     1      49.305   2.486  16.627  0.00  0.00    +0.000 C 
BRANCH  21  24
ATOM     24  C   UNL     1      49.187   4.968  17.355  0.00  0.00    +0.000 A 
ATOM     25  C   UNL     1      50.573   5.093  17.164  0.00  0.00    +0.000 A 
ATOM     26  C   UNL     1      51.192   6.344  17.131  0.00  0.00    +0.000 A 
ATOM     27  C   UNL     1      50.436   7.505  17.276  0.00  0.00    +0.000 A 
ATOM     28  C   UNL     1      49.056   7.427  17.484  0.00  0.00    +0.000 A 
ATOM     29  C   UNL     1      48.449   6.162  17.547  0.00  0.00    +0.000 A 
BRANCH  28  30
ATOM     30  C   UNL     1      48.300   8.707  17.573  0.00  0.00    +0.000 C 
ATOM     31  N   UNL     1      47.635   9.169  16.470  0.00  0.00    +0.000 N 
ATOM     32  O   UNL     1      48.276   9.373  18.610  0.00  0.00    +0.000 OA
ATOM     33  H   UNL     1      47.567   8.703  15.581  0.00  0.00    +0.000 HD
ATOM     34  H   UNL     1      47.164  10.060  16.572  0.00  0.00    +0.000 HD
ENDBRANCH  28  30
ENDBRANCH  21  24
ENDBRANCH  20  21
ENDBRANCH  19  20
ENDBRANCH   3  19
TORSDOF 9
ENDMDL
MODEL 6
REMARK VINA RESULT:    -6.398      3.295      8.267
REMARK INTER + INTRA:         -11.132
REMARK INTER:                  -8.799
REMARK INTRA:                  -2.332
REMARK UNBOUND:                -1.367
REMARK  Name = 
REMARK  14 active torsions:
REMARK  status: ('A' for Active; 'I' for Inactive)
REMARK    1  A    between atoms: C_1  and  O_2
REMARK    2  A    between atoms: O_2  and  C_3
REMARK    3  A    between atoms: C_5  and  O_6
REMARK    4  A    between atoms: O_6  and  C_7
REMARK    5  A    between atoms: C_7  and  C_8
REMARK    6  A    between atoms: C_8  and  C_9
REMARK    7  A    between atoms: C_8  and  C_10
REMARK    8  A    between atoms: C_8  and  C_11
REMARK    9  A    between atoms: C_15  and  C_16
REMARK   10  A    between atoms: C_21  and  C_22
REMARK   11  A    between atoms: C_22  and  C_23
REMARK   12  A    between atoms: C_22  and  C_24
REMARK   13  A    between atoms: C_25  and  N_26
REMARK   14  A    between atoms: N_26  and  C_27
REMARK                            x       y       z     vdW  Elec       q    Type
REMARK                         _______ _______ _______ _____ _____    ______ ____
ROOT
ATOM      1  C   UNL     1      45.555   8.060  12.137  0.00  0.00    +0.000 A 
ATOM      2  C   UNL     1      46.829   8.638  12.218  0.00  0.00    +0.000 A 
ATOM      3  C   UNL     1      47.910   7.952  12.761  0.00  0.00    +0.000 A 
ATOM      4  C   UNL     1      47.716   6.663  13.244  0.00  0.00    +0.000 A 
ATOM      5  C   UNL     1      46.440   6.057  13.235  0.00  0.00    +0.000 A 
ATOM      6  C   UNL     1      45.345   6.746  12.629  0.00  0.00    +0.000 A 
ENDROOT
BRANCH   5   7
ATOM      7  C   UNL     1      46.248   4.715  13.955  0.00  0.00    +0.000 C 
ATOM      8  C   UNL     1      46.504   3.520  13.035  0.00  0.00    +0.000 C 
ATOM      9  C   UNL     1      47.100   4.572  15.228  0.00  0.00    +0.000 C 
ENDBRANCH   5   7
BRANCH   1  11
ATOM     10  C   UNL     1      44.529  10.164  11.638  0.00  0.00    +0.000 C 
ATOM     11  O   UNL     1      44.487   8.738  11.591  0.00  0.00    +0.000 OA
ENDBRANCH   1  11
BRANCH   6  12
ATOM     12  N   UNL     1      44.077   6.111  12.626  0.00  0.00    +0.000 N 
ATOM     13  H   UNL     1      43.813   5.774  13.548  0.00  0.00    +0.000 HD
BRANCH  12  14
ATOM     14  C   UNL     1      43.371   5.487  11.542  0.00  0.00    +0.000 C 
ATOM     15  C   UNL     1      43.046   4.011  11.862  0.00  0.00    +0.000 C 
ATOM     16  N   UNL     1      43.616   3.597  10.569  0.00  0.00    +0.000 NA
ATOM     17  C   UNL     1      44.239   4.926  10.401  0.00  0.00    +0.000 C 
ATOM     18  H   UNL     1      42.906   3.387   9.867  0.00  0.00    +0.000 HD
ENDBRANCH  12  14
ENDBRANCH   6  12
BRANCH   3  19
ATOM     19  O   UNL     1      49.179   8.459  12.895  0.00  0.00    +0.000 OA
BRANCH  19  20
ATOM     20  C   UNL     1      50.101   7.630  13.614  0.00  0.00    +0.000 C 
BRANCH  20  21
ATOM     21  C   UNL     1      50.619   8.304  14.913  0.00  0.00    +0.000 C 
ATOM     22  C   UNL     1      52.159   8.254  14.955  0.00  0.00    +0.000 C 
ATOM     23  C   UNL     1      50.203   9.792  14.869  0.00  0.00    +0.000 C 
BRANCH  21  24
ATOM     24  C   UNL     1      50.031   7.531  16.120  0.00  0.00    +0.000 A 
ATOM     25  C   UNL     1      48.961   8.029  16.880  0.00  0.00    +0.000 A 
ATOM     26  C   UNL     1      48.381   7.272  17.901  0.00  0.00    +0.000 A 
ATOM     27  C   UNL     1      48.851   5.991  18.178  0.00  0.00    +0.000 A 
ATOM     28  C   UNL     1      49.924   5.461  17.456  0.00  0.00    +0.000 A 
ATOM     29  C   UNL     1      50.520   6.244  16.453  0.00  0.00    +0.000 A 
BRANCH  28  30
ATOM     30  C   UNL     1      50.338   4.064  17.763  0.00  0.00    +0.000 C 
ATOM     31  N   UNL     1      51.014   3.807  18.925  0.00  0.00    +0.000 N 
ATOM     32  O   UNL     1      50.107   3.135  16.987  0.00  0.00    +0.000 OA
ATOM     33  H   UNL     1      51.239   4.479  19.640  0.00  0.00    +0.000 HD
ATOM     34  H   UNL     1      51.302   2.848  19.073  0.00  0.00    +0.000 HD
ENDBRANCH  28  30
ENDBRANCH  21  24
ENDBRANCH  20  21
ENDBRANCH  19  20
ENDBRANCH   3  19
TORSDOF 9
ENDMDL
MODEL 7
REMARK VINA RESULT:    -6.344      2.708      5.136
REMARK INTER + INTRA:         -11.049
REMARK INTER:                  -9.728
REMARK INTRA:                  -1.321
REMARK UNBOUND:                -1.367
REMARK  Name = 
REMARK  14 active torsions:
REMARK  status: ('A' for Active; 'I' for Inactive)
REMARK    1  A    between atoms: C_1  and  O_2
REMARK    2  A    between atoms: O_2  and  C_3
REMARK    3  A    between atoms: C_5  and  O_6
REMARK    4  A    between atoms: O_6  and  C_7
REMARK    5  A    between atoms: C_7  and  C_8
REMARK    6  A    between atoms: C_8  and  C_9
REMARK    7  A    between atoms: C_8  and  C_10
REMARK    8  A    between atoms: C_8  and  C_11
REMARK    9  A    between atoms: C_15  and  C_16
REMARK   10  A    between atoms: C_21  and  C_22
REMARK   11  A    between atoms: C_22  and  C_23
REMARK   12  A    between atoms: C_22  and  C_24
REMARK   13  A    between atoms: C_25  and  N_26
REMARK   14  A    between atoms: N_26  and  C_27
REMARK                            x       y       z     vdW  Elec       q    Type
REMARK                         _______ _______ _______ _____ _____    ______ ____
ROOT
ATOM      1  C   UNL     1      49.689   7.453  17.842  0.00  0.00    +0.000 A 
ATOM      2  C   UNL     1      49.411   7.744  16.500  0.00  0.00    +0.000 A 
ATOM      3  C   UNL     1      48.840   6.802  15.651  0.00  0.00    +0.000 A 
ATOM      4  C   UNL     1      48.548   5.537  16.148  0.00  0.00    +0.000 A 
ATOM      5  C   UNL     1      48.858   5.177  17.478  0.00  0.00    +0.000 A 
ATOM      6  C   UNL     1      49.396   6.165  18.359  0.00  0.00    +0.000 A 
ENDROOT
BRANCH   5   7
ATOM      7  C   UNL     1      48.692   3.715  17.912  0.00  0.00    +0.000 C 
ATOM      8  C   UNL     1      47.339   3.135  17.497  0.00  0.00    +0.000 C 
ATOM      9  C   UNL     1      49.818   2.793  17.413  0.00  0.00    +0.000 C 
ENDBRANCH   5   7
BRANCH   1  11
ATOM     10  C   UNL     1      49.701   9.709  18.641  0.00  0.00    +0.000 C 
ATOM     11  O   UNL     1      50.246   8.391  18.684  0.00  0.00    +0.000 OA
ENDBRANCH   1  11
BRANCH   6  12
ATOM     12  N   UNL     1      49.690   5.780  19.692  0.00  0.00    +0.000 N 
ATOM     13  H   UNL     1      50.279   4.952  19.732  0.00  0.00    +0.000 HD
BRANCH  12  14
ATOM     14  C   UNL     1      48.968   6.052  20.903  0.00  0.00    +0.000 C 
ATOM     15  C   UNL     1      48.805   4.776  21.756  0.00  0.00    +0.000 C 
ATOM     16  N   UNL     1      47.360   5.029  21.874  0.00  0.00    +0.000 NA
ATOM     17  C   UNL     1      47.431   6.033  20.793  0.00  0.00    +0.000 C 
ATOM     18  H   UNL     1      47.094   5.420  22.778  0.00  0.00    +0.000 HD
ENDBRANCH  12  14
ENDBRANCH   6  12
BRANCH   3  19
ATOM     19  O   UNL     1      48.561   7.005  14.322  0.00  0.00    +0.000 OA
BRANCH  19  20
ATOM     20  C   UNL     1      47.403   6.321  13.824  0.00  0.00    +0.000 C 
BRANCH  20  21
ATOM     21  C   UNL     1      46.715   7.085  12.660  0.00  0.00    +0.000 C 
ATOM     22  C   UNL     1      46.134   8.417  13.176  0.00  0.00    +0.000 C 
ATOM     23  C   UNL     1      47.801   7.426  11.615  0.00  0.00    +0.000 C 
BRANCH  21  24
ATOM     24  C   UNL     1      45.579   6.190  12.106  0.00  0.00    +0.000 A 
ATOM     25  C   UNL     1      44.319   6.113  12.721  0.00  0.00    +0.000 A 
ATOM     26  C   UNL     1      43.277   5.378  12.151  0.00  0.00    +0.000 A 
ATOM     27  C   UNL     1      43.468   4.710  10.944  0.00  0.00    +0.000 A 
ATOM     28  C   UNL     1      44.712   4.746  10.306  0.00  0.00    +0.000 A 
ATOM     29  C   UNL     1      45.761   5.463  10.904  0.00  0.00    +0.000 A 
BRANCH  28  30
ATOM     30  C   UNL     1      44.831   4.059   8.990  0.00  0.00    +0.000 C 
ATOM     31  N   UNL     1      44.281   2.815   8.833  0.00  0.00    +0.000 N 
ATOM     32  O   UNL     1      45.431   4.573   8.044  0.00  0.00    +0.000 OA
ATOM     33  H   UNL     1      43.753   2.309   9.525  0.00  0.00    +0.000 HD
ATOM     34  H   UNL     1      44.417   2.377   7.930  0.00  0.00    +0.000 HD
ENDBRANCH  28  30
ENDBRANCH  21  24
ENDBRANCH  20  21
ENDBRANCH  19  20
ENDBRANCH   3  19
TORSDOF 9
ENDMDL
MODEL 8
REMARK VINA RESULT:    -6.287      3.221      7.921
REMARK INTER + INTRA:         -10.962
REMARK INTER:                  -8.924
REMARK INTRA:                  -2.038
REMARK UNBOUND:                -1.367
REMARK  Name = 
REMARK  14 active torsions:
REMARK  status: ('A' for Active; 'I' for Inactive)
REMARK    1  A    between atoms: C_1  and  O_2
REMARK    2  A    between atoms: O_2  and  C_3
REMARK    3  A    between atoms: C_5  and  O_6
REMARK    4  A    between atoms: O_6  and  C_7
REMARK    5  A    between atoms: C_7  and  C_8
REMARK    6  A    between atoms: C_8  and  C_9
REMARK    7  A    between atoms: C_8  and  C_10
REMARK    8  A    between atoms: C_8  and  C_11
REMARK    9  A    between atoms: C_15  and  C_16
REMARK   10  A    between atoms: C_21  and  C_22
REMARK   11  A    between atoms: C_22  and  C_23
REMARK   12  A    between atoms: C_22  and  C_24
REMARK   13  A    between atoms: C_25  and  N_26
REMARK   14  A    between atoms: N_26  and  C_27
REMARK                            x       y       z     vdW  Elec       q    Type
REMARK                         _______ _______ _______ _____ _____    ______ ____
ROOT
ATOM      1  C   UNL     1      47.423   6.880  13.448  0.00  0.00    +0.000 A 
ATOM      2  C   UNL     1      47.786   5.820  14.289  0.00  0.00    +0.000 A 
ATOM      3  C   UNL     1      47.027   4.658  14.370  0.00  0.00    +0.000 A 
ATOM      4  C   UNL     1      45.872   4.554  13.603  0.00  0.00    +0.000 A 
ATOM      5  C   UNL     1      45.435   5.615  12.780  0.00  0.00    +0.000 A 
ATOM      6  C   UNL     1      46.247   6.785  12.662  0.00  0.00    +0.000 A 
ENDROOT
BRANCH   5   7
ATOM      7  C   UNL     1      44.058   5.519  12.109  0.00  0.00    +0.000 C 
ATOM      8  C   UNL     1      44.084   4.651  10.850  0.00  0.00    +0.000 C 
ATOM      9  C   UNL     1      42.948   5.021  13.050  0.00  0.00    +0.000 C 
ENDBRANCH   5   7
BRANCH   1  11
ATOM     10  C   UNL     1      49.601   7.875  13.428  0.00  0.00    +0.000 C 
ATOM     11  O   UNL     1      48.183   8.027  13.362  0.00  0.00    +0.000 OA
ENDBRANCH   1  11
BRANCH   6  12
ATOM     12  N   UNL     1      45.789   7.832  11.823  0.00  0.00    +0.000 N 
ATOM     13  H   UNL     1      46.319   7.894  10.958  0.00  0.00    +0.000 HD
BRANCH  12  14
ATOM     14  C   UNL     1      45.072   9.030  12.165  0.00  0.00    +0.000 C 
ATOM     15  C   UNL     1      44.091   9.434  11.043  0.00  0.00    +0.000 C 
ATOM     16  N   UNL     1      44.631  10.804  11.054  0.00  0.00    +0.000 NA
ATOM     17  C   UNL     1      45.788  10.358  11.857  0.00  0.00    +0.000 C 
ATOM     18  H   UNL     1      44.028  11.469  11.540  0.00  0.00    +0.000 HD
ENDBRANCH  12  14
ENDBRANCH   6  12
BRANCH   3  19
ATOM     19  O   UNL     1      47.305   3.590  15.186  0.00  0.00    +0.000 OA
BRANCH  19  20
ATOM     20  C   UNL     1      47.181   3.838  16.593  0.00  0.00    +0.000 C 
BRANCH  20  21
ATOM     21  C   UNL     1      48.524   3.657  17.349  0.00  0.00    +0.000 C 
ATOM     22  C   UNL     1      48.255   3.213  18.801  0.00  0.00    +0.000 C 
ATOM     23  C   UNL     1      49.307   2.521  16.654  0.00  0.00    +0.000 C 
BRANCH  21  24
ATOM     24  C   UNL     1      49.265   5.018  17.340  0.00  0.00    +0.000 A 
ATOM     25  C   UNL     1      50.648   5.116  17.121  0.00  0.00    +0.000 A 
ATOM     26  C   UNL     1      51.281   6.357  17.019  0.00  0.00    +0.000 A 
ATOM     27  C   UNL     1      50.540   7.532  17.120  0.00  0.00    +0.000 A 
ATOM     28  C   UNL     1      49.162   7.481  17.353  0.00  0.00    +0.000 A 
ATOM     29  C   UNL     1      48.543   6.228  17.486  0.00  0.00    +0.000 A 
BRANCH  28  30
ATOM     30  C   UNL     1      48.422   8.773  17.392  0.00  0.00    +0.000 C 
ATOM     31  N   UNL     1      47.755   9.195  16.274  0.00  0.00    +0.000 N 
ATOM     32  O   UNL     1      48.413   9.482  18.400  0.00  0.00    +0.000 OA
ATOM     33  H   UNL     1      47.676   8.693  15.406  0.00  0.00    +0.000 HD
ATOM     34  H   UNL     1      47.295  10.095  16.341  0.00  0.00    +0.000 HD
ENDBRANCH  28  30
ENDBRANCH  21  24
ENDBRANCH  20  21
ENDBRANCH  19  20
ENDBRANCH   3  19
TORSDOF 9
ENDMDL
MODEL 9
REMARK VINA RESULT:    -6.285      3.685      6.013
REMARK INTER + INTRA:         -10.958
REMARK INTER:                  -9.087
REMARK INTRA:                  -1.871
REMARK UNBOUND:                -1.367
REMARK  Name = 
REMARK  14 active torsions:
REMARK  status: ('A' for Active; 'I' for Inactive)
REMARK    1  A    between atoms: C_1  and  O_2
REMARK    2  A    between atoms: O_2  and  C_3
REMARK    3  A    between atoms: C_5  and  O_6
REMARK    4  A    between atoms: O_6  and  C_7
REMARK    5  A    between atoms: C_7  and  C_8
REMARK    6  A    between atoms: C_8  and  C_9
REMARK    7  A    between atoms: C_8  and  C_10
REMARK    8  A    between atoms: C_8  and  C_11
REMARK    9  A    between atoms: C_15  and  C_16
REMARK   10  A    between atoms: C_21  and  C_22
REMARK   11  A    between atoms: C_22  and  C_23
REMARK   12  A    between atoms: C_22  and  C_24
REMARK   13  A    between atoms: C_25  and  N_26
REMARK   14  A    between atoms: N_26  and  C_27
REMARK                            x       y       z     vdW  Elec       q    Type
REMARK                         _______ _______ _______ _____ _____    ______ ____
ROOT
ATOM      1  C   UNL     1      48.168   7.309  18.806  0.00  0.00    +0.000 A 
ATOM      2  C   UNL     1      48.492   8.001  17.631  0.00  0.00    +0.000 A 
ATOM      3  C   UNL     1      48.774   7.333  16.444  0.00  0.00    +0.000 A 
ATOM      4  C   UNL     1      48.743   5.943  16.429  0.00  0.00    +0.000 A 
ATOM      5  C   UNL     1      48.475   5.199  17.599  0.00  0.00    +0.000 A 
ATOM      6  C   UNL     1      48.135   5.892  18.802  0.00  0.00    +0.000 A 
ENDROOT
BRANCH   5   7
ATOM      7  C   UNL     1      48.645   3.675  17.568  0.00  0.00    +0.000 C 
ATOM      8  C   UNL     1      47.877   3.028  16.414  0.00  0.00    +0.000 C 
ATOM      9  C   UNL     1      50.114   3.220  17.523  0.00  0.00    +0.000 C 
ENDBRANCH   5   7
BRANCH   1  11
ATOM     10  C   UNL     1      48.186   9.366  20.030  0.00  0.00    +0.000 C 
ATOM     11  O   UNL     1      47.879   7.973  19.978  0.00  0.00    +0.000 OA
ENDBRANCH   1  11
BRANCH   6  12
ATOM     12  N   UNL     1      47.863   5.120  19.961  0.00  0.00    +0.000 N 
ATOM     13  H   UNL     1      46.899   5.215  20.270  0.00  0.00    +0.000 HD
BRANCH  12  14
ATOM     14  C   UNL     1      48.764   4.639  20.971  0.00  0.00    +0.000 C 
ATOM     15  C   UNL     1      48.709   5.523  22.236  0.00  0.00    +0.000 C 
ATOM     16  N   UNL     1      50.177   5.640  22.227  0.00  0.00    +0.000 NA
ATOM     17  C   UNL     1      50.227   5.105  20.851  0.00  0.00    +0.000 C 
ATOM     18  H   UNL     1      50.631   5.039  22.915  0.00  0.00    +0.000 HD
ENDBRANCH  12  14
ENDBRANCH   6  12
BRANCH   3  19
ATOM     19  O   UNL     1      49.120   7.939  15.262  0.00  0.00    +0.000 OA
BRANCH  19  20
ATOM     20  C   UNL     1      49.109   7.089  14.107  0.00  0.00    +0.000 C 
BRANCH  20  21
ATOM     21  C   UNL     1      48.089   7.557  13.034  0.00  0.00    +0.000 C 
ATOM     22  C   UNL     1      47.427   8.877  13.478  0.00  0.00    +0.000 C 
ATOM     23  C   UNL     1      48.871   7.843  11.733  0.00  0.00    +0.000 C 
BRANCH  21  24
ATOM     24  C   UNL     1      47.015   6.450  12.883  0.00  0.00    +0.000 A 
ATOM     25  C   UNL     1      47.171   5.173  13.445  0.00  0.00    +0.000 A 
ATOM     26  C   UNL     1      46.150   4.222  13.381  0.00  0.00    +0.000 A 
ATOM     27  C   UNL     1      44.940   4.532  12.765  0.00  0.00    +0.000 A 
ATOM     28  C   UNL     1      44.748   5.786  12.179  0.00  0.00    +0.000 A 
ATOM     29  C   UNL     1      45.793   6.723  12.221  0.00  0.00    +0.000 A 
BRANCH  28  30
ATOM     30  C   UNL     1      43.411   6.072  11.588  0.00  0.00    +0.000 C 
ATOM     31  N   UNL     1      43.144   7.326  11.112  0.00  0.00    +0.000 N 
ATOM     32  O   UNL     1      42.530   5.211  11.536  0.00  0.00    +0.000 OA
ATOM     33  H   UNL     1      43.789   8.098  11.082  0.00  0.00    +0.000 HD
ATOM     34  H   UNL     1      42.210   7.479  10.749  0.00  0.00    +0.000 HD
ENDBRANCH  28  30
ENDBRANCH  21  24
ENDBRANCH  20  21
ENDBRANCH  19  20
ENDBRANCH   3  19
TORSDOF 9
ENDMDL
