MODEL 1
REMARK VINA RESULT:    -8.249      0.000      0.000
REMARK INTER + INTRA:         -12.883
REMARK INTER:                 -11.866
REMARK INTRA:                  -1.017
REMARK UNBOUND:                -1.017
REMARK  Name = 
REMARK  9 active torsions:
REMARK  status: ('A' for Active; 'I' for Inactive)
REMARK    1  A    between atoms: C_1  and  C_2
REMARK    2  A    between atoms: C_4  and  C_5
REMARK    3  A    between atoms: C_5  and  N_6
REMARK    4  A    between atoms: N_6  and  C_7
REMARK    5  A    between atoms: C_7  and  C_8
REMARK    6  A    between atoms: C_16  and  C_17
REMARK    7  A    between atoms: C_17  and  N_18
REMARK    8  A    between atoms: C_19  and  C_21
REMARK    9  A    between atoms: C_28  and  O_29
REMARK                            x       y       z     vdW  Elec       q    Type
REMARK                         _______ _______ _______ _____ _____    ______ ____
ROOT
ATOM      1  C   UNL     1      45.053   9.473  12.122  0.00  0.00    +0.000 C 
ATOM      2  C   UNL     1      45.280   7.986  12.089  0.00  0.00    +0.000 A 
ATOM      3  C   UNL     1      44.311   7.179  11.457  0.00  0.00    +0.000 A 
ATOM      4  C   UNL     1      44.448   5.787  11.385  0.00  0.00    +0.000 A 
ATOM      5  C   UNL     1      45.573   5.197  11.968  0.00  0.00    +0.000 A 
ATOM      6  C   UNL     1      46.531   5.980  12.617  0.00  0.00    +0.000 A 
ATOM      7  C   UNL     1      46.406   7.379  12.683  0.00  0.00    +0.000 A 
ENDROOT
BRANCH   4   8
ATOM      8  C   UNL     1      43.405   4.941  10.689  0.00  0.00    +0.000 C 
BRANCH   8   9
ATOM      9  N   UNL     1      43.913   4.446   9.413  0.00  0.00    +0.000 NA
ATOM     10  H   UNL     1      44.714   5.008   9.133  0.00  0.00    +0.000 HD
BRANCH   9  11
ATOM     11  C   UNL     1      44.320   3.046   9.491  0.00  0.00    +0.000 C 
BRANCH  11  12
ATOM     12  C   UNL     1      45.422   2.765   8.494  0.00  0.00    +0.000 A 
ATOM     13  C   UNL     1      45.928   3.778   7.669  0.00  0.00    +0.000 A 
ATOM     14  C   UNL     1      46.939   3.496   6.747  0.00  0.00    +0.000 A 
ATOM     15  C   UNL     1      47.457   2.207   6.642  0.00  0.00    +0.000 A 
ATOM     16  C   UNL     1      46.966   1.192   7.463  0.00  0.00    +0.000 A 
ATOM     17  C   UNL     1      45.957   1.472   8.386  0.00  0.00    +0.000 A 
ENDBRANCH  11  12
ENDBRANCH   9  11
ENDBRANCH   8   9
ENDBRANCH   4   8
BRANCH   7  18
ATOM     18  C   UNL     1      47.474   8.153  13.427  0.00  0.00    +0.000 C 
BRANCH  18  19
ATOM     19  N   UNL     1      47.815   7.514  14.672  0.00  0.00    +0.000 N 
ATOM     20  C   UNL     1      49.101   7.141  14.970  0.00  0.00    +0.000 C 
ATOM     21  O   UNL     1      50.042   7.379  14.216  0.00  0.00    +0.000 OA
ATOM     22  H   UNL     1      47.064   7.092  15.208  0.00  0.00    +0.000 HD
BRANCH  20  23
ATOM     23  C   UNL     1      49.301   6.510  16.283  0.00  0.00    +0.000 A 
ATOM     24  C   UNL     1      50.112   7.134  17.222  0.00  0.00    +0.000 A 
ATOM     25  S   UNL     1      50.128   6.355  18.735  0.00  0.00    +0.000 S 
ATOM     26  C   UNL     1      49.106   5.122  18.167  0.00  0.00    +0.000 A 
ATOM     27  N   UNL     1      48.729   4.129  19.001  0.00  0.00    +0.000 NA
ATOM     28  C   UNL     1      47.949   3.191  18.437  0.00  0.00    +0.000 A 
ATOM     29  C   UNL     1      47.551   3.175  17.117  0.00  0.00    +0.000 A 
ATOM     30  C   UNL     1      47.958   4.225  16.300  0.00  0.00    +0.000 A 
ATOM     31  C   UNL     1      48.753   5.274  16.826  0.00  0.00    +0.000 A 
BRANCH  30  32
ATOM     32  O   UNL     1      47.581   4.231  14.980  0.00  0.00    +0.000 OA
ATOM     33  H   UNL     1      47.110   5.059  14.778  0.00  0.00    +0.000 HD
ENDBRANCH  30  32
ENDBRANCH  20  23
ENDBRANCH  18  19
ENDBRANCH   7  18
TORSDOF 8
ENDMDL
MODEL 2
REMARK VINA RESULT:    -8.241      2.197      2.849
REMARK INTER + INTRA:         -12.872
REMARK INTER:                 -11.658
REMARK INTRA:                  -1.215
REMARK UNBOUND:                -1.017
REMARK  Name = 
REMARK  9 active torsions:
REMARK  status: ('A' for Active; 'I' for Inactive)
REMARK    1  A    between atoms: C_1  and  C_2
REMARK    2  A    between atoms: C_4  and  C_5
REMARK    3  A    between atoms: C_5  and  N_6
REMARK    4  A    between atoms: N_6  and  C_7
REMARK    5  A    between atoms: C_7  and  C_8
REMARK    6  A    between atoms: C_16  and  C_17
REMARK    7  A    between atoms: C_17  and  N_18
REMARK    8  A    between atoms: C_19  and  C_21
REMARK    9  A    between atoms: C_28  and  O_29
REMARK                            x       y       z     vdW  Elec       q    Type
REMARK                         _______ _______ _______ _____ _____    ______ ____
ROOT
ATOM      1  C   UNL     1      45.869   7.671  12.906  0.00  0.00    +0.000 C 
ATOM      2  C   UNL     1      45.922   6.168  12.947  0.00  0.00    +0.000 A 
ATOM      3  C   UNL     1      44.874   5.449  12.337  0.00  0.00    +0.000 A 
ATOM      4  C   UNL     1      44.849   4.048  12.334  0.00  0.00    +0.000 A 
ATOM      5  C   UNL     1      45.890   3.361  12.964  0.00  0.00    +0.000 A 
ATOM      6  C   UNL     1      46.924   4.059  13.592  0.00  0.00    +0.000 A 
ATOM      7  C   UNL     1      46.963   5.466  13.590  0.00  0.00    +0.000 A 
ENDROOT
BRANCH   4   8
ATOM      8  C   UNL     1      43.723   3.295  11.660  0.00  0.00    +0.000 C 
BRANCH   8   9
ATOM      9  N   UNL     1      44.223   2.539  10.516  0.00  0.00    +0.000 NA
ATOM     10  H   UNL     1      43.582   1.774  10.316  0.00  0.00    +0.000 HD
BRANCH   9  11
ATOM     11  C   UNL     1      44.353   3.371   9.323  0.00  0.00    +0.000 C 
BRANCH  11  12
ATOM     12  C   UNL     1      45.445   2.832   8.426  0.00  0.00    +0.000 A 
ATOM     13  C   UNL     1      46.123   3.667   7.528  0.00  0.00    +0.000 A 
ATOM     14  C   UNL     1      47.123   3.148   6.701  0.00  0.00    +0.000 A 
ATOM     15  C   UNL     1      47.457   1.796   6.764  0.00  0.00    +0.000 A 
ATOM     16  C   UNL     1      46.793   0.957   7.658  0.00  0.00    +0.000 A 
ATOM     17  C   UNL     1      45.796   1.474   8.486  0.00  0.00    +0.000 A 
ENDBRANCH  11  12
ENDBRANCH   9  11
ENDBRANCH   8   9
ENDBRANCH   4   8
BRANCH   7  18
ATOM     18  C   UNL     1      48.104   6.146  14.315  0.00  0.00    +0.000 C 
BRANCH  18  19
ATOM     19  N   UNL     1      47.893   6.151  15.741  0.00  0.00    +0.000 N 
ATOM     20  C   UNL     1      48.897   5.849  16.625  0.00  0.00    +0.000 C 
ATOM     21  O   UNL     1      50.044   5.611  16.255  0.00  0.00    +0.000 OA
ATOM     22  H   UNL     1      46.937   6.107  16.077  0.00  0.00    +0.000 HD
BRANCH  20  23
ATOM     23  C   UNL     1      48.538   5.907  18.050  0.00  0.00    +0.000 A 
ATOM     24  C   UNL     1      48.679   4.770  18.835  0.00  0.00    +0.000 A 
ATOM     25  S   UNL     1      48.361   5.038  20.485  0.00  0.00    +0.000 S 
ATOM     26  C   UNL     1      47.960   6.663  20.196  0.00  0.00    +0.000 A 
ATOM     27  N   UNL     1      47.597   7.455  21.228  0.00  0.00    +0.000 NA
ATOM     28  C   UNL     1      47.268   8.711  20.880  0.00  0.00    +0.000 A 
ATOM     29  C   UNL     1      47.258   9.203  19.592  0.00  0.00    +0.000 A 
ATOM     30  C   UNL     1      47.648   8.350  18.565  0.00  0.00    +0.000 A 
ATOM     31  C   UNL     1      48.044   7.019  18.850  0.00  0.00    +0.000 A 
BRANCH  30  32
ATOM     32  O   UNL     1      47.642   8.813  17.272  0.00  0.00    +0.000 OA
ATOM     33  H   UNL     1      48.554   8.845  16.932  0.00  0.00    +0.000 HD
ENDBRANCH  30  32
ENDBRANCH  20  23
ENDBRANCH  18  19
ENDBRANCH   7  18
TORSDOF 8
ENDMDL
MODEL 3
REMARK VINA RESULT:    -8.182      1.987      2.754
REMARK INTER + INTRA:         -12.786
REMARK INTER:                 -11.507
REMARK INTRA:                  -1.280
REMARK UNBOUND:                -1.017
REMARK  Name = 
REMARK  9 active torsions:
REMARK  status: ('A' for Active; 'I' for Inactive)
REMARK    1  A    between atoms: C_1  and  C_2
REMARK    2  A    between atoms: C_4  and  C_5
REMARK    3  A    between atoms: C_5  and  N_6
REMARK    4  A    between atoms: N_6  and  C_7
REMARK    5  A    between atoms: C_7  and  C_8
REMARK    6  A    between atoms: C_16  and  C_17
REMARK    7  A    between atoms: C_17  and  N_18
REMARK    8  A    between atoms: C_19  and  C_21
REMARK    9  A    between atoms: C_28  and  O_29
REMARK                            x       y       z     vdW  Elec       q    Type
REMARK                         _______ _______ _______ _____ _____    ______ ____
ROOT
ATOM      1  C   UNL     1      46.942   4.183  14.515  0.00  0.00    +0.000 C 
ATOM      2  C   UNL     1      46.486   4.978  13.322  0.00  0.00    +0.000 A 
ATOM      3  C   UNL     1      45.329   4.550  12.640  0.00  0.00    +0.000 A 
ATOM      4  C   UNL     1      44.841   5.234  11.519  0.00  0.00    +0.000 A 
ATOM      5  C   UNL     1      45.535   6.361  11.072  0.00  0.00    +0.000 A 
ATOM      6  C   UNL     1      46.695   6.786  11.723  0.00  0.00    +0.000 A 
ATOM      7  C   UNL     1      47.185   6.111  12.856  0.00  0.00    +0.000 A 
ENDROOT
BRANCH   4   8
ATOM      8  C   UNL     1      43.588   4.766  10.812  0.00  0.00    +0.000 C 
BRANCH   8   9
ATOM      9  N   UNL     1      43.902   4.302   9.464  0.00  0.00    +0.000 NA
ATOM     10  H   UNL     1      44.644   4.882   9.076  0.00  0.00    +0.000 HD
BRANCH   9  11
ATOM     11  C   UNL     1      44.335   2.908   9.451  0.00  0.00    +0.000 C 
BRANCH  11  12
ATOM     12  C   UNL     1      45.456   2.717   8.454  0.00  0.00    +0.000 A 
ATOM     13  C   UNL     1      46.080   1.473   8.293  0.00  0.00    +0.000 A 
ATOM     14  C   UNL     1      47.120   1.320   7.374  0.00  0.00    +0.000 A 
ATOM     15  C   UNL     1      47.546   2.402   6.605  0.00  0.00    +0.000 A 
ATOM     16  C   UNL     1      46.928   3.644   6.752  0.00  0.00    +0.000 A 
ATOM     17  C   UNL     1      45.887   3.798   7.668  0.00  0.00    +0.000 A 
ENDBRANCH  11  12
ENDBRANCH   9  11
ENDBRANCH   8   9
ENDBRANCH   4   8
BRANCH   7  18
ATOM     18  C   UNL     1      48.463   6.620  13.489  0.00  0.00    +0.000 C 
BRANCH  18  19
ATOM     19  N   UNL     1      48.205   7.265  14.751  0.00  0.00    +0.000 N 
ATOM     20  C   UNL     1      48.914   6.958  15.883  0.00  0.00    +0.000 C 
ATOM     21  O   UNL     1      49.846   6.156  15.874  0.00  0.00    +0.000 OA
ATOM     22  H   UNL     1      47.317   7.744  14.864  0.00  0.00    +0.000 HD
BRANCH  20  23
ATOM     23  C   UNL     1      48.549   7.706  17.095  0.00  0.00    +0.000 A 
ATOM     24  C   UNL     1      48.424   9.087  17.031  0.00  0.00    +0.000 A 
ATOM     25  S   UNL     1      47.859   9.788  18.476  0.00  0.00    +0.000 S 
ATOM     26  C   UNL     1      47.828   8.279  19.255  0.00  0.00    +0.000 A 
ATOM     27  N   UNL     1      47.419   8.198  20.540  0.00  0.00    +0.000 NA
ATOM     28  C   UNL     1      47.468   6.962  21.065  0.00  0.00    +0.000 A 
ATOM     29  C   UNL     1      47.910   5.834  20.407  0.00  0.00    +0.000 A 
ATOM     30  C   UNL     1      48.312   5.967  19.082  0.00  0.00    +0.000 A 
ATOM     31  C   UNL     1      48.258   7.231  18.441  0.00  0.00    +0.000 A 
BRANCH  30  32
ATOM     32  O   UNL     1      48.761   4.861  18.404  0.00  0.00    +0.000 OA
ATOM     33  H   UNL     1      49.516   4.470  18.880  0.00  0.00    +0.000 HD
ENDBRANCH  30  32
ENDBRANCH  20  23
ENDBRANCH  18  19
ENDBRANCH   7  18
TORSDOF 8
ENDMDL
MODEL 4
REMARK VINA RESULT:    -8.118      2.187      3.406
REMARK INTER + INTRA:         -12.695
REMARK INTER:                 -11.569
REMARK INTRA:                  -1.127
REMARK UNBOUND:                -1.017
REMARK  Name = 
REMARK  9 active torsions:
REMARK  status: ('A' for Active; 'I' for Inactive)
REMARK    1  A    between atoms: C_1  and  C_2
REMARK    2  A    between atoms: C_4  and  C_5
REMARK    3  A    between atoms: C_5  and  N_6
REMARK    4  A    between atoms: N_6  and  C_7
REMARK    5  A    between atoms: C_7  and  C_8
REMARK    6  A    between atoms: C_16  and  C_17
REMARK    7  A    between atoms: C_17  and  N_18
REMARK    8  A    between atoms: C_19  and  C_21
REMARK    9  A    between atoms: C_28  and  O_29
REMARK                            x       y       z     vdW  Elec       q    Type
REMARK                         _______ _______ _______ _____ _____    ______ ____
ROOT
ATOM      1  C   UNL     1      46.972   3.990  14.320  0.00  0.00    +0.000 C 
ATOM      2  C   UNL     1      46.458   4.920  13.254  0.00  0.00    +0.000 A 
ATOM      3  C   UNL     1      45.332   4.518  12.508  0.00  0.00    +0.000 A 
ATOM      4  C   UNL     1      44.794   5.325  11.497  0.00  0.00    +0.000 A 
ATOM      5  C   UNL     1      45.407   6.552  11.227  0.00  0.00    +0.000 A 
ATOM      6  C   UNL     1      46.537   6.955  11.943  0.00  0.00    +0.000 A 
ATOM      7  C   UNL     1      47.076   6.155  12.967  0.00  0.00    +0.000 A 
ENDROOT
BRANCH   4   8
ATOM      8  C   UNL     1      43.575   4.882  10.718  0.00  0.00    +0.000 C 
BRANCH   8   9
ATOM      9  N   UNL     1      43.960   4.383   9.402  0.00  0.00    +0.000 NA
ATOM     10  H   UNL     1      44.744   4.931   9.054  0.00  0.00    +0.000 HD
BRANCH   9  11
ATOM     11  C   UNL     1      44.347   2.975   9.441  0.00  0.00    +0.000 C 
BRANCH  11  12
ATOM     12  C   UNL     1      45.455   2.710   8.446  0.00  0.00    +0.000 A 
ATOM     13  C   UNL     1      46.029   1.438   8.324  0.00  0.00    +0.000 A 
ATOM     14  C   UNL     1      47.058   1.215   7.405  0.00  0.00    +0.000 A 
ATOM     15  C   UNL     1      47.520   2.254   6.600  0.00  0.00    +0.000 A 
ATOM     16  C   UNL     1      46.951   3.523   6.707  0.00  0.00    +0.000 A 
ATOM     17  C   UNL     1      45.922   3.747   7.623  0.00  0.00    +0.000 A 
ENDBRANCH  11  12
ENDBRANCH   9  11
ENDBRANCH   8   9
ENDBRANCH   4   8
BRANCH   7  18
ATOM     18  C   UNL     1      48.317   6.652  13.677  0.00  0.00    +0.000 C 
BRANCH  18  19
ATOM     19  N   UNL     1      48.037   6.996  15.048  0.00  0.00    +0.000 N 
ATOM     20  C   UNL     1      48.899   6.684  16.067  0.00  0.00    +0.000 C 
ATOM     21  O   UNL     1      49.984   6.143  15.864  0.00  0.00    +0.000 OA
ATOM     22  H   UNL     1      47.078   7.221  15.292  0.00  0.00    +0.000 HD
BRANCH  20  23
ATOM     23  C   UNL     1      48.487   7.110  17.413  0.00  0.00    +0.000 A 
ATOM     24  C   UNL     1      48.405   6.168  18.430  0.00  0.00    +0.000 A 
ATOM     25  S   UNL     1      48.055   6.841  19.954  0.00  0.00    +0.000 S 
ATOM     26  C   UNL     1      47.935   8.402  19.295  0.00  0.00    +0.000 A 
ATOM     27  N   UNL     1      47.656   9.449  20.101  0.00  0.00    +0.000 NA
ATOM     28  C   UNL     1      47.550  10.629  19.468  0.00  0.00    +0.000 A 
ATOM     29  C   UNL     1      47.682  10.818  18.109  0.00  0.00    +0.000 A 
ATOM     30  C   UNL     1      47.978   9.710  17.322  0.00  0.00    +0.000 A 
ATOM     31  C   UNL     1      48.141   8.433  17.915  0.00  0.00    +0.000 A 
BRANCH  30  32
ATOM     32  O   UNL     1      48.109   9.869  15.964  0.00  0.00    +0.000 OA
ATOM     33  H   UNL     1      48.956   9.490  15.670  0.00  0.00    +0.000 HD
ENDBRANCH  30  32
ENDBRANCH  20  23
ENDBRANCH  18  19
ENDBRANCH   7  18
TORSDOF 8
ENDMDL
MODEL 5
REMARK VINA RESULT:    -7.702      2.279      3.652
REMARK INTER + INTRA:         -12.097
REMARK INTER:                 -10.993
REMARK INTRA:                  -1.104
REMARK UNBOUND:                -1.017
REMARK  Name = 
REMARK  9 active torsions:
REMARK  status: ('A' for Active; 'I' for Inactive)
REMARK    1  A    between atoms: C_1  and  C_2
REMARK    2  A    between atoms: C_4  and  C_5
REMARK    3  A    between atoms: C_5  and  N_6
REMARK    4  A    between atoms: N_6  and  C_7
REMARK    5  A    between atoms: C_7  and  C_8
REMARK    6  A    between atoms: C_16  and  C_17
REMARK    7  A    between atoms: C_17  and  N_18
REMARK    8  A    between atoms: C_19  and  C_21
REMARK    9  A    between atoms: C_28  and  O_29
REMARK                            x       y       z     vdW  Elec       q    Type
REMARK                         _______ _______ _______ _____ _____    ______ ____
ROOT
ATOM      1  C   UNL     1      43.377   2.478  11.946  0.00  0.00    +0.000 C 
ATOM      2  C   UNL     1      44.135   3.437  11.068  0.00  0.00    +0.000 A 
ATOM      3  C   UNL     1      44.416   3.044   9.743  0.00  0.00    +0.000 A 
ATOM      4  C   UNL     1      45.118   3.878   8.863  0.00  0.00    +0.000 A 
ATOM      5  C   UNL     1      45.553   5.122   9.328  0.00  0.00    +0.000 A 
ATOM      6  C   UNL     1      45.302   5.517  10.644  0.00  0.00    +0.000 A 
ATOM      7  C   UNL     1      44.588   4.690  11.530  0.00  0.00    +0.000 A 
ENDROOT
BRANCH   4   8
ATOM      8  C   UNL     1      45.395   3.444   7.440  0.00  0.00    +0.000 C 
BRANCH   8   9
ATOM      9  N   UNL     1      46.671   3.983   6.978  0.00  0.00    +0.000 NA
ATOM     10  H   UNL     1      46.975   4.714   7.618  0.00  0.00    +0.000 HD
BRANCH   9  11
ATOM     11  C   UNL     1      47.706   2.955   6.908  0.00  0.00    +0.000 C 
BRANCH  11  12
ATOM     12  C   UNL     1      47.352   1.927   5.856  0.00  0.00    +0.000 A 
ATOM     13  C   UNL     1      46.998   2.313   4.557  0.00  0.00    +0.000 A 
ATOM     14  C   UNL     1      46.665   1.348   3.602  0.00  0.00    +0.000 A 
ATOM     15  C   UNL     1      46.685  -0.005   3.933  0.00  0.00    +0.000 A 
ATOM     16  C   UNL     1      47.042  -0.401   5.221  0.00  0.00    +0.000 A 
ATOM     17  C   UNL     1      47.377   0.561   6.175  0.00  0.00    +0.000 A 
ENDBRANCH  11  12
ENDBRANCH   9  11
ENDBRANCH   8   9
ENDBRANCH   4   8
BRANCH   7  18
ATOM     18  C   UNL     1      44.380   5.180  12.948  0.00  0.00    +0.000 C 
BRANCH  18  19
ATOM     19  N   UNL     1      45.585   5.757  13.486  0.00  0.00    +0.000 N 
ATOM     20  C   UNL     1      46.538   4.997  14.114  0.00  0.00    +0.000 C 
ATOM     21  O   UNL     1      46.445   3.775  14.203  0.00  0.00    +0.000 OA
ATOM     22  H   UNL     1      45.598   6.759  13.646  0.00  0.00    +0.000 HD
BRANCH  20  23
ATOM     23  C   UNL     1      47.722   5.721  14.602  0.00  0.00    +0.000 A 
ATOM     24  C   UNL     1      48.369   6.615  13.759  0.00  0.00    +0.000 A 
ATOM     25  S   UNL     1      49.628   7.475  14.516  0.00  0.00    +0.000 S 
ATOM     26  C   UNL     1      49.394   6.634  15.974  0.00  0.00    +0.000 A 
ATOM     27  N   UNL     1      50.171   6.919  17.041  0.00  0.00    +0.000 NA
ATOM     28  C   UNL     1      49.922   6.169  18.129  0.00  0.00    +0.000 A 
ATOM     29  C   UNL     1      48.983   5.163  18.205  0.00  0.00    +0.000 A 
ATOM     30  C   UNL     1      48.202   4.914  17.081  0.00  0.00    +0.000 A 
ATOM     31  C   UNL     1      48.376   5.683  15.903  0.00  0.00    +0.000 A 
BRANCH  30  32
ATOM     32  O   UNL     1      47.262   3.914  17.127  0.00  0.00    +0.000 OA
ATOM     33  H   UNL     1      46.378   4.288  16.966  0.00  0.00    +0.000 HD
ENDBRANCH  30  32
ENDBRANCH  20  23
ENDBRANCH  18  19
ENDBRANCH   7  18
TORSDOF 8
ENDMDL
MODEL 6
REMARK VINA RESULT:    -7.501      2.543      4.449
REMARK INTER + INTRA:         -11.807
REMARK INTER:                 -10.948
REMARK INTRA:                  -0.860
REMARK UNBOUND:                -1.017
REMARK  Name = 
REMARK  9 active torsions:
REMARK  status: ('A' for Active; 'I' for Inactive)
REMARK    1  A    between atoms: C_1  and  C_2
REMARK    2  A    between atoms: C_4  and  C_5
REMARK    3  A    between atoms: C_5  and  N_6
REMARK    4  A    between atoms: N_6  and  C_7
REMARK    5  A    between atoms: C_7  and  C_8
REMARK    6  A    between atoms: C_16  and  C_17
REMARK    7  A    between atoms: C_17  and  N_18
REMARK    8  A    between atoms: C_19  and  C_21
REMARK    9  A    between atoms: C_28  and  O_29
REMARK                            x       y       z     vdW  Elec       q    Type
REMARK                         _______ _______ _______ _____ _____    ______ ____
ROOT
ATOM      1  C   UNL     1      43.459   2.757  11.978  0.00  0.00    +0.000 C 
ATOM      2  C   UNL     1      44.231   3.663  11.057  0.00  0.00    +0.000 A 
ATOM      3  C   UNL     1      44.479   3.220   9.742  0.00  0.00    +0.000 A 
ATOM      4  C   UNL     1      45.191   4.003   8.825  0.00  0.00    +0.000 A 
ATOM      5  C   UNL     1      45.670   5.248   9.242  0.00  0.00    +0.000 A 
ATOM      6  C   UNL     1      45.451   5.693  10.548  0.00  0.00    +0.000 A 
ATOM      7  C   UNL     1      44.727   4.917  11.472  0.00  0.00    +0.000 A 
ENDROOT
BRANCH   4   8
ATOM      8  C   UNL     1      45.432   3.515   7.413  0.00  0.00    +0.000 C 
BRANCH   8   9
ATOM      9  N   UNL     1      46.745   3.944   6.939  0.00  0.00    +0.000 NA
ATOM     10  H   UNL     1      47.098   4.675   7.553  0.00  0.00    +0.000 HD
BRANCH   9  11
ATOM     11  C   UNL     1      47.704   2.843   6.912  0.00  0.00    +0.000 C 
BRANCH  11  12
ATOM     12  C   UNL     1      47.329   1.848   5.836  0.00  0.00    +0.000 A 
ATOM     13  C   UNL     1      47.355   0.470   6.084  0.00  0.00    +0.000 A 
ATOM     14  C   UNL     1      47.014  -0.434   5.074  0.00  0.00    +0.000 A 
ATOM     15  C   UNL     1      46.640   0.028   3.813  0.00  0.00    +0.000 A 
ATOM     16  C   UNL     1      46.604   1.398   3.557  0.00  0.00    +0.000 A 
ATOM     17  C   UNL     1      46.943   2.302   4.565  0.00  0.00    +0.000 A 
ENDBRANCH  11  12
ENDBRANCH   9  11
ENDBRANCH   8   9
ENDBRANCH   4   8
BRANCH   7  18
ATOM     18  C   UNL     1      44.557   5.459  12.875  0.00  0.00    +0.000 C 
BRANCH  18  19
ATOM     19  N   UNL     1      45.769   6.074  13.352  0.00  0.00    +0.000 N 
ATOM     20  C   UNL     1      46.762   5.349  13.960  0.00  0.00    +0.000 C 
ATOM     21  O   UNL     1      46.699   4.128  14.082  0.00  0.00    +0.000 OA
ATOM     22  H   UNL     1      45.767   7.079  13.488  0.00  0.00    +0.000 HD
BRANCH  20  23
ATOM     23  C   UNL     1      47.948   6.109  14.383  0.00  0.00    +0.000 A 
ATOM     24  C   UNL     1      48.369   6.033  15.704  0.00  0.00    +0.000 A 
ATOM     25  S   UNL     1      49.832   6.852  16.000  0.00  0.00    +0.000 S 
ATOM     26  C   UNL     1      49.915   7.391  14.392  0.00  0.00    +0.000 A 
ATOM     27  N   UNL     1      50.958   8.151  13.994  0.00  0.00    +0.000 NA
ATOM     28  C   UNL     1      50.903   8.550  12.712  0.00  0.00    +0.000 A 
ATOM     29  C   UNL     1      49.883   8.260  11.831  0.00  0.00    +0.000 A 
ATOM     30  C   UNL     1      48.835   7.466  12.286  0.00  0.00    +0.000 A 
ATOM     31  C   UNL     1      48.833   6.975  13.615  0.00  0.00    +0.000 A 
BRANCH  30  32
ATOM     32  O   UNL     1      47.802   7.166  11.431  0.00  0.00    +0.000 OA
ATOM     33  H   UNL     1      47.902   7.675  10.607  0.00  0.00    +0.000 HD
ENDBRANCH  30  32
ENDBRANCH  20  23
ENDBRANCH  18  19
ENDBRANCH   7  18
TORSDOF 8
ENDMDL
MODEL 7
REMARK VINA RESULT:    -7.325      3.632      5.687
REMARK INTER + INTRA:         -11.555
REMARK INTER:                 -10.437
REMARK INTRA:                  -1.117
REMARK UNBOUND:                -1.017
REMARK  Name = 
REMARK  9 active torsions:
REMARK  status: ('A' for Active; 'I' for Inactive)
REMARK    1  A    between atoms: C_1  and  C_2
REMARK    2  A    between atoms: C_4  and  C_5
REMARK    3  A    between atoms: C_5  and  N_6
REMARK    4  A    between atoms: N_6  and  C_7
REMARK    5  A    between atoms: C_7  and  C_8
REMARK    6  A    between atoms: C_16  and  C_17
REMARK    7  A    between atoms: C_17  and  N_18
REMARK    8  A    between atoms: C_19  and  C_21
REMARK    9  A    between atoms: C_28  and  O_29
REMARK                            x       y       z     vdW  Elec       q    Type
REMARK                         _______ _______ _______ _____ _____    ______ ____
ROOT
ATOM      1  C   UNL     1      46.990   4.269  14.488  0.00  0.00    +0.000 C 
ATOM      2  C   UNL     1      46.411   4.949  13.277  0.00  0.00    +0.000 A 
ATOM      3  C   UNL     1      45.365   4.301  12.588  0.00  0.00    +0.000 A 
ATOM      4  C   UNL     1      44.774   4.867  11.451  0.00  0.00    +0.000 A 
ATOM      5  C   UNL     1      45.250   6.100  10.996  0.00  0.00    +0.000 A 
ATOM      6  C   UNL     1      46.300   6.744  11.654  0.00  0.00    +0.000 A 
ATOM      7  C   UNL     1      46.891   6.187  12.803  0.00  0.00    +0.000 A 
ENDROOT
BRANCH   4   8
ATOM      8  C   UNL     1      43.642   4.163  10.735  0.00  0.00    +0.000 C 
BRANCH   8   9
ATOM      9  N   UNL     1      44.164   3.166   9.805  0.00  0.00    +0.000 NA
ATOM     10  H   UNL     1      43.441   2.474   9.619  0.00  0.00    +0.000 HD
BRANCH   9  11
ATOM     11  C   UNL     1      44.584   3.763   8.540  0.00  0.00    +0.000 C 
BRANCH  11  12
ATOM     12  C   UNL     1      45.689   2.941   7.916  0.00  0.00    +0.000 A 
ATOM     13  C   UNL     1      45.887   1.601   8.274  0.00  0.00    +0.000 A 
ATOM     14  C   UNL     1      46.920   0.862   7.693  0.00  0.00    +0.000 A 
ATOM     15  C   UNL     1      47.762   1.449   6.750  0.00  0.00    +0.000 A 
ATOM     16  C   UNL     1      47.571   2.780   6.381  0.00  0.00    +0.000 A 
ATOM     17  C   UNL     1      46.538   3.520   6.958  0.00  0.00    +0.000 A 
ENDBRANCH  11  12
ENDBRANCH   9  11
ENDBRANCH   8   9
ENDBRANCH   4   8
BRANCH   7  18
ATOM     18  C   UNL     1      48.041   6.936  13.443  0.00  0.00    +0.000 C 
BRANCH  18  19
ATOM     19  N   UNL     1      48.695   7.804  12.498  0.00  0.00    +0.000 N 
ATOM     20  C   UNL     1      48.834   9.150  12.722  0.00  0.00    +0.000 C 
ATOM     21  O   UNL     1      48.459   9.681  13.765  0.00  0.00    +0.000 OA
ATOM     22  H   UNL     1      48.804   7.469  11.546  0.00  0.00    +0.000 HD
BRANCH  20  23
ATOM     23  C   UNL     1      49.535   9.908  11.675  0.00  0.00    +0.000 A 
ATOM     24  C   UNL     1      48.899  10.986  11.074  0.00  0.00    +0.000 A 
ATOM     25  S   UNL     1      49.891  11.844   9.989  0.00  0.00    +0.000 S 
ATOM     26  C   UNL     1      51.180  10.765  10.236  0.00  0.00    +0.000 A 
ATOM     27  N   UNL     1      52.348  10.959   9.585  0.00  0.00    +0.000 NA
ATOM     28  C   UNL     1      53.284  10.026   9.828  0.00  0.00    +0.000 A 
ATOM     29  C   UNL     1      53.121   8.927  10.645  0.00  0.00    +0.000 A 
ATOM     30  C   UNL     1      51.903   8.778  11.300  0.00  0.00    +0.000 A 
ATOM     31  C   UNL     1      50.873   9.736  11.126  0.00  0.00    +0.000 A 
BRANCH  30  32
ATOM     32  O   UNL     1      51.711   7.689  12.116  0.00  0.00    +0.000 OA
ATOM     33  H   UNL     1      52.194   6.923  11.758  0.00  0.00    +0.000 HD
ENDBRANCH  30  32
ENDBRANCH  20  23
ENDBRANCH  18  19
ENDBRANCH   7  18
TORSDOF 8
ENDMDL
MODEL 8
REMARK VINA RESULT:    -7.099      2.934      8.865
REMARK INTER + INTRA:         -11.229
REMARK INTER:                  -9.026
REMARK INTRA:                  -2.203
REMARK UNBOUND:                -1.017
REMARK  Name = 
REMARK  9 active torsions:
REMARK  status: ('A' for Active; 'I' for Inactive)
REMARK    1  A    between atoms: C_1  and  C_2
REMARK    2  A    between atoms: C_4  and  C_5
REMARK    3  A    between atoms: C_5  and  N_6
REMARK    4  A    between atoms: N_6  and  C_7
REMARK    5  A    between atoms: C_7  and  C_8
REMARK    6  A    between atoms: C_16  and  C_17
REMARK    7  A    between atoms: C_17  and  N_18
REMARK    8  A    between atoms: C_19  and  C_21
REMARK    9  A    between atoms: C_28  and  O_29
REMARK                            x       y       z     vdW  Elec       q    Type
REMARK                         _______ _______ _______ _____ _____    ______ ____
ROOT
ATOM      1  C   UNL     1      49.876   2.749  17.426  0.00  0.00    +0.000 C 
ATOM      2  C   UNL     1      49.300   3.937  18.147  0.00  0.00    +0.000 A 
ATOM      3  C   UNL     1      50.127   4.630  19.054  0.00  0.00    +0.000 A 
ATOM      4  C   UNL     1      49.666   5.745  19.765  0.00  0.00    +0.000 A 
ATOM      5  C   UNL     1      48.347   6.163  19.568  0.00  0.00    +0.000 A 
ATOM      6  C   UNL     1      47.507   5.474  18.689  0.00  0.00    +0.000 A 
ATOM      7  C   UNL     1      47.967   4.361  17.962  0.00  0.00    +0.000 A 
ENDROOT
BRANCH   4   8
ATOM      8  C   UNL     1      50.575   6.484  20.722  0.00  0.00    +0.000 C 
BRANCH   8   9
ATOM      9  N   UNL     1      51.777   6.948  20.035  0.00  0.00    +0.000 NA
ATOM     10  H   UNL     1      52.042   6.264  19.329  0.00  0.00    +0.000 HD
BRANCH   9  11
ATOM     11  C   UNL     1      51.574   8.242  19.389  0.00  0.00    +0.000 C 
BRANCH  11  12
ATOM     12  C   UNL     1      51.043   8.048  17.986  0.00  0.00    +0.000 A 
ATOM     13  C   UNL     1      51.691   7.202  17.077  0.00  0.00    +0.000 A 
ATOM     14  C   UNL     1      51.190   7.044  15.782  0.00  0.00    +0.000 A 
ATOM     15  C   UNL     1      50.040   7.722  15.384  0.00  0.00    +0.000 A 
ATOM     16  C   UNL     1      49.382   8.561  16.283  0.00  0.00    +0.000 A 
ATOM     17  C   UNL     1      49.880   8.719  17.577  0.00  0.00    +0.000 A 
ENDBRANCH  11  12
ENDBRANCH   9  11
ENDBRANCH   8   9
ENDBRANCH   4   8
BRANCH   7  18
ATOM     18  C   UNL     1      46.987   3.654  17.050  0.00  0.00    +0.000 C 
BRANCH  18  19
ATOM     19  N   UNL     1      46.708   4.435  15.872  0.00  0.00    +0.000 N 
ATOM     20  C   UNL     1      47.056   4.008  14.617  0.00  0.00    +0.000 C 
ATOM     21  O   UNL     1      47.576   2.912  14.420  0.00  0.00    +0.000 OA
ATOM     22  H   UNL     1      46.504   5.422  15.996  0.00  0.00    +0.000 HD
BRANCH  20  23
ATOM     23  C   UNL     1      46.696   4.904  13.508  0.00  0.00    +0.000 A 
ATOM     24  C   UNL     1      47.173   6.208  13.503  0.00  0.00    +0.000 A 
ATOM     25  S   UNL     1      46.787   7.070  12.087  0.00  0.00    +0.000 S 
ATOM     26  C   UNL     1      45.915   5.752  11.462  0.00  0.00    +0.000 A 
ATOM     27  N   UNL     1      45.330   5.853  10.249  0.00  0.00    +0.000 NA
ATOM     28  C   UNL     1      44.638   4.765   9.870  0.00  0.00    +0.000 A 
ATOM     29  C   UNL     1      44.481   3.619  10.622  0.00  0.00    +0.000 A 
ATOM     30  C   UNL     1      45.111   3.561  11.861  0.00  0.00    +0.000 A 
ATOM     31  C   UNL     1      45.890   4.653  12.321  0.00  0.00    +0.000 A 
BRANCH  30  32
ATOM     32  O   UNL     1      44.967   2.434  12.633  0.00  0.00    +0.000 OA
ATOM     33  H   UNL     1      44.341   1.823  12.205  0.00  0.00    +0.000 HD
ENDBRANCH  30  32
ENDBRANCH  20  23
ENDBRANCH  18  19
ENDBRANCH   7  18
TORSDOF 8
ENDMDL
MODEL 9
REMARK VINA RESULT:    -7.029      3.320      5.228
REMARK INTER + INTRA:         -11.128
REMARK INTER:                 -10.026
REMARK INTRA:                  -1.101
REMARK UNBOUND:                -1.017
REMARK  Name = 
REMARK  9 active torsions:
REMARK  status: ('A' for Active; 'I' for Inactive)
REMARK    1  A    between atoms: C_1  and  C_2
REMARK    2  A    between atoms: C_4  and  C_5
REMARK    3  A    between atoms: C_5  and  N_6
REMARK    4  A    between atoms: N_6  and  C_7
REMARK    5  A    between atoms: C_7  and  C_8
REMARK    6  A    between atoms: C_16  and  C_17
REMARK    7  A    between atoms: C_17  and  N_18
REMARK    8  A    between atoms: C_19  and  C_21
REMARK    9  A    between atoms: C_28  and  O_29
REMARK                            x       y       z     vdW  Elec       q    Type
REMARK                         _______ _______ _______ _____ _____    ______ ____
ROOT
ATOM      1  C   UNL     1      47.196   4.291  15.240  0.00  0.00    +0.000 C 
ATOM      2  C   UNL     1      46.998   5.118  13.998  0.00  0.00    +0.000 A 
ATOM      3  C   UNL     1      46.075   4.661  13.035  0.00  0.00    +0.000 A 
ATOM      4  C   UNL     1      45.836   5.372  11.852  0.00  0.00    +0.000 A 
ATOM      5  C   UNL     1      46.544   6.556  11.630  0.00  0.00    +0.000 A 
ATOM      6  C   UNL     1      47.478   7.010  12.564  0.00  0.00    +0.000 A 
ATOM      7  C   UNL     1      47.716   6.308  13.760  0.00  0.00    +0.000 A 
ENDROOT
BRANCH   4   8
ATOM      8  C   UNL     1      44.829   4.872  10.839  0.00  0.00    +0.000 C 
BRANCH   8   9
ATOM      9  N   UNL     1      45.323   5.076   9.480  0.00  0.00    +0.000 NA
ATOM     10  H   UNL     1      46.328   4.910   9.463  0.00  0.00    +0.000 HD
BRANCH   9  11
ATOM     11  C   UNL     1      44.680   4.181   8.523  0.00  0.00    +0.000 C 
BRANCH  11  12
ATOM     12  C   UNL     1      45.685   3.194   7.971  0.00  0.00    +0.000 A 
ATOM     13  C   UNL     1      45.719   1.868   8.420  0.00  0.00    +0.000 A 
ATOM     14  C   UNL     1      46.662   0.974   7.905  0.00  0.00    +0.000 A 
ATOM     15  C   UNL     1      47.574   1.393   6.938  0.00  0.00    +0.000 A 
ATOM     16  C   UNL     1      47.545   2.709   6.479  0.00  0.00    +0.000 A 
ATOM     17  C   UNL     1      46.603   3.603   6.991  0.00  0.00    +0.000 A 
ENDBRANCH  11  12
ENDBRANCH   9  11
ENDBRANCH   8   9
ENDBRANCH   4   8
BRANCH   7  18
ATOM     18  C   UNL     1      48.763   6.854  14.708  0.00  0.00    +0.000 C 
BRANCH  18  19
ATOM     19  N   UNL     1      49.942   7.284  13.999  0.00  0.00    +0.000 N 
ATOM     20  C   UNL     1      50.902   8.063  14.590  0.00  0.00    +0.000 C 
ATOM     21  O   UNL     1      50.839   8.394  15.772  0.00  0.00    +0.000 OA
ATOM     22  H   UNL     1      49.925   7.240  12.985  0.00  0.00    +0.000 HD
BRANCH  20  23
ATOM     23  C   UNL     1      52.056   8.413  13.748  0.00  0.00    +0.000 A 
ATOM     24  C   UNL     1      53.338   8.129  14.198  0.00  0.00    +0.000 A 
ATOM     25  S   UNL     1      54.552   8.463  13.052  0.00  0.00    +0.000 S 
ATOM     26  C   UNL     1      53.412   9.060  11.944  0.00  0.00    +0.000 A 
ATOM     27  N   UNL     1      53.822   9.506  10.737  0.00  0.00    +0.000 NA
ATOM     28  C   UNL     1      52.841   9.988   9.955  0.00  0.00    +0.000 A 
ATOM     29  C   UNL     1      51.510  10.068  10.306  0.00  0.00    +0.000 A 
ATOM     30  C   UNL     1      51.136   9.587  11.557  0.00  0.00    +0.000 A 
ATOM     31  C   UNL     1      52.104   9.031  12.430  0.00  0.00    +0.000 A 
BRANCH  30  32
ATOM     32  O   UNL     1      49.818   9.661  11.935  0.00  0.00    +0.000 OA
ATOM     33  H   UNL     1      49.410  10.455  11.547  0.00  0.00    +0.000 HD
ENDBRANCH  30  32
ENDBRANCH  20  23
ENDBRANCH  18  19
ENDBRANCH   7  18
TORSDOF 8
ENDMDL
