MODEL 1
REMARK VINA RESULT:    -7.812      0.000      0.000
REMARK INTER + INTRA:         -11.364
REMARK INTER:                 -10.095
REMARK INTRA:                  -1.269
REMARK UNBOUND:                -1.269
REMARK  Name = 
REMARK  7 active torsions:
REMARK  status: ('A' for Active; 'I' for Inactive)
REMARK    1  A    between atoms: C_1  and  N_2
REMARK    2  A    between atoms: N_2  and  C_3
REMARK    3  A    between atoms: C_3  and  C_4
REMARK    4  A    between atoms: C_7  and  C_8
REMARK    5  A    between atoms: C_8  and  N_9
REMARK    6  A    between atoms: N_9  and  C_10
REMARK    7  A    between atoms: C_19  and  C_21
REMARK                            x       y       z     vdW  Elec       q    Type
REMARK                         _______ _______ _______ _____ _____    ______ ____
ROOT
ATOM      1  C   UNL     1      47.248   6.195  12.364  0.00  0.00    +0.000 C 
ENDROOT
BRANCH   1   2
ATOM      2  C   UNL     1      47.564   5.988  13.824  0.00  0.00    +0.000 A 
ATOM      3  C   UNL     1      48.409   6.884  14.497  0.00  0.00    +0.000 A 
ATOM      4  C   UNL     1      48.833   6.611  15.797  0.00  0.00    +0.000 A 
ATOM      5  C   UNL     1      48.433   5.430  16.436  0.00  0.00    +0.000 A 
ATOM      6  C   UNL     1      47.504   4.593  15.804  0.00  0.00    +0.000 A 
ATOM      7  C   UNL     1      47.077   4.867  14.504  0.00  0.00    +0.000 A 
BRANCH   5   8
ATOM      8  C   UNL     1      49.114   4.990  17.715  0.00  0.00    +0.000 C 
BRANCH   8   9
ATOM      9  N   UNL     1      50.576   4.988  17.706  0.00  0.00    +0.000 N 
ATOM     10  C   UNL     1      51.280   6.033  18.445  0.00  0.00    +0.000 C 
ATOM     11  C   UNL     1      51.174   3.712  17.824  0.00  0.00    +0.000 A 
ATOM     12  C   UNL     1      50.611   2.583  17.214  0.00  0.00    +0.000 A 
ATOM     13  C   UNL     1      51.277   1.356  17.224  0.00  0.00    +0.000 A 
ATOM     14  C   UNL     1      52.504   1.261  17.853  0.00  0.00    +0.000 A 
ATOM     15  C   UNL     1      52.992   2.395  18.469  0.00  0.00    +0.000 A 
ATOM     16  N   UNL     1      52.359   3.593  18.466  0.00  0.00    +0.000 NA
ENDBRANCH   8   9
ENDBRANCH   5   8
ENDBRANCH   1   2
BRANCH   1  18
ATOM     17  C   UNL     1      46.278   8.544  12.130  0.00  0.00    +0.000 C 
ATOM     18  N   UNL     1      46.132   7.094  12.029  0.00  0.00    +0.000 N 
ATOM     19  C   UNL     1      44.849   6.655  11.648  0.00  0.00    +0.000 C 
ATOM     20  O   UNL     1      43.952   7.463  11.409  0.00  0.00    +0.000 OA
BRANCH  19  21
ATOM     21  C   UNL     1      44.556   5.217  11.562  0.00  0.00    +0.000 A 
ATOM     22  C   UNL     1      43.831   4.496  12.498  0.00  0.00    +0.000 A 
ATOM     23  S   UNL     1      43.597   2.858  12.077  0.00  0.00    +0.000 S 
ATOM     24  C   UNL     1      44.317   3.096  10.554  0.00  0.00    +0.000 A 
ATOM     25  N   UNL     1      44.339   2.101   9.630  0.00  0.00    +0.000 NA
ATOM     26  C   UNL     1      44.849   2.446   8.494  0.00  0.00    +0.000 A 
ATOM     27  N   UNL     1      45.366   3.684   8.210  0.00  0.00    +0.000 N 
ATOM     28  C   UNL     1      45.482   4.677   9.157  0.00  0.00    +0.000 A 
ATOM     29  O   UNL     1      46.172   5.665   8.942  0.00  0.00    +0.000 OA
ATOM     30  C   UNL     1      44.816   4.377  10.413  0.00  0.00    +0.000 A 
ATOM     31  H   UNL     1      45.813   3.868   7.325  0.00  0.00    +0.000 HD
ENDBRANCH  19  21
ENDBRANCH   1  18
TORSDOF 5
ENDMDL
MODEL 2
REMARK VINA RESULT:    -7.293      1.600      2.087
REMARK INTER + INTRA:         -10.693
REMARK INTER:                  -9.435
REMARK INTRA:                  -1.258
REMARK UNBOUND:                -1.269
REMARK  Name = 
REMARK  7 active torsions:
REMARK  status: ('A' for Active; 'I' for Inactive)
REMARK    1  A    between atoms: C_1  and  N_2
REMARK    2  A    between atoms: N_2  and  C_3
REMARK    3  A    between atoms: C_3  and  C_4
REMARK    4  A    between atoms: C_7  and  C_8
REMARK    5  A    between atoms: C_8  and  N_9
REMARK    6  A    between atoms: N_9  and  C_10
REMARK    7  A    between atoms: C_19  and  C_21
REMARK                            x       y       z     vdW  Elec       q    Type
REMARK                         _______ _______ _______ _____ _____    ______ ____
ROOT
ATOM      1  C   UNL     1      47.364   6.140  12.471  0.00  0.00    +0.000 C 
ENDROOT
BRANCH   1   2
ATOM      2  C   UNL     1      47.547   5.812  13.931  0.00  0.00    +0.000 A 
ATOM      3  C   UNL     1      48.390   6.601  14.730  0.00  0.00    +0.000 A 
ATOM      4  C   UNL     1      48.690   6.211  16.035  0.00  0.00    +0.000 A 
ATOM      5  C   UNL     1      48.167   5.019  16.553  0.00  0.00    +0.000 A 
ATOM      6  C   UNL     1      47.241   4.292  15.792  0.00  0.00    +0.000 A 
ATOM      7  C   UNL     1      46.938   4.683  14.487  0.00  0.00    +0.000 A 
BRANCH   5   8
ATOM      8  C   UNL     1      48.714   4.447  17.844  0.00  0.00    +0.000 C 
BRANCH   8   9
ATOM      9  N   UNL     1      48.806   5.368  18.976  0.00  0.00    +0.000 N 
ATOM     10  C   UNL     1      47.572   5.793  19.632  0.00  0.00    +0.000 C 
ATOM     11  C   UNL     1      49.863   5.105  19.878  0.00  0.00    +0.000 A 
ATOM     12  C   UNL     1      51.109   4.648  19.428  0.00  0.00    +0.000 A 
ATOM     13  C   UNL     1      52.184   4.519  20.308  0.00  0.00    +0.000 A 
ATOM     14  C   UNL     1      52.008   4.841  21.641  0.00  0.00    +0.000 A 
ATOM     15  C   UNL     1      50.750   5.248  22.034  0.00  0.00    +0.000 A 
ATOM     16  N   UNL     1      49.696   5.381  21.192  0.00  0.00    +0.000 NA
ENDBRANCH   8   9
ENDBRANCH   5   8
ENDBRANCH   1   2
BRANCH   1  18
ATOM     17  C   UNL     1      46.552   8.547  12.221  0.00  0.00    +0.000 C 
ATOM     18  N   UNL     1      46.314   7.109  12.116  0.00  0.00    +0.000 N 
ATOM     19  C   UNL     1      45.012   6.753  11.712  0.00  0.00    +0.000 C 
ATOM     20  O   UNL     1      44.174   7.617  11.458  0.00  0.00    +0.000 OA
BRANCH  19  21
ATOM     21  C   UNL     1      44.629   5.337  11.621  0.00  0.00    +0.000 A 
ATOM     22  C   UNL     1      43.881   4.654  12.567  0.00  0.00    +0.000 A 
ATOM     23  S   UNL     1      43.537   3.037  12.136  0.00  0.00    +0.000 S 
ATOM     24  C   UNL     1      44.236   3.245  10.599  0.00  0.00    +0.000 A 
ATOM     25  N   UNL     1      44.175   2.260   9.666  0.00  0.00    +0.000 NA
ATOM     26  C   UNL     1      44.681   2.585   8.522  0.00  0.00    +0.000 A 
ATOM     27  N   UNL     1      45.267   3.791   8.237  0.00  0.00    +0.000 N 
ATOM     28  C   UNL     1      45.466   4.765   9.191  0.00  0.00    +0.000 A 
ATOM     29  O   UNL     1      46.211   5.710   8.968  0.00  0.00    +0.000 OA
ATOM     30  C   UNL     1      44.811   4.494  10.458  0.00  0.00    +0.000 A 
ATOM     31  H   UNL     1      45.705   3.956   7.345  0.00  0.00    +0.000 HD
ENDBRANCH  19  21
ENDBRANCH   1  18
TORSDOF 5
ENDMDL
MODEL 3
REMARK VINA RESULT:    -6.990      3.273      8.348
REMARK INTER + INTRA:         -10.302
REMARK INTER:                  -8.840
REMARK INTRA:                  -1.462
REMARK UNBOUND:                -1.269
REMARK  Name = 
REMARK  7 active torsions:
REMARK  status: ('A' for Active; 'I' for Inactive)
REMARK    1  A    between atoms: C_1  and  N_2
REMARK    2  A    between atoms: N_2  and  C_3
REMARK    3  A    between atoms: C_3  and  C_4
REMARK    4  A    between atoms: C_7  and  C_8
REMARK    5  A    between atoms: C_8  and  N_9
REMARK    6  A    between atoms: N_9  and  C_10
REMARK    7  A    between atoms: C_19  and  C_21
REMARK                            x       y       z     vdW  Elec       q    Type
REMARK                         _______ _______ _______ _____ _____    ______ ____
ROOT
ATOM      1  C   UNL     1      49.385   8.213  15.867  0.00  0.00    +0.000 C 
ENDROOT
BRANCH   1   2
ATOM      2  C   UNL     1      48.448   7.827  14.751  0.00  0.00    +0.000 A 
ATOM      3  C   UNL     1      47.541   8.767  14.234  0.00  0.00    +0.000 A 
ATOM      4  C   UNL     1      46.566   8.374  13.318  0.00  0.00    +0.000 A 
ATOM      5  C   UNL     1      46.472   7.034  12.919  0.00  0.00    +0.000 A 
ATOM      6  C   UNL     1      47.445   6.123  13.351  0.00  0.00    +0.000 A 
ATOM      7  C   UNL     1      48.422   6.515  14.266  0.00  0.00    +0.000 A 
BRANCH   5   8
ATOM      8  C   UNL     1      45.251   6.550  12.164  0.00  0.00    +0.000 C 
BRANCH   8   9
ATOM      9  N   UNL     1      45.096   5.102  12.038  0.00  0.00    +0.000 N 
ATOM     10  C   UNL     1      44.196   4.414  12.961  0.00  0.00    +0.000 C 
ATOM     11  C   UNL     1      45.020   4.620  10.712  0.00  0.00    +0.000 A 
ATOM     12  C   UNL     1      45.783   5.190   9.684  0.00  0.00    +0.000 A 
ATOM     13  C   UNL     1      45.802   4.625   8.408  0.00  0.00    +0.000 A 
ATOM     14  C   UNL     1      45.050   3.492   8.161  0.00  0.00    +0.000 A 
ATOM     15  C   UNL     1      44.288   2.997   9.199  0.00  0.00    +0.000 A 
ATOM     16  N   UNL     1      44.261   3.533  10.444  0.00  0.00    +0.000 NA
ENDBRANCH   8   9
ENDBRANCH   5   8
ENDBRANCH   1   2
BRANCH   1  18
ATOM     17  C   UNL     1      47.960   9.274  17.700  0.00  0.00    +0.000 C 
ATOM     18  N   UNL     1      48.850   8.211  17.238  0.00  0.00    +0.000 N 
ATOM     19  C   UNL     1      49.179   7.250  18.215  0.00  0.00    +0.000 C 
ATOM     20  O   UNL     1      48.716   7.324  19.353  0.00  0.00    +0.000 OA
BRANCH  19  21
ATOM     21  C   UNL     1      50.109   6.158  17.892  0.00  0.00    +0.000 A 
ATOM     22  C   UNL     1      51.481   6.201  18.084  0.00  0.00    +0.000 A 
ATOM     23  S   UNL     1      52.278   4.746  17.681  0.00  0.00    +0.000 S 
ATOM     24  C   UNL     1      50.799   3.957  17.391  0.00  0.00    +0.000 A 
ATOM     25  N   UNL     1      50.760   2.629  17.112  0.00  0.00    +0.000 NA
ATOM     26  C   UNL     1      49.567   2.150  16.989  0.00  0.00    +0.000 A 
ATOM     27  N   UNL     1      48.413   2.884  17.089  0.00  0.00    +0.000 N 
ATOM     28  C   UNL     1      48.413   4.253  17.240  0.00  0.00    +0.000 A 
ATOM     29  O   UNL     1      47.386   4.897  17.071  0.00  0.00    +0.000 OA
ATOM     30  C   UNL     1      49.725   4.819  17.501  0.00  0.00    +0.000 A 
ATOM     31  H   UNL     1      47.514   2.462  16.914  0.00  0.00    +0.000 HD
ENDBRANCH  19  21
ENDBRANCH   1  18
TORSDOF 5
ENDMDL
MODEL 4
REMARK VINA RESULT:    -6.982      3.809      8.491
REMARK INTER + INTRA:         -10.292
REMARK INTER:                  -9.086
REMARK INTRA:                  -1.206
REMARK UNBOUND:                -1.269
REMARK  Name = 
REMARK  7 active torsions:
REMARK  status: ('A' for Active; 'I' for Inactive)
REMARK    1  A    between atoms: C_1  and  N_2
REMARK    2  A    between atoms: N_2  and  C_3
REMARK    3  A    between atoms: C_3  and  C_4
REMARK    4  A    between atoms: C_7  and  C_8
REMARK    5  A    between atoms: C_8  and  N_9
REMARK    6  A    between atoms: N_9  and  C_10
REMARK    7  A    between atoms: C_19  and  C_21
REMARK                            x       y       z     vdW  Elec       q    Type
REMARK                         _______ _______ _______ _____ _____    ______ ____
ROOT
ATOM      1  C   UNL     1      48.418   9.020  14.442  0.00  0.00    +0.000 C 
ENDROOT
BRANCH   1   2
ATOM      2  C   UNL     1      47.430   8.205  13.646  0.00  0.00    +0.000 A 
ATOM      3  C   UNL     1      46.357   8.836  12.996  0.00  0.00    +0.000 A 
ATOM      4  C   UNL     1      45.354   8.077  12.395  0.00  0.00    +0.000 A 
ATOM      5  C   UNL     1      45.399   6.678  12.451  0.00  0.00    +0.000 A 
ATOM      6  C   UNL     1      46.525   6.052  13.003  0.00  0.00    +0.000 A 
ATOM      7  C   UNL     1      47.531   6.811  13.602  0.00  0.00    +0.000 A 
BRANCH   5   8
ATOM      8  C   UNL     1      44.183   5.862  12.064  0.00  0.00    +0.000 C 
BRANCH   8   9
ATOM      9  N   UNL     1      44.399   4.433  11.848  0.00  0.00    +0.000 N 
ATOM     10  C   UNL     1      43.571   3.481  12.584  0.00  0.00    +0.000 C 
ATOM     11  C   UNL     1      44.631   4.059  10.504  0.00  0.00    +0.000 A 
ATOM     12  C   UNL     1      45.372   4.873   9.637  0.00  0.00    +0.000 A 
ATOM     13  C   UNL     1      45.707   4.435   8.355  0.00  0.00    +0.000 A 
ATOM     14  C   UNL     1      45.292   3.184   7.940  0.00  0.00    +0.000 A 
ATOM     15  C   UNL     1      44.533   2.442   8.821  0.00  0.00    +0.000 A 
ATOM     16  N   UNL     1      44.201   2.852  10.069  0.00  0.00    +0.000 NA
ENDBRANCH   8   9
ENDBRANCH   5   8
ENDBRANCH   1   2
BRANCH   1  18
ATOM     17  C   UNL     1      50.620   8.372  13.328  0.00  0.00    +0.000 C 
ATOM     18  N   UNL     1      49.800   8.522  14.528  0.00  0.00    +0.000 N 
ATOM     19  C   UNL     1      50.419   8.106  15.723  0.00  0.00    +0.000 C 
ATOM     20  O   UNL     1      51.571   7.673  15.718  0.00  0.00    +0.000 OA
BRANCH  19  21
ATOM     21  C   UNL     1      49.680   8.156  16.993  0.00  0.00    +0.000 A 
ATOM     22  C   UNL     1      49.571   9.275  17.805  0.00  0.00    +0.000 A 
ATOM     23  S   UNL     1      48.581   9.036  19.176  0.00  0.00    +0.000 S 
ATOM     24  C   UNL     1      48.134   7.483  18.645  0.00  0.00    +0.000 A 
ATOM     25  N   UNL     1      47.200   6.760  19.314  0.00  0.00    +0.000 NA
ATOM     26  C   UNL     1      46.906   5.632  18.756  0.00  0.00    +0.000 A 
ATOM     27  N   UNL     1      47.482   5.151  17.609  0.00  0.00    +0.000 N 
ATOM     28  C   UNL     1      48.524   5.791  16.974  0.00  0.00    +0.000 A 
ATOM     29  O   UNL     1      49.176   5.215  16.114  0.00  0.00    +0.000 OA
ATOM     30  C   UNL     1      48.808   7.117  17.496  0.00  0.00    +0.000 A 
ATOM     31  H   UNL     1      47.257   4.231  17.263  0.00  0.00    +0.000 HD
ENDBRANCH  19  21
ENDBRANCH   1  18
TORSDOF 5
ENDMDL
MODEL 5
REMARK VINA RESULT:    -6.734      3.070      8.526
REMARK INTER + INTRA:          -9.971
REMARK INTER:                  -8.877
REMARK INTRA:                  -1.094
REMARK UNBOUND:                -1.269
REMARK  Name = 
REMARK  7 active torsions:
REMARK  status: ('A' for Active; 'I' for Inactive)
REMARK    1  A    between atoms: C_1  and  N_2
REMARK    2  A    between atoms: N_2  and  C_3
REMARK    3  A    between atoms: C_3  and  C_4
REMARK    4  A    between atoms: C_7  and  C_8
REMARK    5  A    between atoms: C_8  and  N_9
REMARK    6  A    between atoms: N_9  and  C_10
REMARK    7  A    between atoms: C_19  and  C_21
REMARK                            x       y       z     vdW  Elec       q    Type
REMARK                         _______ _______ _______ _____ _____    ______ ____
ROOT
ATOM      1  C   UNL     1      48.903   6.677  14.794  0.00  0.00    +0.000 C 
ENDROOT
BRANCH   1   2
ATOM      2  C   UNL     1      47.603   6.445  14.068  0.00  0.00    +0.000 A 
ATOM      3  C   UNL     1      46.909   5.236  14.232  0.00  0.00    +0.000 A 
ATOM      4  C   UNL     1      45.794   4.951  13.445  0.00  0.00    +0.000 A 
ATOM      5  C   UNL     1      45.368   5.862  12.469  0.00  0.00    +0.000 A 
ATOM      6  C   UNL     1      45.995   7.112  12.383  0.00  0.00    +0.000 A 
ATOM      7  C   UNL     1      47.109   7.400  13.173  0.00  0.00    +0.000 A 
BRANCH   5   8
ATOM      8  C   UNL     1      44.356   5.440  11.425  0.00  0.00    +0.000 C 
BRANCH   8   9
ATOM      9  N   UNL     1      44.452   4.062  10.945  0.00  0.00    +0.000 N 
ATOM     10  C   UNL     1      43.400   3.119  11.316  0.00  0.00    +0.000 C 
ATOM     11  C   UNL     1      44.890   3.922   9.608  0.00  0.00    +0.000 A 
ATOM     12  C   UNL     1      45.866   4.771   9.069  0.00  0.00    +0.000 A 
ATOM     13  C   UNL     1      46.387   4.543   7.794  0.00  0.00    +0.000 A 
ATOM     14  C   UNL     1      45.924   3.468   7.058  0.00  0.00    +0.000 A 
ATOM     15  C   UNL     1      44.936   2.690   7.625  0.00  0.00    +0.000 A 
ATOM     16  N   UNL     1      44.421   2.897   8.861  0.00  0.00    +0.000 NA
ENDBRANCH   8   9
ENDBRANCH   5   8
ENDBRANCH   1   2
BRANCH   1  18
ATOM     17  C   UNL     1      49.016   8.899  16.043  0.00  0.00    +0.000 C 
ATOM     18  N   UNL     1      48.857   7.447  16.047  0.00  0.00    +0.000 N 
ATOM     19  C   UNL     1      48.718   6.871  17.326  0.00  0.00    +0.000 C 
ATOM     20  O   UNL     1      48.715   7.574  18.336  0.00  0.00    +0.000 OA
BRANCH  19  21
ATOM     21  C   UNL     1      48.605   5.413  17.470  0.00  0.00    +0.000 A 
ATOM     22  C   UNL     1      47.419   4.698  17.406  0.00  0.00    +0.000 A 
ATOM     23  S   UNL     1      47.626   3.008  17.534  0.00  0.00    +0.000 S 
ATOM     24  C   UNL     1      49.320   3.163  17.515  0.00  0.00    +0.000 A 
ATOM     25  N   UNL     1      50.120   2.067  17.483  0.00  0.00    +0.000 NA
ATOM     26  C   UNL     1      51.381   2.337  17.395  0.00  0.00    +0.000 A 
ATOM     27  N   UNL     1      51.913   3.600  17.368  0.00  0.00    +0.000 N 
ATOM     28  C   UNL     1      51.148   4.733  17.531  0.00  0.00    +0.000 A 
ATOM     29  O   UNL     1      51.677   5.814  17.756  0.00  0.00    +0.000 OA
ATOM     30  C   UNL     1      49.716   4.487  17.514  0.00  0.00    +0.000 A 
ATOM     31  H   UNL     1      52.911   3.741  17.368  0.00  0.00    +0.000 HD
ENDBRANCH  19  21
ENDBRANCH   1  18
TORSDOF 5
ENDMDL
MODEL 6
REMARK VINA RESULT:    -6.663      3.387      8.041
REMARK INTER + INTRA:          -9.879
REMARK INTER:                  -8.392
REMARK INTRA:                  -1.486
REMARK UNBOUND:                -1.269
REMARK  Name = 
REMARK  7 active torsions:
REMARK  status: ('A' for Active; 'I' for Inactive)
REMARK    1  A    between atoms: C_1  and  N_2
REMARK    2  A    between atoms: N_2  and  C_3
REMARK    3  A    between atoms: C_3  and  C_4
REMARK    4  A    between atoms: C_7  and  C_8
REMARK    5  A    between atoms: C_8  and  N_9
REMARK    6  A    between atoms: N_9  and  C_10
REMARK    7  A    between atoms: C_19  and  C_21
REMARK                            x       y       z     vdW  Elec       q    Type
REMARK                         _______ _______ _______ _____ _____    ______ ____
ROOT
ATOM      1  C   UNL     1      49.512   8.477  16.745  0.00  0.00    +0.000 C 
ENDROOT
BRANCH   1   2
ATOM      2  C   UNL     1      49.000   8.178  15.359  0.00  0.00    +0.000 A 
ATOM      3  C   UNL     1      47.992   8.974  14.792  0.00  0.00    +0.000 A 
ATOM      4  C   UNL     1      47.403   8.609  13.582  0.00  0.00    +0.000 A 
ATOM      5  C   UNL     1      47.801   7.434  12.931  0.00  0.00    +0.000 A 
ATOM      6  C   UNL     1      48.881   6.702  13.442  0.00  0.00    +0.000 A 
ATOM      7  C   UNL     1      49.472   7.068  14.651  0.00  0.00    +0.000 A 
BRANCH   5   8
ATOM      8  C   UNL     1      46.976   6.883  11.786  0.00  0.00    +0.000 C 
BRANCH   8   9
ATOM      9  N   UNL     1      45.529   6.835  11.991  0.00  0.00    +0.000 N 
ATOM     10  C   UNL     1      44.707   7.899  11.419  0.00  0.00    +0.000 C 
ATOM     11  C   UNL     1      44.950   5.550  11.877  0.00  0.00    +0.000 A 
ATOM     12  C   UNL     1      45.617   4.407  12.336  0.00  0.00    +0.000 A 
ATOM     13  C   UNL     1      44.984   3.162  12.340  0.00  0.00    +0.000 A 
ATOM     14  C   UNL     1      43.686   3.065  11.878  0.00  0.00    +0.000 A 
ATOM     15  C   UNL     1      43.092   4.216  11.403  0.00  0.00    +0.000 A 
ATOM     16  N   UNL     1      43.692   5.431  11.394  0.00  0.00    +0.000 NA
ENDBRANCH   8   9
ENDBRANCH   5   8
ENDBRANCH   1   2
BRANCH   1  18
ATOM     17  C   UNL     1      47.666   9.078  18.403  0.00  0.00    +0.000 C 
ATOM     18  N   UNL     1      48.645   8.126  17.882  0.00  0.00    +0.000 N 
ATOM     19  C   UNL     1      48.716   6.907  18.585  0.00  0.00    +0.000 C 
ATOM     20  O   UNL     1      47.979   6.691  19.547  0.00  0.00    +0.000 OA
BRANCH  19  21
ATOM     21  C   UNL     1      49.699   5.886  18.195  0.00  0.00    +0.000 A 
ATOM     22  C   UNL     1      51.045   5.913  18.524  0.00  0.00    +0.000 A 
ATOM     23  S   UNL     1      51.913   4.543  17.988  0.00  0.00    +0.000 S 
ATOM     24  C   UNL     1      50.487   3.793  17.441  0.00  0.00    +0.000 A 
ATOM     25  N   UNL     1      50.508   2.521  16.964  0.00  0.00    +0.000 NA
ATOM     26  C   UNL     1      49.343   2.055  16.656  0.00  0.00    +0.000 A 
ATOM     27  N   UNL     1      48.167   2.753  16.752  0.00  0.00    +0.000 N 
ATOM     28  C   UNL     1      48.119   4.084  17.105  0.00  0.00    +0.000 A 
ATOM     29  O   UNL     1      47.098   4.736  16.935  0.00  0.00    +0.000 OA
ATOM     30  C   UNL     1      49.386   4.617  17.574  0.00  0.00    +0.000 A 
ATOM     31  H   UNL     1      47.300   2.354  16.430  0.00  0.00    +0.000 HD
ENDBRANCH  19  21
ENDBRANCH   1  18
TORSDOF 5
ENDMDL
MODEL 7
REMARK VINA RESULT:    -6.501      3.691      8.412
REMARK INTER + INTRA:          -9.670
REMARK INTER:                  -8.157
REMARK INTRA:                  -1.513
REMARK UNBOUND:                -1.269
REMARK  Name = 
REMARK  7 active torsions:
REMARK  status: ('A' for Active; 'I' for Inactive)
REMARK    1  A    between atoms: C_1  and  N_2
REMARK    2  A    between atoms: N_2  and  C_3
REMARK    3  A    between atoms: C_3  and  C_4
REMARK    4  A    between atoms: C_7  and  C_8
REMARK    5  A    between atoms: C_8  and  N_9
REMARK    6  A    between atoms: N_9  and  C_10
REMARK    7  A    between atoms: C_19  and  C_21
REMARK                            x       y       z     vdW  Elec       q    Type
REMARK                         _______ _______ _______ _____ _____    ______ ____
ROOT
ATOM      1  C   UNL     1      49.756   8.227  12.274  0.00  0.00    +0.000 C 
ENDROOT
BRANCH   1   2
ATOM      2  C   UNL     1      48.362   7.690  12.481  0.00  0.00    +0.000 A 
ATOM      3  C   UNL     1      48.172   6.419  13.046  0.00  0.00    +0.000 A 
ATOM      4  C   UNL     1      46.899   5.852  13.092  0.00  0.00    +0.000 A 
ATOM      5  C   UNL     1      45.801   6.540  12.559  0.00  0.00    +0.000 A 
ATOM      6  C   UNL     1      45.975   7.851  12.096  0.00  0.00    +0.000 A 
ATOM      7  C   UNL     1      47.249   8.420  12.052  0.00  0.00    +0.000 A 
BRANCH   5   8
ATOM      8  C   UNL     1      44.486   5.820  12.341  0.00  0.00    +0.000 C 
BRANCH   8   9
ATOM      9  N   UNL     1      44.569   4.391  12.042  0.00  0.00    +0.000 N 
ATOM     10  C   UNL     1      43.689   3.475  12.764  0.00  0.00    +0.000 C 
ATOM     11  C   UNL     1      44.713   4.073  10.672  0.00  0.00    +0.000 A 
ATOM     12  C   UNL     1      45.489   4.867   9.817  0.00  0.00    +0.000 A 
ATOM     13  C   UNL     1      45.734   4.474   8.500  0.00  0.00    +0.000 A 
ATOM     14  C   UNL     1      45.195   3.287   8.040  0.00  0.00    +0.000 A 
ATOM     15  C   UNL     1      44.409   2.565   8.914  0.00  0.00    +0.000 A 
ATOM     16  N   UNL     1      44.163   2.933  10.195  0.00  0.00    +0.000 NA
ENDBRANCH   8   9
ENDBRANCH   5   8
ENDBRANCH   1   2
BRANCH   1  18
ATOM     17  C   UNL     1      49.933  10.763  12.053  0.00  0.00    +0.000 C 
ATOM     18  N   UNL     1      50.072   9.544  12.848  0.00  0.00    +0.000 N 
ATOM     19  C   UNL     1      50.573   9.742  14.150  0.00  0.00    +0.000 C 
ATOM     20  O   UNL     1      50.843  10.871  14.556  0.00  0.00    +0.000 OA
BRANCH  19  21
ATOM     21  C   UNL     1      50.810   8.589  15.031  0.00  0.00    +0.000 A 
ATOM     22  C   UNL     1      52.025   7.940  15.181  0.00  0.00    +0.000 A 
ATOM     23  S   UNL     1      51.998   6.684  16.337  0.00  0.00    +0.000 S 
ATOM     24  C   UNL     1      50.406   7.073  16.795  0.00  0.00    +0.000 A 
ATOM     25  N   UNL     1      49.806   6.441  17.837  0.00  0.00    +0.000 NA
ATOM     26  C   UNL     1      48.628   6.890  18.117  0.00  0.00    +0.000 A 
ATOM     27  N   UNL     1      47.984   7.889  17.433  0.00  0.00    +0.000 N 
ATOM     28  C   UNL     1      48.502   8.462  16.293  0.00  0.00    +0.000 A 
ATOM     29  O   UNL     1      47.799   9.158  15.572  0.00  0.00    +0.000 OA
ATOM     30  C   UNL     1      49.873   8.076  16.007  0.00  0.00    +0.000 A 
ATOM     31  H   UNL     1      47.036   8.144  17.660  0.00  0.00    +0.000 HD
ENDBRANCH  19  21
ENDBRANCH   1  18
TORSDOF 5
ENDMDL
MODEL 8
REMARK VINA RESULT:    -6.466      4.004      5.436
REMARK INTER + INTRA:          -9.625
REMARK INTER:                  -8.596
REMARK INTRA:                  -1.029
REMARK UNBOUND:                -1.269
REMARK  Name = 
REMARK  7 active torsions:
REMARK  status: ('A' for Active; 'I' for Inactive)
REMARK    1  A    between atoms: C_1  and  N_2
REMARK    2  A    between atoms: N_2  and  C_3
REMARK    3  A    between atoms: C_3  and  C_4
REMARK    4  A    between atoms: C_7  and  C_8
REMARK    5  A    between atoms: C_8  and  N_9
REMARK    6  A    between atoms: N_9  and  C_10
REMARK    7  A    between atoms: C_19  and  C_21
REMARK                            x       y       z     vdW  Elec       q    Type
REMARK                         _______ _______ _______ _____ _____    ______ ____
ROOT
ATOM      1  C   UNL     1      46.511   6.339  12.679  0.00  0.00    +0.000 C 
ENDROOT
BRANCH   1   2
ATOM      2  C   UNL     1      47.845   7.041  12.669  0.00  0.00    +0.000 A 
ATOM      3  C   UNL     1      48.325   7.625  11.486  0.00  0.00    +0.000 A 
ATOM      4  C   UNL     1      49.622   8.134  11.428  0.00  0.00    +0.000 A 
ATOM      5  C   UNL     1      50.464   8.049  12.545  0.00  0.00    +0.000 A 
ATOM      6  C   UNL     1      49.946   7.566  13.755  0.00  0.00    +0.000 A 
ATOM      7  C   UNL     1      48.647   7.060  13.814  0.00  0.00    +0.000 A 
BRANCH   5   8
ATOM      8  C   UNL     1      51.946   8.327  12.404  0.00  0.00    +0.000 C 
BRANCH   8   9
ATOM      9  N   UNL     1      52.368   8.992  11.172  0.00  0.00    +0.000 N 
ATOM     10  C   UNL     1      52.828  10.376  11.249  0.00  0.00    +0.000 C 
ATOM     11  C   UNL     1      53.130   8.192  10.290  0.00  0.00    +0.000 A 
ATOM     12  C   UNL     1      52.855   6.828  10.121  0.00  0.00    +0.000 A 
ATOM     13  C   UNL     1      53.524   6.077   9.153  0.00  0.00    +0.000 A 
ATOM     14  C   UNL     1      54.473   6.693   8.358  0.00  0.00    +0.000 A 
ATOM     15  C   UNL     1      54.728   8.028   8.594  0.00  0.00    +0.000 A 
ATOM     16  N   UNL     1      54.087   8.771   9.529  0.00  0.00    +0.000 NA
ENDBRANCH   8   9
ENDBRANCH   5   8
ENDBRANCH   1   2
BRANCH   1  18
ATOM     17  C   UNL     1      45.253   8.537  12.366  0.00  0.00    +0.000 C 
ATOM     18  N   UNL     1      45.341   7.089  12.194  0.00  0.00    +0.000 N 
ATOM     19  C   UNL     1      44.214   6.495  11.592  0.00  0.00    +0.000 C 
ATOM     20  O   UNL     1      43.257   7.181  11.235  0.00  0.00    +0.000 OA
BRANCH  19  21
ATOM     21  C   UNL     1      44.156   5.037  11.412  0.00  0.00    +0.000 A 
ATOM     22  C   UNL     1      43.405   4.170  12.190  0.00  0.00    +0.000 A 
ATOM     23  S   UNL     1      43.487   2.542  11.682  0.00  0.00    +0.000 S 
ATOM     24  C   UNL     1      44.397   2.965  10.308  0.00  0.00    +0.000 A 
ATOM     25  N   UNL     1      44.712   2.037   9.368  0.00  0.00    +0.000 NA
ATOM     26  C   UNL     1      45.340   2.514   8.345  0.00  0.00    +0.000 A 
ATOM     27  N   UNL     1      45.707   3.826   8.192  0.00  0.00    +0.000 N 
ATOM     28  C   UNL     1      45.523   4.770   9.178  0.00  0.00    +0.000 A 
ATOM     29  O   UNL     1      46.084   5.856   9.112  0.00  0.00    +0.000 OA
ATOM     30  C   UNL     1      44.717   4.309  10.295  0.00  0.00    +0.000 A 
ATOM     31  H   UNL     1      46.256   4.121   7.400  0.00  0.00    +0.000 HD
ENDBRANCH  19  21
ENDBRANCH   1  18
TORSDOF 5
ENDMDL
MODEL 9
REMARK VINA RESULT:    -6.443      2.638      4.308
REMARK INTER + INTRA:          -9.595
REMARK INTER:                  -8.669
REMARK INTRA:                  -0.926
REMARK UNBOUND:                -1.269
REMARK  Name = 
REMARK  7 active torsions:
REMARK  status: ('A' for Active; 'I' for Inactive)
REMARK    1  A    between atoms: C_1  and  N_2
REMARK    2  A    between atoms: N_2  and  C_3
REMARK    3  A    between atoms: C_3  and  C_4
REMARK    4  A    between atoms: C_7  and  C_8
REMARK    5  A    between atoms: C_8  and  N_9
REMARK    6  A    between atoms: N_9  and  C_10
REMARK    7  A    between atoms: C_19  and  C_21
REMARK                            x       y       z     vdW  Elec       q    Type
REMARK                         _______ _______ _______ _____ _____    ______ ____
ROOT
ATOM      1  C   UNL     1      47.412   6.207  12.643  0.00  0.00    +0.000 C 
ENDROOT
BRANCH   1   2
ATOM      2  C   UNL     1      48.108   6.143  13.979  0.00  0.00    +0.000 A 
ATOM      3  C   UNL     1      47.594   5.331  15.003  0.00  0.00    +0.000 A 
ATOM      4  C   UNL     1      48.137   5.389  16.286  0.00  0.00    +0.000 A 
ATOM      5  C   UNL     1      49.187   6.273  16.568  0.00  0.00    +0.000 A 
ATOM      6  C   UNL     1      49.768   7.000  15.521  0.00  0.00    +0.000 A 
ATOM      7  C   UNL     1      49.227   6.941  14.236  0.00  0.00    +0.000 A 
BRANCH   5   8
ATOM      8  C   UNL     1      49.579   6.553  18.004  0.00  0.00    +0.000 C 
BRANCH   8   9
ATOM      9  N   UNL     1      48.576   6.249  19.024  0.00  0.00    +0.000 N 
ATOM     10  C   UNL     1      48.765   5.065  19.858  0.00  0.00    +0.000 C 
ATOM     11  C   UNL     1      48.087   7.369  19.735  0.00  0.00    +0.000 A 
ATOM     12  C   UNL     1      47.884   8.602  19.102  0.00  0.00    +0.000 A 
ATOM     13  C   UNL     1      47.277   9.662  19.778  0.00  0.00    +0.000 A 
ATOM     14  C   UNL     1      46.881   9.487  21.090  0.00  0.00    +0.000 A 
ATOM     15  C   UNL     1      47.140   8.264  21.674  0.00  0.00    +0.000 A 
ATOM     16  N   UNL     1      47.727   7.225  21.031  0.00  0.00    +0.000 NA
ENDBRANCH   8   9
ENDBRANCH   5   8
ENDBRANCH   1   2
BRANCH   1  18
ATOM     17  C   UNL     1      46.558   8.555  13.164  0.00  0.00    +0.000 C 
ATOM     18  N   UNL     1      46.448   7.298  12.427  0.00  0.00    +0.000 N 
ATOM     19  C   UNL     1      45.337   7.215  11.565  0.00  0.00    +0.000 C 
ATOM     20  O   UNL     1      44.554   8.157  11.454  0.00  0.00    +0.000 OA
BRANCH  19  21
ATOM     21  C   UNL     1      45.083   5.981  10.807  0.00  0.00    +0.000 A 
ATOM     22  C   UNL     1      45.621   5.688   9.564  0.00  0.00    +0.000 A 
ATOM     23  S   UNL     1      45.197   4.141   8.977  0.00  0.00    +0.000 S 
ATOM     24  C   UNL     1      44.413   3.748  10.435  0.00  0.00    +0.000 A 
ATOM     25  N   UNL     1      43.915   2.503  10.645  0.00  0.00    +0.000 NA
ATOM     26  C   UNL     1      43.415   2.326  11.823  0.00  0.00    +0.000 A 
ATOM     27  N   UNL     1      43.341   3.289  12.796  0.00  0.00    +0.000 N 
ATOM     28  C   UNL     1      43.713   4.597  12.579  0.00  0.00    +0.000 A 
ATOM     29  O   UNL     1      43.399   5.474  13.373  0.00  0.00    +0.000 OA
ATOM     30  C   UNL     1      44.390   4.816  11.312  0.00  0.00    +0.000 A 
ATOM     31  H   UNL     1      42.875   3.105  13.671  0.00  0.00    +0.000 HD
ENDBRANCH  19  21
ENDBRANCH   1  18
TORSDOF 5
ENDMDL
