MODEL 1
REMARK VINA RESULT:    -7.528      0.000      0.000
REMARK INTER + INTRA:         -10.496
REMARK INTER:                  -9.948
REMARK INTRA:                  -0.547
REMARK UNBOUND:                -0.547
REMARK  Name = 
REMARK  6 active torsions:
REMARK  status: ('A' for Active; 'I' for Inactive)
REMARK    1  A    between atoms: N_1  and  C_2
REMARK    2  A    between atoms: C_2  and  C_3
REMARK    3  A    between atoms: C_7  and  C_8
REMARK    4  A    between atoms: C_8  and  C_9
REMARK    5  A    between atoms: C_9  and  N_10
REMARK    6  A    between atoms: C_14  and  C_15
REMARK                            x       y       z     vdW  Elec       q    Type
REMARK                         _______ _______ _______ _____ _____    ______ ____
ROOT
ATOM      1  N   UNL     1      43.866   5.029  10.046  0.00  0.00    +0.000 N 
ATOM      2  C   UNL     1      44.640   4.038   9.409  0.00  0.00    +0.000 A 
ATOM      3  C   UNL     1      45.470   4.409   8.352  0.00  0.00    +0.000 A 
ATOM      4  C   UNL     1      46.234   3.432   7.703  0.00  0.00    +0.000 A 
ATOM      5  C   UNL     1      46.157   2.102   8.119  0.00  0.00    +0.000 A 
ATOM      6  C   UNL     1      45.297   1.823   9.165  0.00  0.00    +0.000 A 
ATOM      7  N   UNL     1      44.547   2.754   9.803  0.00  0.00    +0.000 NA
ATOM      8  H   UNL     1      44.487   5.772  10.357  0.00  0.00    +0.000 HD
ENDROOT
BRANCH   5   9
ATOM      9  C   UNL     1      46.975   1.070   7.440  0.00  0.00    +0.000 C 
ATOM     10  N   UNL     1      47.921   1.460   6.530  0.00  0.00    +0.000 N 
ATOM     11  O   UNL     1      46.813  -0.123   7.676  0.00  0.00    +0.000 OA
ATOM     12  H   UNL     1      48.125   2.407   6.251  0.00  0.00    +0.000 HD
ATOM     13  H   UNL     1      48.450   0.721   6.083  0.00  0.00    +0.000 HD
ENDBRANCH   5   9
BRANCH   1  14
ATOM     14  C   UNL     1      43.050   4.489  11.141  0.00  0.00    +0.000 C 
BRANCH  14  15
ATOM     15  C   UNL     1      43.165   5.356  12.400  0.00  0.00    +0.000 C 
BRANCH  15  20
ATOM     16  C   UNL     1      46.489   7.092  13.167  0.00  0.00    +0.000 A 
ATOM     17  C   UNL     1      47.253   6.006  13.616  0.00  0.00    +0.000 A 
ATOM     18  C   UNL     1      46.714   4.720  13.640  0.00  0.00    +0.000 A 
ATOM     19  C   UNL     1      45.401   4.502  13.224  0.00  0.00    +0.000 A 
ATOM     20  C   UNL     1      44.616   5.570  12.771  0.00  0.00    +0.000 A 
ATOM     21  C   UNL     1      45.172   6.860  12.742  0.00  0.00    +0.000 A 
BRANCH  16  22
ATOM     22  C   UNL     1      47.045   8.494  13.216  0.00  0.00    +0.000 C 
BRANCH  22  23
ATOM     23  N   UNL     1      47.281   8.950  14.581  0.00  0.00    +0.000 NA
ATOM     24  H   UNL     1      46.512   8.637  15.170  0.00  0.00    +0.000 HD
ATOM     25  H   UNL     1      47.256   9.969  14.592  0.00  0.00    +0.000 HD
ENDBRANCH  22  23
ENDBRANCH  16  22
ENDBRANCH  15  20
ENDBRANCH  14  15
ENDBRANCH   1  14
TORSDOF 6
ENDMDL
MODEL 2
REMARK VINA RESULT:    -7.509      1.835      2.459
REMARK INTER + INTRA:         -10.471
REMARK INTER:                  -9.911
REMARK INTRA:                  -0.560
REMARK UNBOUND:                -0.547
REMARK  Name = 
REMARK  6 active torsions:
REMARK  status: ('A' for Active; 'I' for Inactive)
REMARK    1  A    between atoms: N_1  and  C_2
REMARK    2  A    between atoms: C_2  and  C_3
REMARK    3  A    between atoms: C_7  and  C_8
REMARK    4  A    between atoms: C_8  and  C_9
REMARK    5  A    between atoms: C_9  and  N_10
REMARK    6  A    between atoms: C_14  and  C_15
REMARK                            x       y       z     vdW  Elec       q    Type
REMARK                         _______ _______ _______ _____ _____    ______ ____
ROOT
ATOM      1  N   UNL     1      43.958   3.525  10.296  0.00  0.00    +0.000 N 
ATOM      2  C   UNL     1      44.839   3.238   9.235  0.00  0.00    +0.000 A 
ATOM      3  C   UNL     1      45.333   1.942   9.101  0.00  0.00    +0.000 A 
ATOM      4  C   UNL     1      46.218   1.647   8.058  0.00  0.00    +0.000 A 
ATOM      5  C   UNL     1      46.597   2.651   7.166  0.00  0.00    +0.000 A 
ATOM      6  C   UNL     1      46.070   3.911   7.382  0.00  0.00    +0.000 A 
ATOM      7  N   UNL     1      45.215   4.216   8.388  0.00  0.00    +0.000 NA
ATOM      8  H   UNL     1      43.176   2.877  10.250  0.00  0.00    +0.000 HD
ENDROOT
BRANCH   5   9
ATOM      9  C   UNL     1      47.525   2.336   6.055  0.00  0.00    +0.000 C 
ATOM     10  N   UNL     1      48.875   2.419   6.269  0.00  0.00    +0.000 N 
ATOM     11  O   UNL     1      47.103   2.009   4.951  0.00  0.00    +0.000 OA
ATOM     12  H   UNL     1      49.327   2.692   7.127  0.00  0.00    +0.000 HD
ATOM     13  H   UNL     1      49.472   2.204   5.480  0.00  0.00    +0.000 HD
ENDBRANCH   5   9
BRANCH   1  14
ATOM     14  C   UNL     1      43.519   4.927  10.302  0.00  0.00    +0.000 C 
BRANCH  14  15
ATOM     15  C   UNL     1      43.505   5.499  11.724  0.00  0.00    +0.000 C 
BRANCH  15  20
ATOM     16  C   UNL     1      46.788   5.422  13.690  0.00  0.00    +0.000 A 
ATOM     17  C   UNL     1      47.563   6.315  12.938  0.00  0.00    +0.000 A 
ATOM     18  C   UNL     1      47.023   6.964  11.827  0.00  0.00    +0.000 A 
ATOM     19  C   UNL     1      45.704   6.720  11.446  0.00  0.00    +0.000 A 
ATOM     20  C   UNL     1      44.907   5.833  12.180  0.00  0.00    +0.000 A 
ATOM     21  C   UNL     1      45.458   5.193  13.303  0.00  0.00    +0.000 A 
BRANCH  16  22
ATOM     22  C   UNL     1      47.394   4.662  14.843  0.00  0.00    +0.000 C 
BRANCH  22  23
ATOM     23  N   UNL     1      47.455   3.227  14.590  0.00  0.00    +0.000 NA
ATOM     24  H   UNL     1      46.661   2.960  14.012  0.00  0.00    +0.000 HD
ATOM     25  H   UNL     1      47.344   2.735  15.476  0.00  0.00    +0.000 HD
ENDBRANCH  22  23
ENDBRANCH  16  22
ENDBRANCH  15  20
ENDBRANCH  14  15
ENDBRANCH   1  14
TORSDOF 6
ENDMDL
MODEL 3
REMARK VINA RESULT:    -7.253      2.583      6.986
REMARK INTER + INTRA:         -10.133
REMARK INTER:                  -9.583
REMARK INTRA:                  -0.550
REMARK UNBOUND:                -0.547
REMARK  Name = 
REMARK  6 active torsions:
REMARK  status: ('A' for Active; 'I' for Inactive)
REMARK    1  A    between atoms: N_1  and  C_2
REMARK    2  A    between atoms: C_2  and  C_3
REMARK    3  A    between atoms: C_7  and  C_8
REMARK    4  A    between atoms: C_8  and  C_9
REMARK    5  A    between atoms: C_9  and  N_10
REMARK    6  A    between atoms: C_14  and  C_15
REMARK                            x       y       z     vdW  Elec       q    Type
REMARK                         _______ _______ _______ _____ _____    ______ ____
ROOT
ATOM      1  N   UNL     1      44.854   3.056  12.162  0.00  0.00    +0.000 N 
ATOM      2  C   UNL     1      45.532   4.242  12.507  0.00  0.00    +0.000 A 
ATOM      3  C   UNL     1      46.477   4.204  13.531  0.00  0.00    +0.000 A 
ATOM      4  C   UNL     1      47.147   5.379  13.891  0.00  0.00    +0.000 A 
ATOM      5  C   UNL     1      46.864   6.572  13.224  0.00  0.00    +0.000 A 
ATOM      6  C   UNL     1      45.902   6.520  12.232  0.00  0.00    +0.000 A 
ATOM      7  N   UNL     1      45.239   5.394  11.872  0.00  0.00    +0.000 NA
ATOM      8  H   UNL     1      45.545   2.341  11.949  0.00  0.00    +0.000 HD
ENDROOT
BRANCH   5   9
ATOM      9  C   UNL     1      47.582   7.813  13.598  0.00  0.00    +0.000 C 
ATOM     10  N   UNL     1      46.904   8.805  14.253  0.00  0.00    +0.000 N 
ATOM     11  O   UNL     1      48.768   7.963  13.325  0.00  0.00    +0.000 OA
ATOM     12  H   UNL     1      45.930   8.792  14.511  0.00  0.00    +0.000 HD
ATOM     13  H   UNL     1      47.432   9.639  14.481  0.00  0.00    +0.000 HD
ENDBRANCH   5   9
BRANCH   1  14
ATOM     14  C   UNL     1      43.897   3.252  11.066  0.00  0.00    +0.000 C 
BRANCH  14  15
ATOM     15  C   UNL     1      44.084   2.196   9.970  0.00  0.00    +0.000 C 
BRANCH  15  20
ATOM     16  C   UNL     1      46.882   2.069   7.362  0.00  0.00    +0.000 A 
ATOM     17  C   UNL     1      46.968   3.422   7.006  0.00  0.00    +0.000 A 
ATOM     18  C   UNL     1      46.157   4.373   7.625  0.00  0.00    +0.000 A 
ATOM     19  C   UNL     1      45.240   3.983   8.601  0.00  0.00    +0.000 A 
ATOM     20  C   UNL     1      45.134   2.638   8.975  0.00  0.00    +0.000 A 
ATOM     21  C   UNL     1      45.963   1.690   8.353  0.00  0.00    +0.000 A 
BRANCH  16  22
ATOM     22  C   UNL     1      47.704   1.031   6.638  0.00  0.00    +0.000 C 
BRANCH  22  23
ATOM     23  N   UNL     1      48.306   1.552   5.417  0.00  0.00    +0.000 NA
ATOM     24  H   UNL     1      47.660   1.408   4.643  0.00  0.00    +0.000 HD
ATOM     25  H   UNL     1      49.138   1.003   5.204  0.00  0.00    +0.000 HD
ENDBRANCH  22  23
ENDBRANCH  16  22
ENDBRANCH  15  20
ENDBRANCH  14  15
ENDBRANCH   1  14
TORSDOF 6
ENDMDL
MODEL 4
REMARK VINA RESULT:    -6.378      4.864      6.567
REMARK INTER + INTRA:          -8.976
REMARK INTER:                  -8.645
REMARK INTRA:                  -0.331
REMARK UNBOUND:                -0.547
REMARK  Name = 
REMARK  6 active torsions:
REMARK  status: ('A' for Active; 'I' for Inactive)
REMARK    1  A    between atoms: N_1  and  C_2
REMARK    2  A    between atoms: C_2  and  C_3
REMARK    3  A    between atoms: C_7  and  C_8
REMARK    4  A    between atoms: C_8  and  C_9
REMARK    5  A    between atoms: C_9  and  N_10
REMARK    6  A    between atoms: C_14  and  C_15
REMARK                            x       y       z     vdW  Elec       q    Type
REMARK                         _______ _______ _______ _____ _____    ______ ____
ROOT
ATOM      1  N   UNL     1      47.333   5.012  15.234  0.00  0.00    +0.000 N 
ATOM      2  C   UNL     1      46.652   4.965  14.001  0.00  0.00    +0.000 A 
ATOM      3  C   UNL     1      46.555   6.129  13.241  0.00  0.00    +0.000 A 
ATOM      4  C   UNL     1      45.870   6.098  12.020  0.00  0.00    +0.000 A 
ATOM      5  C   UNL     1      45.294   4.906  11.579  0.00  0.00    +0.000 A 
ATOM      6  C   UNL     1      45.427   3.805  12.404  0.00  0.00    +0.000 A 
ATOM      7  N   UNL     1      46.081   3.816  13.590  0.00  0.00    +0.000 NA
ATOM      8  H   UNL     1      48.266   5.381  15.073  0.00  0.00    +0.000 HD
ENDROOT
BRANCH   5   9
ATOM      9  C   UNL     1      44.579   4.871  10.281  0.00  0.00    +0.000 C 
ATOM     10  N   UNL     1      45.302   4.929   9.120  0.00  0.00    +0.000 N 
ATOM     11  O   UNL     1      43.356   4.796  10.234  0.00  0.00    +0.000 OA
ATOM     12  H   UNL     1      46.303   5.007   9.044  0.00  0.00    +0.000 HD
ATOM     13  H   UNL     1      44.772   4.911   8.257  0.00  0.00    +0.000 HD
ENDBRANCH   5   9
BRANCH   1  14
ATOM     14  C   UNL     1      47.357   3.711  15.915  0.00  0.00    +0.000 C 
BRANCH  14  15
ATOM     15  C   UNL     1      47.718   3.865  17.396  0.00  0.00    +0.000 C 
BRANCH  15  20
ATOM     16  C   UNL     1      51.295   2.510  17.538  0.00  0.00    +0.000 A 
ATOM     17  C   UNL     1      52.011   3.690  17.780  0.00  0.00    +0.000 A 
ATOM     18  C   UNL     1      51.347   4.907  17.931  0.00  0.00    +0.000 A 
ATOM     19  C   UNL     1      49.957   4.963  17.832  0.00  0.00    +0.000 A 
ATOM     20  C   UNL     1      49.217   3.799  17.591  0.00  0.00    +0.000 A 
ATOM     21  C   UNL     1      49.896   2.577  17.450  0.00  0.00    +0.000 A 
BRANCH  16  22
ATOM     22  C   UNL     1      52.018   1.208  17.298  0.00  0.00    +0.000 C 
BRANCH  22  23
ATOM     23  N   UNL     1      51.579   0.154  18.205  0.00  0.00    +0.000 NA
ATOM     24  H   UNL     1      50.562   0.163  18.252  0.00  0.00    +0.000 HD
ATOM     25  H   UNL     1      51.913   0.372  19.143  0.00  0.00    +0.000 HD
ENDBRANCH  22  23
ENDBRANCH  16  22
ENDBRANCH  15  20
ENDBRANCH  14  15
ENDBRANCH   1  14
TORSDOF 6
ENDMDL
MODEL 5
REMARK VINA RESULT:    -6.108      3.583      7.104
REMARK INTER + INTRA:          -8.619
REMARK INTER:                  -8.119
REMARK INTRA:                  -0.500
REMARK UNBOUND:                -0.547
REMARK  Name = 
REMARK  6 active torsions:
REMARK  status: ('A' for Active; 'I' for Inactive)
REMARK    1  A    between atoms: N_1  and  C_2
REMARK    2  A    between atoms: C_2  and  C_3
REMARK    3  A    between atoms: C_7  and  C_8
REMARK    4  A    between atoms: C_8  and  C_9
REMARK    5  A    between atoms: C_9  and  N_10
REMARK    6  A    between atoms: C_14  and  C_15
REMARK                            x       y       z     vdW  Elec       q    Type
REMARK                         _______ _______ _______ _____ _____    ______ ____
ROOT
ATOM      1  N   UNL     1      48.303   7.031  13.678  0.00  0.00    +0.000 N 
ATOM      2  C   UNL     1      48.102   6.076  14.695  0.00  0.00    +0.000 A 
ATOM      3  C   UNL     1      48.586   6.344  15.974  0.00  0.00    +0.000 A 
ATOM      4  C   UNL     1      48.404   5.398  16.990  0.00  0.00    +0.000 A 
ATOM      5  C   UNL     1      47.742   4.201  16.713  0.00  0.00    +0.000 A 
ATOM      6  C   UNL     1      47.308   4.014  15.413  0.00  0.00    +0.000 A 
ATOM      7  N   UNL     1      47.479   4.915  14.416  0.00  0.00    +0.000 NA
ATOM      8  H   UNL     1      47.929   7.921  13.993  0.00  0.00    +0.000 HD
ENDROOT
BRANCH   5   9
ATOM      9  C   UNL     1      47.539   3.206  17.791  0.00  0.00    +0.000 C 
ATOM     10  N   UNL     1      48.436   3.148  18.824  0.00  0.00    +0.000 N 
ATOM     11  O   UNL     1      46.586   2.434  17.768  0.00  0.00    +0.000 OA
ATOM     12  H   UNL     1      49.258   3.721  18.932  0.00  0.00    +0.000 HD
ATOM     13  H   UNL     1      48.263   2.447  19.534  0.00  0.00    +0.000 HD
ENDBRANCH   5   9
BRANCH   1  14
ATOM     14  C   UNL     1      47.733   6.611  12.391  0.00  0.00    +0.000 C 
BRANCH  14  15
ATOM     15  C   UNL     1      46.378   7.281  12.138  0.00  0.00    +0.000 C 
BRANCH  15  20
ATOM     16  C   UNL     1      44.360   4.400  10.628  0.00  0.00    +0.000 A 
ATOM     17  C   UNL     1      43.402   4.200  11.630  0.00  0.00    +0.000 A 
ATOM     18  C   UNL     1      43.383   5.007  12.767  0.00  0.00    +0.000 A 
ATOM     19  C   UNL     1      44.329   6.020  12.923  0.00  0.00    +0.000 A 
ATOM     20  C   UNL     1      45.297   6.242  11.937  0.00  0.00    +0.000 A 
ATOM     21  C   UNL     1      45.301   5.429  10.791  0.00  0.00    +0.000 A 
BRANCH  16  22
ATOM     22  C   UNL     1      44.430   3.478   9.435  0.00  0.00    +0.000 C 
BRANCH  22  23
ATOM     23  N   UNL     1      44.318   4.197   8.171  0.00  0.00    +0.000 NA
ATOM     24  H   UNL     1      43.378   4.071   7.803  0.00  0.00    +0.000 HD
ATOM     25  H   UNL     1      44.951   3.769   7.497  0.00  0.00    +0.000 HD
ENDBRANCH  22  23
ENDBRANCH  16  22
ENDBRANCH  15  20
ENDBRANCH  14  15
ENDBRANCH   1  14
TORSDOF 6
ENDMDL
MODEL 6
REMARK VINA RESULT:    -6.073      3.755      6.029
REMARK INTER + INTRA:          -8.573
REMARK INTER:                  -8.061
REMARK INTRA:                  -0.512
REMARK UNBOUND:                -0.547
REMARK  Name = 
REMARK  6 active torsions:
REMARK  status: ('A' for Active; 'I' for Inactive)
REMARK    1  A    between atoms: N_1  and  C_2
REMARK    2  A    between atoms: C_2  and  C_3
REMARK    3  A    between atoms: C_7  and  C_8
REMARK    4  A    between atoms: C_8  and  C_9
REMARK    5  A    between atoms: C_9  and  N_10
REMARK    6  A    between atoms: C_14  and  C_15
REMARK                            x       y       z     vdW  Elec       q    Type
REMARK                         _______ _______ _______ _____ _____    ______ ____
ROOT
ATOM      1  N   UNL     1      47.417   7.572  13.701  0.00  0.00    +0.000 N 
ATOM      2  C   UNL     1      46.508   6.581  13.279  0.00  0.00    +0.000 A 
ATOM      3  C   UNL     1      45.284   6.976  12.742  0.00  0.00    +0.000 A 
ATOM      4  C   UNL     1      44.367   6.001  12.331  0.00  0.00    +0.000 A 
ATOM      5  C   UNL     1      44.687   4.648  12.463  0.00  0.00    +0.000 A 
ATOM      6  C   UNL     1      45.917   4.349  13.020  0.00  0.00    +0.000 A 
ATOM      7  N   UNL     1      46.815   5.278  13.427  0.00  0.00    +0.000 NA
ATOM      8  H   UNL     1      47.585   8.206  12.925  0.00  0.00    +0.000 HD
ENDROOT
BRANCH   5   9
ATOM      9  C   UNL     1      43.722   3.617  12.017  0.00  0.00    +0.000 C 
ATOM     10  N   UNL     1      43.816   2.350  12.527  0.00  0.00    +0.000 N 
ATOM     11  O   UNL     1      42.848   3.881  11.198  0.00  0.00    +0.000 OA
ATOM     12  H   UNL     1      44.501   2.023  13.189  0.00  0.00    +0.000 HD
ATOM     13  H   UNL     1      43.141   1.675  12.187  0.00  0.00    +0.000 HD
ENDBRANCH   5   9
BRANCH   1  14
ATOM     14  C   UNL     1      48.661   7.005  14.237  0.00  0.00    +0.000 C 
BRANCH  14  15
ATOM     15  C   UNL     1      48.839   7.356  15.718  0.00  0.00    +0.000 C 
BRANCH  15  20
ATOM     16  C   UNL     1      48.946   3.991  17.539  0.00  0.00    +0.000 A 
ATOM     17  C   UNL     1      50.322   3.867  17.778  0.00  0.00    +0.000 A 
ATOM     18  C   UNL     1      51.204   4.874  17.386  0.00  0.00    +0.000 A 
ATOM     19  C   UNL     1      50.725   6.014  16.742  0.00  0.00    +0.000 A 
ATOM     20  C   UNL     1      49.355   6.163  16.492  0.00  0.00    +0.000 A 
ATOM     21  C   UNL     1      48.474   5.148  16.899  0.00  0.00    +0.000 A 
BRANCH  16  22
ATOM     22  C   UNL     1      48.001   2.868  17.891  0.00  0.00    +0.000 C 
BRANCH  22  23
ATOM     23  N   UNL     1      46.628   3.154  17.492  0.00  0.00    +0.000 NA
ATOM     24  H   UNL     1      46.221   3.808  18.157  0.00  0.00    +0.000 HD
ATOM     25  H   UNL     1      46.083   2.295  17.562  0.00  0.00    +0.000 HD
ENDBRANCH  22  23
ENDBRANCH  16  22
ENDBRANCH  15  20
ENDBRANCH  14  15
ENDBRANCH   1  14
TORSDOF 6
ENDMDL
MODEL 7
REMARK VINA RESULT:    -6.038      4.754      8.172
REMARK INTER + INTRA:          -8.526
REMARK INTER:                  -8.215
REMARK INTRA:                  -0.311
REMARK UNBOUND:                -0.547
REMARK  Name = 
REMARK  6 active torsions:
REMARK  status: ('A' for Active; 'I' for Inactive)
REMARK    1  A    between atoms: N_1  and  C_2
REMARK    2  A    between atoms: C_2  and  C_3
REMARK    3  A    between atoms: C_7  and  C_8
REMARK    4  A    between atoms: C_8  and  C_9
REMARK    5  A    between atoms: C_9  and  N_10
REMARK    6  A    between atoms: C_14  and  C_15
REMARK                            x       y       z     vdW  Elec       q    Type
REMARK                         _______ _______ _______ _____ _____    ______ ____
ROOT
ATOM      1  N   UNL     1      46.663   3.926  15.084  0.00  0.00    +0.000 N 
ATOM      2  C   UNL     1      47.558   4.103  16.158  0.00  0.00    +0.000 A 
ATOM      3  C   UNL     1      47.423   3.296  17.286  0.00  0.00    +0.000 A 
ATOM      4  C   UNL     1      48.298   3.471  18.365  0.00  0.00    +0.000 A 
ATOM      5  C   UNL     1      49.292   4.448  18.300  0.00  0.00    +0.000 A 
ATOM      6  C   UNL     1      49.344   5.212  17.148  0.00  0.00    +0.000 A 
ATOM      7  N   UNL     1      48.504   5.060  16.096  0.00  0.00    +0.000 NA
ATOM      8  H   UNL     1      46.692   2.950  14.798  0.00  0.00    +0.000 HD
ENDROOT
BRANCH   5   9
ATOM      9  C   UNL     1      50.225   4.625  19.437  0.00  0.00    +0.000 C 
ATOM     10  N   UNL     1      49.751   4.498  20.715  0.00  0.00    +0.000 N 
ATOM     11  O   UNL     1      51.409   4.888  19.250  0.00  0.00    +0.000 OA
ATOM     12  H   UNL     1      48.800   4.301  20.982  0.00  0.00    +0.000 HD
ATOM     13  H   UNL     1      50.422   4.636  21.462  0.00  0.00    +0.000 HD
ENDBRANCH   5   9
BRANCH   1  14
ATOM     14  C   UNL     1      46.934   4.841  13.967  0.00  0.00    +0.000 C 
BRANCH  14  15
ATOM     15  C   UNL     1      45.648   5.516  13.477  0.00  0.00    +0.000 C 
BRANCH  15  20
ATOM     16  C   UNL     1      44.787   3.869  10.131  0.00  0.00    +0.000 A 
ATOM     17  C   UNL     1      43.802   2.957  10.535  0.00  0.00    +0.000 A 
ATOM     18  C   UNL     1      43.394   2.896  11.868  0.00  0.00    +0.000 A 
ATOM     19  C   UNL     1      43.972   3.738  12.817  0.00  0.00    +0.000 A 
ATOM     20  C   UNL     1      44.957   4.659  12.440  0.00  0.00    +0.000 A 
ATOM     21  C   UNL     1      45.354   4.719  11.093  0.00  0.00    +0.000 A 
BRANCH  16  22
ATOM     22  C   UNL     1      45.284   3.882   8.707  0.00  0.00    +0.000 C 
BRANCH  22  23
ATOM     23  N   UNL     1      45.972   5.123   8.371  0.00  0.00    +0.000 NA
ATOM     24  H   UNL     1      45.292   5.790   8.012  0.00  0.00    +0.000 HD
ATOM     25  H   UNL     1      46.624   4.938   7.609  0.00  0.00    +0.000 HD
ENDBRANCH  22  23
ENDBRANCH  16  22
ENDBRANCH  15  20
ENDBRANCH  14  15
ENDBRANCH   1  14
TORSDOF 6
ENDMDL
MODEL 8
REMARK VINA RESULT:    -5.624      2.877      7.603
REMARK INTER + INTRA:          -7.980
REMARK INTER:                  -8.177
REMARK INTRA:                   0.197
REMARK UNBOUND:                -0.547
REMARK  Name = 
REMARK  6 active torsions:
REMARK  status: ('A' for Active; 'I' for Inactive)
REMARK    1  A    between atoms: N_1  and  C_2
REMARK    2  A    between atoms: C_2  and  C_3
REMARK    3  A    between atoms: C_7  and  C_8
REMARK    4  A    between atoms: C_8  and  C_9
REMARK    5  A    between atoms: C_9  and  N_10
REMARK    6  A    between atoms: C_14  and  C_15
REMARK                            x       y       z     vdW  Elec       q    Type
REMARK                         _______ _______ _______ _____ _____    ______ ____
ROOT
ATOM      1  N   UNL     1      44.432   3.776  10.622  0.00  0.00    +0.000 N 
ATOM      2  C   UNL     1      44.808   4.996  11.219  0.00  0.00    +0.000 A 
ATOM      3  C   UNL     1      45.013   5.035  12.597  0.00  0.00    +0.000 A 
ATOM      4  C   UNL     1      45.375   6.244  13.204  0.00  0.00    +0.000 A 
ATOM      5  C   UNL     1      45.526   7.393  12.425  0.00  0.00    +0.000 A 
ATOM      6  C   UNL     1      45.288   7.264  11.069  0.00  0.00    +0.000 A 
ATOM      7  N   UNL     1      44.933   6.105  10.465  0.00  0.00    +0.000 NA
ATOM      8  H   UNL     1      45.117   3.069  10.875  0.00  0.00    +0.000 HD
ENDROOT
BRANCH   5   9
ATOM      9  C   UNL     1      45.920   8.669  13.066  0.00  0.00    +0.000 C 
ATOM     10  N   UNL     1      46.805   8.646  14.111  0.00  0.00    +0.000 N 
ATOM     11  O   UNL     1      45.463   9.739  12.679  0.00  0.00    +0.000 OA
ATOM     12  H   UNL     1      47.227   7.826  14.517  0.00  0.00    +0.000 HD
ATOM     13  H   UNL     1      47.039   9.541  14.524  0.00  0.00    +0.000 HD
ENDBRANCH   5   9
BRANCH   1  14
ATOM     14  C   UNL     1      44.259   3.890   9.168  0.00  0.00    +0.000 C 
BRANCH  14  15
ATOM     15  C   UNL     1      45.599   4.144   8.467  0.00  0.00    +0.000 C 
BRANCH  15  20
ATOM     16  C   UNL     1      47.039   1.846   5.767  0.00  0.00    +0.000 A 
ATOM     17  C   UNL     1      47.112   0.634   6.468  0.00  0.00    +0.000 A 
ATOM     18  C   UNL     1      46.670   0.549   7.788  0.00  0.00    +0.000 A 
ATOM     19  C   UNL     1      46.157   1.676   8.429  0.00  0.00    +0.000 A 
ATOM     20  C   UNL     1      46.073   2.899   7.752  0.00  0.00    +0.000 A 
ATOM     21  C   UNL     1      46.512   2.971   6.419  0.00  0.00    +0.000 A 
BRANCH  16  22
ATOM     22  C   UNL     1      47.589   1.958   4.366  0.00  0.00    +0.000 C 
BRANCH  22  23
ATOM     23  N   UNL     1      47.375   0.743   3.588  0.00  0.00    +0.000 NA
ATOM     24  H   UNL     1      47.129  -0.015   4.221  0.00  0.00    +0.000 HD
ATOM     25  H   UNL     1      48.256   0.478   3.149  0.00  0.00    +0.000 HD
ENDBRANCH  22  23
ENDBRANCH  16  22
ENDBRANCH  15  20
ENDBRANCH  14  15
ENDBRANCH   1  14
TORSDOF 6
ENDMDL
MODEL 9
REMARK VINA RESULT:    -5.472      4.432      6.158
REMARK INTER + INTRA:          -7.778
REMARK INTER:                  -7.473
REMARK INTRA:                  -0.306
REMARK UNBOUND:                -0.547
REMARK  Name = 
REMARK  6 active torsions:
REMARK  status: ('A' for Active; 'I' for Inactive)
REMARK    1  A    between atoms: N_1  and  C_2
REMARK    2  A    between atoms: C_2  and  C_3
REMARK    3  A    between atoms: C_7  and  C_8
REMARK    4  A    between atoms: C_8  and  C_9
REMARK    5  A    between atoms: C_9  and  N_10
REMARK    6  A    between atoms: C_14  and  C_15
REMARK                            x       y       z     vdW  Elec       q    Type
REMARK                         _______ _______ _______ _____ _____    ______ ____
ROOT
ATOM      1  N   UNL     1      47.669   6.640  14.085  0.00  0.00    +0.000 N 
ATOM      2  C   UNL     1      46.738   6.014  13.231  0.00  0.00    +0.000 A 
ATOM      3  C   UNL     1      46.326   6.682  12.079  0.00  0.00    +0.000 A 
ATOM      4  C   UNL     1      45.392   6.077  11.230  0.00  0.00    +0.000 A 
ATOM      5  C   UNL     1      44.885   4.815  11.544  0.00  0.00    +0.000 A 
ATOM      6  C   UNL     1      45.338   4.233  12.714  0.00  0.00    +0.000 A 
ATOM      7  N   UNL     1      46.238   4.805  13.551  0.00  0.00    +0.000 NA
ATOM      8  H   UNL     1      48.488   6.892  13.538  0.00  0.00    +0.000 HD
ENDROOT
BRANCH   5   9
ATOM      9  C   UNL     1      43.906   4.170  10.639  0.00  0.00    +0.000 C 
ATOM     10  N   UNL     1      43.895   4.513   9.314  0.00  0.00    +0.000 N 
ATOM     11  O   UNL     1      43.106   3.341  11.061  0.00  0.00    +0.000 OA
ATOM     12  H   UNL     1      44.493   5.189   8.868  0.00  0.00    +0.000 HD
ATOM     13  H   UNL     1      43.203   4.053   8.734  0.00  0.00    +0.000 HD
ENDBRANCH   5   9
BRANCH   1  14
ATOM     14  C   UNL     1      48.009   5.813  15.250  0.00  0.00    +0.000 C 
BRANCH  14  15
ATOM     15  C   UNL     1      49.108   6.468  16.095  0.00  0.00    +0.000 C 
BRANCH  15  20
ATOM     16  C   UNL     1      48.497   5.769  19.808  0.00  0.00    +0.000 A 
ATOM     17  C   UNL     1      47.965   6.998  20.220  0.00  0.00    +0.000 A 
ATOM     18  C   UNL     1      47.773   8.033  19.305  0.00  0.00    +0.000 A 
ATOM     19  C   UNL     1      48.118   7.857  17.966  0.00  0.00    +0.000 A 
ATOM     20  C   UNL     1      48.651   6.638  17.527  0.00  0.00    +0.000 A 
ATOM     21  C   UNL     1      48.831   5.600  18.455  0.00  0.00    +0.000 A 
BRANCH  16  22
ATOM     22  C   UNL     1      48.778   4.678  20.811  0.00  0.00    +0.000 C 
BRANCH  22  23
ATOM     23  N   UNL     1      48.348   3.367  20.339  0.00  0.00    +0.000 NA
ATOM     24  H   UNL     1      47.953   3.466  19.406  0.00  0.00    +0.000 HD
ATOM     25  H   UNL     1      47.593   3.036  20.938  0.00  0.00    +0.000 HD
ENDBRANCH  22  23
ENDBRANCH  16  22
ENDBRANCH  15  20
ENDBRANCH  14  15
ENDBRANCH   1  14
TORSDOF 6
ENDMDL
