MODEL 1
REMARK VINA RESULT:    -7.480      0.000      0.000
REMARK INTER + INTRA:         -10.787
REMARK INTER:                  -9.885
REMARK INTRA:                  -0.902
REMARK UNBOUND:                -0.902
REMARK  Name = 
REMARK  6 active torsions:
REMARK  status: ('A' for Active; 'I' for Inactive)
REMARK    1  A    between atoms: C_2  and  C_3
REMARK    2  A    between atoms: C_7  and  N_8
REMARK    3  A    between atoms: N_8  and  C_9
REMARK    4  A    between atoms: C_9  and  C_10
REMARK    5  A    between atoms: C_14  and  N_15
REMARK    6  A    between atoms: C_18  and  O_19
REMARK                            x       y       z     vdW  Elec       q    Type
REMARK                         _______ _______ _______ _____ _____    ______ ____
ROOT
ATOM      1  C   UNL     1      44.973   4.900  12.376  0.00  0.00    +0.000 A 
ATOM      2  C   UNL     1      45.506   3.722  12.911  0.00  0.00    +0.000 A 
ATOM      3  C   UNL     1      46.726   3.737  13.575  0.00  0.00    +0.000 A 
ATOM      4  C   UNL     1      47.439   4.934  13.697  0.00  0.00    +0.000 A 
ATOM      5  C   UNL     1      46.936   6.151  13.216  0.00  0.00    +0.000 A 
ATOM      6  C   UNL     1      45.667   6.108  12.625  0.00  0.00    +0.000 A 
ENDROOT
BRANCH   5   7
ATOM      7  N   UNL     1      47.680   7.319  13.283  0.00  0.00    +0.000 N 
ATOM      8  C   UNL     1      49.111   7.276  12.959  0.00  0.00    +0.000 C 
ATOM      9  C   UNL     1      49.400   8.080  11.694  0.00  0.00    +0.000 C 
ATOM     10  C   UNL     1      48.819   9.489  11.757  0.00  0.00    +0.000 C 
ATOM     11  C   UNL     1      47.334   9.464  12.112  0.00  0.00    +0.000 C 
ATOM     12  C   UNL     1      47.065   8.647  13.373  0.00  0.00    +0.000 C 
BRANCH  10  13
ATOM     13  O   UNL     1      49.548  10.295  12.682  0.00  0.00    +0.000 OA
ATOM     14  H   UNL     1      50.125  10.902  12.190  0.00  0.00    +0.000 HD
ENDBRANCH  10  13
ENDBRANCH   5   7
BRANCH   1  15
ATOM     15  C   UNL     1      43.756   4.877  11.451  0.00  0.00    +0.000 C 
ATOM     16  C   UNL     1      42.448   5.382  12.066  0.00  0.00    +0.000 C 
ATOM     17  C   UNL     1      43.155   6.214  11.054  0.00  0.00    +0.000 C 
BRANCH  15  18
ATOM     18  N   UNL     1      43.658   3.669  10.602  0.00  0.00    +0.000 N 
ATOM     19  H   UNL     1      43.494   2.828  11.154  0.00  0.00    +0.000 HD
BRANCH  18  24
ATOM     20  C   UNL     1      45.978   1.966   8.198  0.00  0.00    +0.000 A 
ATOM     21  C   UNL     1      46.412   3.086   7.509  0.00  0.00    +0.000 A 
ATOM     22  N   UNL     1      45.974   4.336   7.774  0.00  0.00    +0.000 NA
ATOM     23  C   UNL     1      45.063   4.460   8.772  0.00  0.00    +0.000 A 
ATOM     24  C   UNL     1      44.532   3.401   9.523  0.00  0.00    +0.000 A 
ATOM     25  C   UNL     1      45.023   2.134   9.214  0.00  0.00    +0.000 A 
BRANCH  20  27
ATOM     26  N   UNL     1      46.944  -0.371   7.630  0.00  0.00    +0.000 NA
ATOM     27  C   UNL     1      46.512   0.677   7.889  0.00  0.00    +0.000 C 
ENDBRANCH  20  27
ENDBRANCH  18  24
ENDBRANCH  15  18
ENDBRANCH   1  15
TORSDOF 6
ENDMDL
MODEL 2
REMARK VINA RESULT:    -6.935      2.342      3.411
REMARK INTER + INTRA:         -10.067
REMARK INTER:                  -9.351
REMARK INTRA:                  -0.716
REMARK UNBOUND:                -0.902
REMARK  Name = 
REMARK  6 active torsions:
REMARK  status: ('A' for Active; 'I' for Inactive)
REMARK    1  A    between atoms: C_2  and  C_3
REMARK    2  A    between atoms: C_7  and  N_8
REMARK    3  A    between atoms: N_8  and  C_9
REMARK    4  A    between atoms: C_9  and  C_10
REMARK    5  A    between atoms: C_14  and  N_15
REMARK    6  A    between atoms: C_18  and  O_19
REMARK                            x       y       z     vdW  Elec       q    Type
REMARK                         _______ _______ _______ _____ _____    ______ ____
ROOT
ATOM      1  C   UNL     1      45.228   5.838  12.326  0.00  0.00    +0.000 A 
ATOM      2  C   UNL     1      45.490   7.165  11.968  0.00  0.00    +0.000 A 
ATOM      3  C   UNL     1      46.529   7.865  12.569  0.00  0.00    +0.000 A 
ATOM      4  C   UNL     1      47.310   7.249  13.551  0.00  0.00    +0.000 A 
ATOM      5  C   UNL     1      47.119   5.910  13.921  0.00  0.00    +0.000 A 
ATOM      6  C   UNL     1      46.114   5.215  13.236  0.00  0.00    +0.000 A 
ENDROOT
BRANCH   5   7
ATOM      7  N   UNL     1      47.854   5.329  14.943  0.00  0.00    +0.000 N 
ATOM      8  C   UNL     1      48.853   6.135  15.654  0.00  0.00    +0.000 C 
ATOM      9  C   UNL     1      48.442   6.336  17.112  0.00  0.00    +0.000 C 
ATOM     10  C   UNL     1      48.097   5.021  17.803  0.00  0.00    +0.000 C 
ATOM     11  C   UNL     1      47.067   4.226  17.005  0.00  0.00    +0.000 C 
ATOM     12  C   UNL     1      47.490   4.045  15.550  0.00  0.00    +0.000 C 
BRANCH  10  13
ATOM     13  O   UNL     1      49.274   4.245  18.027  0.00  0.00    +0.000 OA
ATOM     14  H   UNL     1      50.003   4.836  18.275  0.00  0.00    +0.000 HD
ENDBRANCH  10  13
ENDBRANCH   5   7
BRANCH   1  15
ATOM     15  C   UNL     1      43.963   5.120  11.855  0.00  0.00    +0.000 C 
ATOM     16  C   UNL     1      42.736   5.280  12.758  0.00  0.00    +0.000 C 
ATOM     17  C   UNL     1      42.782   5.982  11.446  0.00  0.00    +0.000 C 
BRANCH  15  18
ATOM     18  N   UNL     1      44.199   3.767  11.303  0.00  0.00    +0.000 N 
ATOM     19  H   UNL     1      44.578   3.131  12.004  0.00  0.00    +0.000 HD
BRANCH  18  24
ATOM     20  C   UNL     1      45.908   2.153   8.382  0.00  0.00    +0.000 A 
ATOM     21  C   UNL     1      46.120   3.288   7.619  0.00  0.00    +0.000 A 
ATOM     22  N   UNL     1      45.718   4.522   7.998  0.00  0.00    +0.000 NA
ATOM     23  C   UNL     1      45.079   4.611   9.191  0.00  0.00    +0.000 A 
ATOM     24  C   UNL     1      44.787   3.532  10.039  0.00  0.00    +0.000 A 
ATOM     25  C   UNL     1      45.229   2.284   9.605  0.00  0.00    +0.000 A 
BRANCH  20  27
ATOM     26  N   UNL     1      46.787  -0.151   7.583  0.00  0.00    +0.000 NA
ATOM     27  C   UNL     1      46.394   0.884   7.937  0.00  0.00    +0.000 C 
ENDBRANCH  20  27
ENDBRANCH  18  24
ENDBRANCH  15  18
ENDBRANCH   1  15
TORSDOF 6
ENDMDL
MODEL 3
REMARK VINA RESULT:    -6.861      3.041      6.936
REMARK INTER + INTRA:          -9.969
REMARK INTER:                  -9.010
REMARK INTRA:                  -0.959
REMARK UNBOUND:                -0.902
REMARK  Name = 
REMARK  6 active torsions:
REMARK  status: ('A' for Active; 'I' for Inactive)
REMARK    1  A    between atoms: C_2  and  C_3
REMARK    2  A    between atoms: C_7  and  N_8
REMARK    3  A    between atoms: N_8  and  C_9
REMARK    4  A    between atoms: C_9  and  C_10
REMARK    5  A    between atoms: C_14  and  N_15
REMARK    6  A    between atoms: C_18  and  O_19
REMARK                            x       y       z     vdW  Elec       q    Type
REMARK                         _______ _______ _______ _____ _____    ______ ____
ROOT
ATOM      1  C   UNL     1      45.160   5.000  11.768  0.00  0.00    +0.000 A 
ATOM      2  C   UNL     1      44.155   4.374  12.515  0.00  0.00    +0.000 A 
ATOM      3  C   UNL     1      43.495   3.258  12.014  0.00  0.00    +0.000 A 
ATOM      4  C   UNL     1      43.822   2.764  10.747  0.00  0.00    +0.000 A 
ATOM      5  C   UNL     1      44.846   3.326   9.972  0.00  0.00    +0.000 A 
ATOM      6  C   UNL     1      45.541   4.398  10.545  0.00  0.00    +0.000 A 
ENDROOT
BRANCH   5   7
ATOM      7  N   UNL     1      45.117   2.871   8.690  0.00  0.00    +0.000 N 
ATOM      8  C   UNL     1      45.407   3.845   7.631  0.00  0.00    +0.000 C 
ATOM      9  C   UNL     1      46.850   3.703   7.152  0.00  0.00    +0.000 C 
ATOM     10  C   UNL     1      47.200   2.265   6.787  0.00  0.00    +0.000 C 
ATOM     11  C   UNL     1      46.861   1.303   7.923  0.00  0.00    +0.000 C 
ATOM     12  C   UNL     1      45.418   1.468   8.395  0.00  0.00    +0.000 C 
BRANCH  10  13
ATOM     13  O   UNL     1      46.545   1.875   5.580  0.00  0.00    +0.000 OA
ATOM     14  H   UNL     1      45.919   1.159   5.775  0.00  0.00    +0.000 HD
ENDBRANCH  10  13
ENDBRANCH   5   7
BRANCH   1  15
ATOM     15  C   UNL     1      45.741   6.350  12.187  0.00  0.00    +0.000 C 
ATOM     16  C   UNL     1      45.238   7.561  11.397  0.00  0.00    +0.000 C 
ATOM     17  C   UNL     1      44.788   7.360  12.802  0.00  0.00    +0.000 C 
BRANCH  15  18
ATOM     18  N   UNL     1      47.189   6.322  12.494  0.00  0.00    +0.000 N 
ATOM     19  H   UNL     1      47.726   5.874  11.752  0.00  0.00    +0.000 HD
BRANCH  18  24
ATOM     20  C   UNL     1      47.686   4.808  15.888  0.00  0.00    +0.000 A 
ATOM     21  C   UNL     1      48.721   5.620  16.321  0.00  0.00    +0.000 A 
ATOM     22  N   UNL     1      49.263   6.598  15.563  0.00  0.00    +0.000 NA
ATOM     23  C   UNL     1      48.741   6.763  14.322  0.00  0.00    +0.000 A 
ATOM     24  C   UNL     1      47.711   5.991  13.765  0.00  0.00    +0.000 A 
ATOM     25  C   UNL     1      47.182   5.000  14.591  0.00  0.00    +0.000 A 
BRANCH  20  27
ATOM     26  N   UNL     1      46.682   3.016  17.468  0.00  0.00    +0.000 NA
ATOM     27  C   UNL     1      47.135   3.817  16.757  0.00  0.00    +0.000 C 
ENDBRANCH  20  27
ENDBRANCH  18  24
ENDBRANCH  15  18
ENDBRANCH   1  15
TORSDOF 6
ENDMDL
MODEL 4
REMARK VINA RESULT:    -6.816      1.392      2.233
REMARK INTER + INTRA:          -9.909
REMARK INTER:                  -9.631
REMARK INTRA:                  -0.278
REMARK UNBOUND:                -0.902
REMARK  Name = 
REMARK  6 active torsions:
REMARK  status: ('A' for Active; 'I' for Inactive)
REMARK    1  A    between atoms: C_2  and  C_3
REMARK    2  A    between atoms: C_7  and  N_8
REMARK    3  A    between atoms: N_8  and  C_9
REMARK    4  A    between atoms: C_9  and  C_10
REMARK    5  A    between atoms: C_14  and  N_15
REMARK    6  A    between atoms: C_18  and  O_19
REMARK                            x       y       z     vdW  Elec       q    Type
REMARK                         _______ _______ _______ _____ _____    ______ ____
ROOT
ATOM      1  C   UNL     1      45.102   5.764  11.642  0.00  0.00    +0.000 A 
ATOM      2  C   UNL     1      44.448   6.992  11.488  0.00  0.00    +0.000 A 
ATOM      3  C   UNL     1      45.099   8.181  11.791  0.00  0.00    +0.000 A 
ATOM      4  C   UNL     1      46.413   8.156  12.269  0.00  0.00    +0.000 A 
ATOM      5  C   UNL     1      47.131   6.959  12.406  0.00  0.00    +0.000 A 
ATOM      6  C   UNL     1      46.467   5.789  12.015  0.00  0.00    +0.000 A 
ENDROOT
BRANCH   5   7
ATOM      7  N   UNL     1      48.408   6.938  12.945  0.00  0.00    +0.000 N 
ATOM      8  C   UNL     1      49.547   7.314  12.099  0.00  0.00    +0.000 C 
ATOM      9  C   UNL     1      50.191   8.602  12.608  0.00  0.00    +0.000 C 
ATOM     10  C   UNL     1      50.515   8.539  14.097  0.00  0.00    +0.000 C 
ATOM     11  C   UNL     1      49.294   8.128  14.916  0.00  0.00    +0.000 C 
ATOM     12  C   UNL     1      48.659   6.845  14.386  0.00  0.00    +0.000 C 
BRANCH  10  13
ATOM     13  O   UNL     1      51.610   7.654  14.339  0.00  0.00    +0.000 OA
ATOM     14  H   UNL     1      52.351   7.901  13.763  0.00  0.00    +0.000 HD
ENDBRANCH  10  13
ENDBRANCH   5   7
BRANCH   1  15
ATOM     15  C   UNL     1      44.347   4.439  11.537  0.00  0.00    +0.000 C 
ATOM     16  C   UNL     1      44.884   3.301  12.409  0.00  0.00    +0.000 C 
ATOM     17  C   UNL     1      43.600   3.962  12.769  0.00  0.00    +0.000 C 
BRANCH  15  18
ATOM     18  N   UNL     1      43.940   4.077  10.161  0.00  0.00    +0.000 N 
ATOM     19  H   UNL     1      43.086   3.519  10.151  0.00  0.00    +0.000 HD
BRANCH  18  24
ATOM     20  C   UNL     1      46.174   1.936   8.042  0.00  0.00    +0.000 A 
ATOM     21  C   UNL     1      46.807   2.944   7.335  0.00  0.00    +0.000 A 
ATOM     22  N   UNL     1      46.526   4.255   7.500  0.00  0.00    +0.000 NA
ATOM     23  C   UNL     1      45.570   4.560   8.413  0.00  0.00    +0.000 A 
ATOM     24  C   UNL     1      44.845   3.629   9.172  0.00  0.00    +0.000 A 
ATOM     25  C   UNL     1      45.179   2.291   8.969  0.00  0.00    +0.000 A 
BRANCH  20  27
ATOM     26  N   UNL     1      46.854  -0.540   7.691  0.00  0.00    +0.000 NA
ATOM     27  C   UNL     1      46.548   0.571   7.844  0.00  0.00    +0.000 C 
ENDBRANCH  20  27
ENDBRANCH  18  24
ENDBRANCH  15  18
ENDBRANCH   1  15
TORSDOF 6
ENDMDL
MODEL 5
REMARK VINA RESULT:    -6.461      3.442      7.415
REMARK INTER + INTRA:          -9.441
REMARK INTER:                  -8.875
REMARK INTRA:                  -0.565
REMARK UNBOUND:                -0.902
REMARK  Name = 
REMARK  6 active torsions:
REMARK  status: ('A' for Active; 'I' for Inactive)
REMARK    1  A    between atoms: C_2  and  C_3
REMARK    2  A    between atoms: C_7  and  N_8
REMARK    3  A    between atoms: N_8  and  C_9
REMARK    4  A    between atoms: C_9  and  C_10
REMARK    5  A    between atoms: C_14  and  N_15
REMARK    6  A    between atoms: C_18  and  O_19
REMARK                            x       y       z     vdW  Elec       q    Type
REMARK                         _______ _______ _______ _____ _____    ______ ____
ROOT
ATOM      1  C   UNL     1      47.183   8.164  12.912  0.00  0.00    +0.000 A 
ATOM      2  C   UNL     1      46.671   9.322  12.316  0.00  0.00    +0.000 A 
ATOM      3  C   UNL     1      45.399   9.323  11.755  0.00  0.00    +0.000 A 
ATOM      4  C   UNL     1      44.630   8.156  11.767  0.00  0.00    +0.000 A 
ATOM      5  C   UNL     1      45.076   6.978  12.384  0.00  0.00    +0.000 A 
ATOM      6  C   UNL     1      46.328   7.041  13.008  0.00  0.00    +0.000 A 
ENDROOT
BRANCH   5   7
ATOM      7  N   UNL     1      44.334   5.808  12.333  0.00  0.00    +0.000 N 
ATOM      8  C   UNL     1      43.323   5.648  11.281  0.00  0.00    +0.000 C 
ATOM      9  C   UNL     1      43.717   4.526  10.323  0.00  0.00    +0.000 C 
ATOM     10  C   UNL     1      44.064   3.234  11.056  0.00  0.00    +0.000 C 
ATOM     11  C   UNL     1      45.108   3.473  12.143  0.00  0.00    +0.000 C 
ATOM     12  C   UNL     1      44.701   4.604  13.084  0.00  0.00    +0.000 C 
BRANCH  10  13
ATOM     13  O   UNL     1      42.890   2.632  11.602  0.00  0.00    +0.000 OA
ATOM     14  H   UNL     1      42.175   2.675  10.947  0.00  0.00    +0.000 HD
ENDBRANCH  10  13
ENDBRANCH   5   7
BRANCH   1  15
ATOM     15  C   UNL     1      48.650   8.065  13.331  0.00  0.00    +0.000 C 
ATOM     16  C   UNL     1      49.511   7.104  12.506  0.00  0.00    +0.000 C 
ATOM     17  C   UNL     1      49.692   8.574  12.351  0.00  0.00    +0.000 C 
BRANCH  15  18
ATOM     18  N   UNL     1      48.866   8.048  14.795  0.00  0.00    +0.000 N 
ATOM     19  H   UNL     1      49.480   8.805  15.098  0.00  0.00    +0.000 HD
BRANCH  18  24
ATOM     20  C   UNL     1      48.450   4.839  16.690  0.00  0.00    +0.000 A 
ATOM     21  C   UNL     1      49.741   4.723  17.176  0.00  0.00    +0.000 A 
ATOM     22  N   UNL     1      50.721   5.611  16.898  0.00  0.00    +0.000 NA
ATOM     23  C   UNL     1      50.384   6.656  16.101  0.00  0.00    +0.000 A 
ATOM     24  C   UNL     1      49.119   6.869  15.533  0.00  0.00    +0.000 A 
ATOM     25  C   UNL     1      48.144   5.927  15.856  0.00  0.00    +0.000 A 
BRANCH  20  27
ATOM     26  N   UNL     1      46.637   3.109  17.349  0.00  0.00    +0.000 NA
ATOM     27  C   UNL     1      47.453   3.882  17.055  0.00  0.00    +0.000 C 
ENDBRANCH  20  27
ENDBRANCH  18  24
ENDBRANCH  15  18
ENDBRANCH   1  15
TORSDOF 6
ENDMDL
MODEL 6
REMARK VINA RESULT:    -6.309      3.399      5.810
REMARK INTER + INTRA:          -9.239
REMARK INTER:                  -8.556
REMARK INTRA:                  -0.683
REMARK UNBOUND:                -0.902
REMARK  Name = 
REMARK  6 active torsions:
REMARK  status: ('A' for Active; 'I' for Inactive)
REMARK    1  A    between atoms: C_2  and  C_3
REMARK    2  A    between atoms: C_7  and  N_8
REMARK    3  A    between atoms: N_8  and  C_9
REMARK    4  A    between atoms: C_9  and  C_10
REMARK    5  A    between atoms: C_14  and  N_15
REMARK    6  A    between atoms: C_18  and  O_19
REMARK                            x       y       z     vdW  Elec       q    Type
REMARK                         _______ _______ _______ _____ _____    ______ ____
ROOT
ATOM      1  C   UNL     1      48.644   7.407  14.031  0.00  0.00    +0.000 A 
ATOM      2  C   UNL     1      49.909   7.994  13.915  0.00  0.00    +0.000 A 
ATOM      3  C   UNL     1      50.895   7.737  14.859  0.00  0.00    +0.000 A 
ATOM      4  C   UNL     1      50.621   6.899  15.944  0.00  0.00    +0.000 A 
ATOM      5  C   UNL     1      49.385   6.252  16.090  0.00  0.00    +0.000 A 
ATOM      6  C   UNL     1      48.445   6.474  15.076  0.00  0.00    +0.000 A 
ENDROOT
BRANCH   5   7
ATOM      7  N   UNL     1      49.100   5.477  17.204  0.00  0.00    +0.000 N 
ATOM      8  C   UNL     1      47.700   5.186  17.535  0.00  0.00    +0.000 C 
ATOM      9  C   UNL     1      47.411   3.694  17.383  0.00  0.00    +0.000 C 
ATOM     10  C   UNL     1      48.420   2.830  18.132  0.00  0.00    +0.000 C 
ATOM     11  C   UNL     1      49.854   3.193  17.755  0.00  0.00    +0.000 C 
ATOM     12  C   UNL     1      50.119   4.689  17.903  0.00  0.00    +0.000 C 
BRANCH  10  13
ATOM     13  O   UNL     1      48.225   2.933  19.543  0.00  0.00    +0.000 OA
ATOM     14  H   UNL     1      47.285   2.801  19.745  0.00  0.00    +0.000 HD
ENDBRANCH  10  13
ENDBRANCH   5   7
BRANCH   1  15
ATOM     15  C   UNL     1      47.477   7.844  13.144  0.00  0.00    +0.000 C 
ATOM     16  C   UNL     1      47.349   9.352  12.916  0.00  0.00    +0.000 C 
ATOM     17  C   UNL     1      47.816   8.477  11.807  0.00  0.00    +0.000 C 
BRANCH  15  18
ATOM     18  N   UNL     1      46.217   7.107  13.387  0.00  0.00    +0.000 N 
ATOM     19  H   UNL     1      45.989   7.060  14.381  0.00  0.00    +0.000 HD
BRANCH  18  24
ATOM     20  C   UNL     1      45.266   4.568  10.797  0.00  0.00    +0.000 A 
ATOM     21  C   UNL     1      45.005   3.504  11.644  0.00  0.00    +0.000 A 
ATOM     22  N   UNL     1      45.144   3.573  12.987  0.00  0.00    +0.000 NA
ATOM     23  C   UNL     1      45.563   4.760  13.492  0.00  0.00    +0.000 A 
ATOM     24  C   UNL     1      45.881   5.899  12.736  0.00  0.00    +0.000 A 
ATOM     25  C   UNL     1      45.713   5.776  11.358  0.00  0.00    +0.000 A 
BRANCH  20  27
ATOM     26  N   UNL     1      44.899   4.321   8.244  0.00  0.00    +0.000 NA
ATOM     27  C   UNL     1      45.061   4.436   9.389  0.00  0.00    +0.000 C 
ENDBRANCH  20  27
ENDBRANCH  18  24
ENDBRANCH  15  18
ENDBRANCH   1  15
TORSDOF 6
ENDMDL
MODEL 7
REMARK VINA RESULT:    -6.129      3.442      8.179
REMARK INTER + INTRA:          -9.001
REMARK INTER:                  -7.949
REMARK INTRA:                  -1.052
REMARK UNBOUND:                -0.902
REMARK  Name = 
REMARK  6 active torsions:
REMARK  status: ('A' for Active; 'I' for Inactive)
REMARK    1  A    between atoms: C_2  and  C_3
REMARK    2  A    between atoms: C_7  and  N_8
REMARK    3  A    between atoms: N_8  and  C_9
REMARK    4  A    between atoms: C_9  and  C_10
REMARK    5  A    between atoms: C_14  and  N_15
REMARK    6  A    between atoms: C_18  and  O_19
REMARK                            x       y       z     vdW  Elec       q    Type
REMARK                         _______ _______ _______ _____ _____    ______ ____
ROOT
ATOM      1  C   UNL     1      47.372   8.120  12.431  0.00  0.00    +0.000 A 
ATOM      2  C   UNL     1      46.800   9.380  12.220  0.00  0.00    +0.000 A 
ATOM      3  C   UNL     1      45.483   9.495  11.792  0.00  0.00    +0.000 A 
ATOM      4  C   UNL     1      44.725   8.345  11.552  0.00  0.00    +0.000 A 
ATOM      5  C   UNL     1      45.232   7.058  11.783  0.00  0.00    +0.000 A 
ATOM      6  C   UNL     1      46.535   6.987  12.290  0.00  0.00    +0.000 A 
ENDROOT
BRANCH   5   7
ATOM      7  N   UNL     1      44.496   5.924  11.477  0.00  0.00    +0.000 N 
ATOM      8  C   UNL     1      45.196   4.718  11.018  0.00  0.00    +0.000 C 
ATOM      9  C   UNL     1      45.053   3.592  12.040  0.00  0.00    +0.000 C 
ATOM     10  C   UNL     1      43.602   3.354  12.441  0.00  0.00    +0.000 C 
ATOM     11  C   UNL     1      42.929   4.648  12.894  0.00  0.00    +0.000 C 
ATOM     12  C   UNL     1      43.091   5.763  11.864  0.00  0.00    +0.000 C 
BRANCH  10  13
ATOM     13  O   UNL     1      42.874   2.751  11.371  0.00  0.00    +0.000 OA
ATOM     14  H   UNL     1      42.724   1.814  11.577  0.00  0.00    +0.000 HD
ENDBRANCH  10  13
ENDBRANCH   5   7
BRANCH   1  15
ATOM     15  C   UNL     1      48.871   7.956  12.679  0.00  0.00    +0.000 C 
ATOM     16  C   UNL     1      49.738   7.820  11.425  0.00  0.00    +0.000 C 
ATOM     17  C   UNL     1      49.782   9.079  12.217  0.00  0.00    +0.000 C 
BRANCH  15  18
ATOM     18  N   UNL     1      49.208   7.062  13.810  0.00  0.00    +0.000 N 
ATOM     19  H   UNL     1      49.012   6.085  13.594  0.00  0.00    +0.000 HD
BRANCH  18  24
ATOM     20  C   UNL     1      48.372   8.857  16.994  0.00  0.00    +0.000 A 
ATOM     21  C   UNL     1      48.514   7.793  17.869  0.00  0.00    +0.000 A 
ATOM     22  N   UNL     1      48.840   6.544  17.470  0.00  0.00    +0.000 NA
ATOM     23  C   UNL     1      49.029   6.362  16.139  0.00  0.00    +0.000 A 
ATOM     24  C   UNL     1      48.891   7.354  15.156  0.00  0.00    +0.000 A 
ATOM     25  C   UNL     1      48.561   8.626  15.622  0.00  0.00    +0.000 A 
BRANCH  20  27
ATOM     26  N   UNL     1      47.816  11.226  17.887  0.00  0.00    +0.000 NA
ATOM     27  C   UNL     1      48.062  10.161  17.490  0.00  0.00    +0.000 C 
ENDBRANCH  20  27
ENDBRANCH  18  24
ENDBRANCH  15  18
ENDBRANCH   1  15
TORSDOF 6
ENDMDL
MODEL 8
REMARK VINA RESULT:    -5.942      3.582      7.589
REMARK INTER + INTRA:          -8.754
REMARK INTER:                  -7.687
REMARK INTRA:                  -1.067
REMARK UNBOUND:                -0.902
REMARK  Name = 
REMARK  6 active torsions:
REMARK  status: ('A' for Active; 'I' for Inactive)
REMARK    1  A    between atoms: C_2  and  C_3
REMARK    2  A    between atoms: C_7  and  N_8
REMARK    3  A    between atoms: N_8  and  C_9
REMARK    4  A    between atoms: C_9  and  C_10
REMARK    5  A    between atoms: C_14  and  N_15
REMARK    6  A    between atoms: C_18  and  O_19
REMARK                            x       y       z     vdW  Elec       q    Type
REMARK                         _______ _______ _______ _____ _____    ______ ____
ROOT
ATOM      1  C   UNL     1      48.736   8.173  14.226  0.00  0.00    +0.000 A 
ATOM      2  C   UNL     1      49.654   8.201  13.170  0.00  0.00    +0.000 A 
ATOM      3  C   UNL     1      49.329   7.647  11.938  0.00  0.00    +0.000 A 
ATOM      4  C   UNL     1      48.083   7.041  11.752  0.00  0.00    +0.000 A 
ATOM      5  C   UNL     1      47.110   7.018  12.761  0.00  0.00    +0.000 A 
ATOM      6  C   UNL     1      47.446   7.657  13.961  0.00  0.00    +0.000 A 
ENDROOT
BRANCH   5   7
ATOM      7  N   UNL     1      45.904   6.356  12.589  0.00  0.00    +0.000 N 
ATOM      8  C   UNL     1      45.127   6.591  11.366  0.00  0.00    +0.000 C 
ATOM      9  C   UNL     1      45.057   5.320  10.522  0.00  0.00    +0.000 C 
ATOM     10  C   UNL     1      44.596   4.112  11.331  0.00  0.00    +0.000 C 
ATOM     11  C   UNL     1      45.434   3.934  12.595  0.00  0.00    +0.000 C 
ATOM     12  C   UNL     1      45.499   5.218  13.418  0.00  0.00    +0.000 C 
BRANCH  10  13
ATOM     13  O   UNL     1      43.209   4.219  11.652  0.00  0.00    +0.000 OA
ATOM     14  H   UNL     1      43.102   4.829  12.400  0.00  0.00    +0.000 HD
ENDBRANCH  10  13
ENDBRANCH   5   7
BRANCH   1  15
ATOM     15  C   UNL     1      49.143   8.565  15.647  0.00  0.00    +0.000 C 
ATOM     16  C   UNL     1      49.194  10.069  15.929  0.00  0.00    +0.000 C 
ATOM     17  C   UNL     1      48.096   9.247  16.509  0.00  0.00    +0.000 C 
BRANCH  15  18
ATOM     18  N   UNL     1      50.244   7.753  16.212  0.00  0.00    +0.000 N 
ATOM     19  H   UNL     1      51.127   7.924  15.732  0.00  0.00    +0.000 HD
BRANCH  18  24
ATOM     20  C   UNL     1      48.834   4.396  17.110  0.00  0.00    +0.000 A 
ATOM     21  C   UNL     1      50.018   3.765  17.450  0.00  0.00    +0.000 A 
ATOM     22  N   UNL     1      51.226   4.366  17.379  0.00  0.00    +0.000 NA
ATOM     23  C   UNL     1      51.239   5.652  16.948  0.00  0.00    +0.000 A 
ATOM     24  C   UNL     1      50.111   6.388  16.553  0.00  0.00    +0.000 A 
ATOM     25  C   UNL     1      48.890   5.724  16.653  0.00  0.00    +0.000 A 
BRANCH  20  27
ATOM     26  N   UNL     1      46.574   3.154  17.364  0.00  0.00    +0.000 NA
ATOM     27  C   UNL     1      47.587   3.712  17.245  0.00  0.00    +0.000 C 
ENDBRANCH  20  27
ENDBRANCH  18  24
ENDBRANCH  15  18
ENDBRANCH   1  15
TORSDOF 6
ENDMDL
MODEL 9
REMARK VINA RESULT:    -5.788      4.721      8.148
REMARK INTER + INTRA:          -8.551
REMARK INTER:                  -8.039
REMARK INTRA:                  -0.512
REMARK UNBOUND:                -0.902
REMARK  Name = 
REMARK  6 active torsions:
REMARK  status: ('A' for Active; 'I' for Inactive)
REMARK    1  A    between atoms: C_2  and  C_3
REMARK    2  A    between atoms: C_7  and  N_8
REMARK    3  A    between atoms: N_8  and  C_9
REMARK    4  A    between atoms: C_9  and  C_10
REMARK    5  A    between atoms: C_14  and  N_15
REMARK    6  A    between atoms: C_18  and  O_19
REMARK                            x       y       z     vdW  Elec       q    Type
REMARK                         _______ _______ _______ _____ _____    ______ ____
ROOT
ATOM      1  C   UNL     1      47.773   5.345  15.405  0.00  0.00    +0.000 A 
ATOM      2  C   UNL     1      48.412   6.559  15.125  0.00  0.00    +0.000 A 
ATOM      3  C   UNL     1      48.207   7.199  13.908  0.00  0.00    +0.000 A 
ATOM      4  C   UNL     1      47.370   6.622  12.948  0.00  0.00    +0.000 A 
ATOM      5  C   UNL     1      46.674   5.429  13.190  0.00  0.00    +0.000 A 
ATOM      6  C   UNL     1      46.845   4.857  14.456  0.00  0.00    +0.000 A 
ENDROOT
BRANCH   5   7
ATOM      7  N   UNL     1      45.900   4.830  12.207  0.00  0.00    +0.000 N 
ATOM      8  C   UNL     1      45.386   3.473  12.428  0.00  0.00    +0.000 C 
ATOM      9  C   UNL     1      43.862   3.486  12.531  0.00  0.00    +0.000 C 
ATOM     10  C   UNL     1      43.209   4.217  11.363  0.00  0.00    +0.000 C 
ATOM     11  C   UNL     1      43.798   5.613  11.178  0.00  0.00    +0.000 C 
ATOM     12  C   UNL     1      45.322   5.580  11.088  0.00  0.00    +0.000 C 
BRANCH  10  13
ATOM     13  O   UNL     1      43.326   3.454  10.161  0.00  0.00    +0.000 OA
ATOM     14  H   UNL     1      43.002   3.985   9.415  0.00  0.00    +0.000 HD
ENDBRANCH  10  13
ENDBRANCH   5   7
BRANCH   1  15
ATOM     15  C   UNL     1      48.151   4.510  16.628  0.00  0.00    +0.000 C 
ATOM     16  C   UNL     1      46.989   3.806  17.334  0.00  0.00    +0.000 C 
ATOM     17  C   UNL     1      47.958   3.007  16.534  0.00  0.00    +0.000 C 
BRANCH  15  18
ATOM     18  N   UNL     1      49.168   5.135  17.504  0.00  0.00    +0.000 N 
ATOM     19  H   UNL     1      49.040   6.145  17.575  0.00  0.00    +0.000 HD
BRANCH  18  24
ATOM     20  C   UNL     1      52.441   3.341  17.869  0.00  0.00    +0.000 A 
ATOM     21  C   UNL     1      53.283   4.390  17.543  0.00  0.00    +0.000 A 
ATOM     22  N   UNL     1      52.839   5.619  17.195  0.00  0.00    +0.000 NA
ATOM     23  C   UNL     1      51.493   5.793  17.178  0.00  0.00    +0.000 A 
ATOM     24  C   UNL     1      50.542   4.803  17.465  0.00  0.00    +0.000 A 
ATOM     25  C   UNL     1      51.053   3.558  17.824  0.00  0.00    +0.000 A 
BRANCH  20  27
ATOM     26  N   UNL     1      53.412   1.049  18.587  0.00  0.00    +0.000 NA
ATOM     27  C   UNL     1      52.981   2.079  18.264  0.00  0.00    +0.000 C 
ENDBRANCH  20  27
ENDBRANCH  18  24
ENDBRANCH  15  18
ENDBRANCH   1  15
TORSDOF 6
ENDMDL
