MODEL 1
REMARK VINA RESULT:    -7.486      0.000      0.000
REMARK INTER + INTRA:         -10.611
REMARK INTER:                  -9.674
REMARK INTRA:                  -0.938
REMARK UNBOUND:                -0.938
REMARK  Name = 
REMARK  5 active torsions:
REMARK  status: ('A' for Active; 'I' for Inactive)
REMARK    1  A    between atoms: C_2  and  C_4
REMARK    2  A    between atoms: C_9  and  C_10
REMARK    3  A    between atoms: C_10  and  N_11
REMARK    4  A    between atoms: N_11  and  C_12
REMARK    5  A    between atoms: C_17  and  N_18
REMARK                            x       y       z     vdW  Elec       q    Type
REMARK                         _______ _______ _______ _____ _____    ______ ____
ROOT
ATOM      1  N   UNL     1      44.754   6.013  10.064  0.00  0.00    +0.000 N 
ATOM      2  H   UNL     1      44.188   6.529   9.394  0.00  0.00    +0.000 HD
ENDROOT
BRANCH   1   3
ATOM      3  C   UNL     1      44.942   4.683   9.684  0.00  0.00    +0.000 A 
ATOM      4  C   UNL     1      44.200   3.699  10.334  0.00  0.00    +0.000 A 
ATOM      5  C   UNL     1      44.285   2.377   9.917  0.00  0.00    +0.000 A 
ATOM      6  F   UNL     1      43.529   1.448  10.519  0.00  0.00    +0.000 F 
ATOM      7  C   UNL     1      45.136   1.999   8.883  0.00  0.00    +0.000 A 
ATOM      8  C   UNL     1      45.951   2.941   8.249  0.00  0.00    +0.000 A 
ATOM      9  C   UNL     1      45.818   4.282   8.664  0.00  0.00    +0.000 A 
BRANCH   8  10
ATOM     10  N   UNL     1      46.852   2.572   7.270  0.00  0.00    +0.000 N 
ATOM     11  C   UNL     1      47.027   3.343   6.031  0.00  0.00    +0.000 C 
ATOM     12  C   UNL     1      46.733   2.468   4.795  0.00  0.00    +0.000 C 
ATOM     13  N   UNL     1      47.515   1.214   4.771  0.00  0.00    +0.000 NA
ATOM     14  C   UNL     1      47.246   0.468   6.021  0.00  0.00    +0.000 C 
ATOM     15  C   UNL     1      47.540   1.274   7.312  0.00  0.00    +0.000 C 
ATOM     16  H   UNL     1      48.505   1.463   4.764  0.00  0.00    +0.000 HD
ENDBRANCH   8  10
ENDBRANCH   1   3
BRANCH   1  17
ATOM     17  C   UNL     1      44.461   6.343  11.452  0.00  0.00    +0.000 C 
BRANCH  17  23
ATOM     18  C   UNL     1      47.129   5.303  13.992  0.00  0.00    +0.000 A 
ATOM     19  C   UNL     1      48.173   6.177  13.671  0.00  0.00    +0.000 A 
ATOM     20  C   UNL     1      47.997   7.104  12.647  0.00  0.00    +0.000 A 
ATOM     21 CL   UNL     1      49.281   8.174  12.236  0.00  0.00    +0.000 Cl
ATOM     22  C   UNL     1      46.796   7.166  11.945  0.00  0.00    +0.000 A 
ATOM     23  C   UNL     1      45.741   6.290  12.254  0.00  0.00    +0.000 A 
ATOM     24  C   UNL     1      45.924   5.349  13.273  0.00  0.00    +0.000 A 
BRANCH  18  26
ATOM     25  N   UNL     1      47.087   4.701  16.352  0.00  0.00    +0.000 N 
ATOM     26  C   UNL     1      47.275   4.288  15.063  0.00  0.00    +0.000 C 
ATOM     27  O   UNL     1      47.515   3.115  14.802  0.00  0.00    +0.000 OA
ATOM     28  H   UNL     1      47.094   3.978  17.061  0.00  0.00    +0.000 HD
ATOM     29  H   UNL     1      46.658   5.584  16.589  0.00  0.00    +0.000 HD
ENDBRANCH  18  26
ENDBRANCH  17  23
ENDBRANCH   1  17
TORSDOF 5
ENDMDL
MODEL 2
REMARK VINA RESULT:    -7.038      4.445      6.703
REMARK INTER + INTRA:         -10.033
REMARK INTER:                  -9.279
REMARK INTRA:                  -0.754
REMARK UNBOUND:                -0.938
REMARK  Name = 
REMARK  5 active torsions:
REMARK  status: ('A' for Active; 'I' for Inactive)
REMARK    1  A    between atoms: C_2  and  C_4
REMARK    2  A    between atoms: C_9  and  C_10
REMARK    3  A    between atoms: C_10  and  N_11
REMARK    4  A    between atoms: N_11  and  C_12
REMARK    5  A    between atoms: C_17  and  N_18
REMARK                            x       y       z     vdW  Elec       q    Type
REMARK                         _______ _______ _______ _____ _____    ______ ____
ROOT
ATOM      1  N   UNL     1      47.489   4.775  16.383  0.00  0.00    +0.000 N 
ATOM      2  H   UNL     1      46.731   5.068  16.995  0.00  0.00    +0.000 HD
ENDROOT
BRANCH   1   3
ATOM      3  C   UNL     1      47.331   5.253  15.081  0.00  0.00    +0.000 A 
ATOM      4  C   UNL     1      48.159   6.290  14.654  0.00  0.00    +0.000 A 
ATOM      5  C   UNL     1      48.102   6.725  13.336  0.00  0.00    +0.000 A 
ATOM      6  F   UNL     1      48.937   7.688  12.925  0.00  0.00    +0.000 F 
ATOM      7  C   UNL     1      47.197   6.176  12.433  0.00  0.00    +0.000 A 
ATOM      8  C   UNL     1      46.300   5.183  12.836  0.00  0.00    +0.000 A 
ATOM      9  C   UNL     1      46.404   4.731  14.167  0.00  0.00    +0.000 A 
BRANCH   8  10
ATOM     10  N   UNL     1      45.348   4.678  11.972  0.00  0.00    +0.000 N 
ATOM     11  C   UNL     1      44.412   5.543  11.240  0.00  0.00    +0.000 C 
ATOM     12  C   UNL     1      42.951   5.189  11.589  0.00  0.00    +0.000 C 
ATOM     13  N   UNL     1      42.637   3.758  11.392  0.00  0.00    +0.000 NA
ATOM     14  C   UNL     1      43.582   2.954  12.199  0.00  0.00    +0.000 C 
ATOM     15  C   UNL     1      45.074   3.236  11.891  0.00  0.00    +0.000 C 
ATOM     16  H   UNL     1      42.799   3.535  10.409  0.00  0.00    +0.000 HD
ENDBRANCH   8  10
ENDBRANCH   1   3
BRANCH   1  17
ATOM     17  C   UNL     1      47.928   3.405  16.611  0.00  0.00    +0.000 C 
BRANCH  17  23
ATOM     18  C   UNL     1      51.449   2.291  17.619  0.00  0.00    +0.000 A 
ATOM     19  C   UNL     1      52.029   3.507  17.993  0.00  0.00    +0.000 A 
ATOM     20  C   UNL     1      51.270   4.673  17.931  0.00  0.00    +0.000 A 
ATOM     21 CL   UNL     1      51.979   6.176  18.375  0.00  0.00    +0.000 Cl
ATOM     22  C   UNL     1      49.946   4.635  17.501  0.00  0.00    +0.000 A 
ATOM     23  C   UNL     1      49.352   3.420  17.117  0.00  0.00    +0.000 A 
ATOM     24  C   UNL     1      50.120   2.251  17.166  0.00  0.00    +0.000 A 
BRANCH  18  26
ATOM     25  N   UNL     1      51.636  -0.055  18.249  0.00  0.00    +0.000 N 
ATOM     26  C   UNL     1      52.222   1.025  17.653  0.00  0.00    +0.000 C 
ATOM     27  O   UNL     1      53.328   0.939  17.131  0.00  0.00    +0.000 OA
ATOM     28  H   UNL     1      52.134  -0.934  18.178  0.00  0.00    +0.000 HD
ATOM     29  H   UNL     1      50.651  -0.094  18.470  0.00  0.00    +0.000 HD
ENDBRANCH  18  26
ENDBRANCH  17  23
ENDBRANCH   1  17
TORSDOF 5
ENDMDL
MODEL 3
REMARK VINA RESULT:    -6.881      3.523      5.595
REMARK INTER + INTRA:          -9.830
REMARK INTER:                  -9.116
REMARK INTRA:                  -0.714
REMARK UNBOUND:                -0.938
REMARK  Name = 
REMARK  5 active torsions:
REMARK  status: ('A' for Active; 'I' for Inactive)
REMARK    1  A    between atoms: C_2  and  C_4
REMARK    2  A    between atoms: C_9  and  C_10
REMARK    3  A    between atoms: C_10  and  N_11
REMARK    4  A    between atoms: N_11  and  C_12
REMARK    5  A    between atoms: C_17  and  N_18
REMARK                            x       y       z     vdW  Elec       q    Type
REMARK                         _______ _______ _______ _____ _____    ______ ____
ROOT
ATOM      1  N   UNL     1      47.135   3.544  15.089  0.00  0.00    +0.000 N 
ATOM      2  H   UNL     1      47.971   2.993  14.907  0.00  0.00    +0.000 HD
ENDROOT
BRANCH   1   3
ATOM      3  C   UNL     1      46.827   4.403  14.034  0.00  0.00    +0.000 A 
ATOM      4  C   UNL     1      47.361   5.691  14.053  0.00  0.00    +0.000 A 
ATOM      5  C   UNL     1      47.161   6.541  12.974  0.00  0.00    +0.000 A 
ATOM      6  F   UNL     1      47.721   7.759  12.984  0.00  0.00    +0.000 F 
ATOM      7  C   UNL     1      46.394   6.152  11.880  0.00  0.00    +0.000 A 
ATOM      8  C   UNL     1      45.781   4.896  11.849  0.00  0.00    +0.000 A 
ATOM      9  C   UNL     1      46.031   4.037  12.938  0.00  0.00    +0.000 A 
BRANCH   8  10
ATOM     10  N   UNL     1      44.959   4.522  10.804  0.00  0.00    +0.000 N 
ATOM     11  C   UNL     1      44.030   3.387  10.903  0.00  0.00    +0.000 C 
ATOM     12  C   UNL     1      44.342   2.329   9.824  0.00  0.00    +0.000 C 
ATOM     13  N   UNL     1      44.376   2.887   8.455  0.00  0.00    +0.000 NA
ATOM     14  C   UNL     1      45.369   3.984   8.420  0.00  0.00    +0.000 C 
ATOM     15  C   UNL     1      45.113   5.101   9.462  0.00  0.00    +0.000 C 
ATOM     16  H   UNL     1      43.459   3.290   8.260  0.00  0.00    +0.000 HD
ENDBRANCH   8  10
ENDBRANCH   1   3
BRANCH   1  17
ATOM     17  C   UNL     1      47.030   4.007  16.465  0.00  0.00    +0.000 C 
BRANCH  17  23
ATOM     18  C   UNL     1      50.579   3.164  17.624  0.00  0.00    +0.000 A 
ATOM     19  C   UNL     1      51.020   4.404  18.096  0.00  0.00    +0.000 A 
ATOM     20  C   UNL     1      50.158   5.497  18.050  0.00  0.00    +0.000 A 
ATOM     21 CL   UNL     1      50.695   7.031  18.615  0.00  0.00    +0.000 Cl
ATOM     22  C   UNL     1      48.869   5.363  17.539  0.00  0.00    +0.000 A 
ATOM     23  C   UNL     1      48.416   4.123  17.056  0.00  0.00    +0.000 A 
ATOM     24  C   UNL     1      49.288   3.028  17.090  0.00  0.00    +0.000 A 
BRANCH  18  26
ATOM     25  N   UNL     1      52.547   2.005  18.472  0.00  0.00    +0.000 N 
ATOM     26  C   UNL     1      51.466   1.975  17.638  0.00  0.00    +0.000 C 
ATOM     27  O   UNL     1      51.218   0.986  16.958  0.00  0.00    +0.000 OA
ATOM     28  H   UNL     1      53.085   1.150  18.543  0.00  0.00    +0.000 HD
ATOM     29  H   UNL     1      52.651   2.683  19.214  0.00  0.00    +0.000 HD
ENDBRANCH  18  26
ENDBRANCH  17  23
ENDBRANCH   1  17
TORSDOF 5
ENDMDL
MODEL 4
REMARK VINA RESULT:    -6.872      4.343      6.263
REMARK INTER + INTRA:          -9.818
REMARK INTER:                  -8.942
REMARK INTRA:                  -0.876
REMARK UNBOUND:                -0.938
REMARK  Name = 
REMARK  5 active torsions:
REMARK  status: ('A' for Active; 'I' for Inactive)
REMARK    1  A    between atoms: C_2  and  C_4
REMARK    2  A    between atoms: C_9  and  C_10
REMARK    3  A    between atoms: C_10  and  N_11
REMARK    4  A    between atoms: N_11  and  C_12
REMARK    5  A    between atoms: C_17  and  N_18
REMARK                            x       y       z     vdW  Elec       q    Type
REMARK                         _______ _______ _______ _____ _____    ______ ____
ROOT
ATOM      1  N   UNL     1      49.124   6.843  14.224  0.00  0.00    +0.000 N 
ATOM      2  H   UNL     1      49.826   6.795  13.489  0.00  0.00    +0.000 HD
ENDROOT
BRANCH   1   3
ATOM      3  C   UNL     1      47.837   7.018  13.717  0.00  0.00    +0.000 A 
ATOM      4  C   UNL     1      47.448   8.299  13.330  0.00  0.00    +0.000 A 
ATOM      5  C   UNL     1      46.212   8.497  12.728  0.00  0.00    +0.000 A 
ATOM      6  F   UNL     1      45.871   9.726  12.316  0.00  0.00    +0.000 F 
ATOM      7  C   UNL     1      45.324   7.443  12.539  0.00  0.00    +0.000 A 
ATOM      8  C   UNL     1      45.643   6.154  12.975  0.00  0.00    +0.000 A 
ATOM      9  C   UNL     1      46.918   5.972  13.548  0.00  0.00    +0.000 A 
BRANCH   8  10
ATOM     10  N   UNL     1      44.744   5.112  12.860  0.00  0.00    +0.000 N 
ATOM     11  C   UNL     1      45.150   3.769  12.420  0.00  0.00    +0.000 C 
ATOM     12  C   UNL     1      44.383   3.354  11.147  0.00  0.00    +0.000 C 
ATOM     13  N   UNL     1      42.915   3.459  11.293  0.00  0.00    +0.000 NA
ATOM     14  C   UNL     1      42.580   4.847  11.682  0.00  0.00    +0.000 C 
ATOM     15  C   UNL     1      43.295   5.333  12.968  0.00  0.00    +0.000 C 
ATOM     16  H   UNL     1      42.633   2.844  12.057  0.00  0.00    +0.000 HD
ENDBRANCH   8  10
ENDBRANCH   1   3
BRANCH   1  17
ATOM     17  C   UNL     1      49.558   7.591  15.396  0.00  0.00    +0.000 C 
BRANCH  17  23
ATOM     18  C   UNL     1      47.883   5.239  17.909  0.00  0.00    +0.000 A 
ATOM     19  C   UNL     1      47.548   6.124  18.938  0.00  0.00    +0.000 A 
ATOM     20  C   UNL     1      47.852   7.476  18.801  0.00  0.00    +0.000 A 
ATOM     21 CL   UNL     1      47.456   8.572  20.067  0.00  0.00    +0.000 Cl
ATOM     22  C   UNL     1      48.485   7.949  17.654  0.00  0.00    +0.000 A 
ATOM     23  C   UNL     1      48.832   7.068  16.614  0.00  0.00    +0.000 A 
ATOM     24  C   UNL     1      48.539   5.706  16.759  0.00  0.00    +0.000 A 
BRANCH  18  26
ATOM     25  N   UNL     1      48.286   3.075  18.954  0.00  0.00    +0.000 N 
ATOM     26  C   UNL     1      47.594   3.788  18.017  0.00  0.00    +0.000 C 
ATOM     27  O   UNL     1      46.738   3.255  17.320  0.00  0.00    +0.000 OA
ATOM     28  H   UNL     1      48.008   2.110  19.081  0.00  0.00    +0.000 HD
ATOM     29  H   UNL     1      48.811   3.511  19.699  0.00  0.00    +0.000 HD
ENDBRANCH  18  26
ENDBRANCH  17  23
ENDBRANCH   1  17
TORSDOF 5
ENDMDL
MODEL 5
REMARK VINA RESULT:    -6.872      3.731      5.487
REMARK INTER + INTRA:          -9.818
REMARK INTER:                  -8.904
REMARK INTRA:                  -0.914
REMARK UNBOUND:                -0.938
REMARK  Name = 
REMARK  5 active torsions:
REMARK  status: ('A' for Active; 'I' for Inactive)
REMARK    1  A    between atoms: C_2  and  C_4
REMARK    2  A    between atoms: C_9  and  C_10
REMARK    3  A    between atoms: C_10  and  N_11
REMARK    4  A    between atoms: N_11  and  C_12
REMARK    5  A    between atoms: C_17  and  N_18
REMARK                            x       y       z     vdW  Elec       q    Type
REMARK                         _______ _______ _______ _____ _____    ______ ____
ROOT
ATOM      1  N   UNL     1      48.517   6.604  13.301  0.00  0.00    +0.000 N 
ATOM      2  H   UNL     1      49.186   6.413  12.559  0.00  0.00    +0.000 HD
ENDROOT
BRANCH   1   3
ATOM      3  C   UNL     1      47.237   6.858  12.805  0.00  0.00    +0.000 A 
ATOM      4  C   UNL     1      46.764   8.169  12.839  0.00  0.00    +0.000 A 
ATOM      5  C   UNL     1      45.538   8.478  12.265  0.00  0.00    +0.000 A 
ATOM      6  F   UNL     1      45.117   9.751  12.260  0.00  0.00    +0.000 F 
ATOM      7  C   UNL     1      44.740   7.494  11.690  0.00  0.00    +0.000 A 
ATOM      8  C   UNL     1      45.143   6.156  11.696  0.00  0.00    +0.000 A 
ATOM      9  C   UNL     1      46.408   5.873  12.249  0.00  0.00    +0.000 A 
BRANCH   8  10
ATOM     10  N   UNL     1      44.332   5.157  11.193  0.00  0.00    +0.000 N 
ATOM     11  C   UNL     1      43.262   4.538  11.989  0.00  0.00    +0.000 C 
ATOM     12  C   UNL     1      43.489   3.018  12.123  0.00  0.00    +0.000 C 
ATOM     13  N   UNL     1      43.661   2.339  10.821  0.00  0.00    +0.000 NA
ATOM     14  C   UNL     1      44.787   2.978  10.103  0.00  0.00    +0.000 C 
ATOM     15  C   UNL     1      44.624   4.507   9.908  0.00  0.00    +0.000 C 
ATOM     16  H   UNL     1      42.814   2.494  10.273  0.00  0.00    +0.000 HD
ENDBRANCH   8  10
ENDBRANCH   1   3
BRANCH   1  17
ATOM     17  C   UNL     1      49.058   7.418  14.381  0.00  0.00    +0.000 C 
BRANCH  17  23
ATOM     18  C   UNL     1      48.028   4.858  17.034  0.00  0.00    +0.000 A 
ATOM     19  C   UNL     1      48.133   5.614  18.205  0.00  0.00    +0.000 A 
ATOM     20  C   UNL     1      48.520   6.949  18.123  0.00  0.00    +0.000 A 
ATOM     21 CL   UNL     1      48.666   7.885  19.560  0.00  0.00    +0.000 Cl
ATOM     22  C   UNL     1      48.802   7.532  16.890  0.00  0.00    +0.000 A 
ATOM     23  C   UNL     1      48.706   6.781  15.705  0.00  0.00    +0.000 A 
ATOM     24  C   UNL     1      48.330   5.435  15.790  0.00  0.00    +0.000 A 
BRANCH  18  26
ATOM     25  N   UNL     1      48.603   2.501  16.813  0.00  0.00    +0.000 N 
ATOM     26  C   UNL     1      47.634   3.428  17.072  0.00  0.00    +0.000 C 
ATOM     27  O   UNL     1      46.493   3.088  17.365  0.00  0.00    +0.000 OA
ATOM     28  H   UNL     1      48.343   1.531  16.938  0.00  0.00    +0.000 HD
ATOM     29  H   UNL     1      49.589   2.722  16.808  0.00  0.00    +0.000 HD
ENDBRANCH  18  26
ENDBRANCH  17  23
ENDBRANCH   1  17
TORSDOF 5
ENDMDL
MODEL 6
REMARK VINA RESULT:    -6.848      4.092      5.901
REMARK INTER + INTRA:          -9.787
REMARK INTER:                  -8.919
REMARK INTRA:                  -0.868
REMARK UNBOUND:                -0.938
REMARK  Name = 
REMARK  5 active torsions:
REMARK  status: ('A' for Active; 'I' for Inactive)
REMARK    1  A    between atoms: C_2  and  C_4
REMARK    2  A    between atoms: C_9  and  C_10
REMARK    3  A    between atoms: C_10  and  N_11
REMARK    4  A    between atoms: N_11  and  C_12
REMARK    5  A    between atoms: C_17  and  N_18
REMARK                            x       y       z     vdW  Elec       q    Type
REMARK                         _______ _______ _______ _____ _____    ______ ____
ROOT
ATOM      1  N   UNL     1      49.088   7.269  14.189  0.00  0.00    +0.000 N 
ATOM      2  H   UNL     1      49.778   7.717  13.591  0.00  0.00    +0.000 HD
ENDROOT
BRANCH   1   3
ATOM      3  C   UNL     1      47.827   7.218  13.593  0.00  0.00    +0.000 A 
ATOM      4  C   UNL     1      47.046   8.372  13.599  0.00  0.00    +0.000 A 
ATOM      5  C   UNL     1      45.829   8.389  12.931  0.00  0.00    +0.000 A 
ATOM      6  F   UNL     1      45.111   9.521  12.902  0.00  0.00    +0.000 F 
ATOM      7  C   UNL     1      45.343   7.257  12.285  0.00  0.00    +0.000 A 
ATOM      8  C   UNL     1      46.059   6.057  12.313  0.00  0.00    +0.000 A 
ATOM      9  C   UNL     1      47.309   6.075  12.965  0.00  0.00    +0.000 A 
BRANCH   8  10
ATOM     10  N   UNL     1      45.559   4.905  11.739  0.00  0.00    +0.000 N 
ATOM     11  C   UNL     1      45.089   4.861  10.346  0.00  0.00    +0.000 C 
ATOM     12  C   UNL     1      43.607   4.437  10.281  0.00  0.00    +0.000 C 
ATOM     13  N   UNL     1      43.333   3.168  10.989  0.00  0.00    +0.000 NA
ATOM     14  C   UNL     1      43.780   3.307  12.393  0.00  0.00    +0.000 C 
ATOM     15  C   UNL     1      45.269   3.710  12.544  0.00  0.00    +0.000 C 
ATOM     16  H   UNL     1      43.899   2.439  10.553  0.00  0.00    +0.000 HD
ENDBRANCH   8  10
ENDBRANCH   1   3
BRANCH   1  17
ATOM     17  C   UNL     1      49.219   7.619  15.596  0.00  0.00    +0.000 C 
BRANCH  17  23
ATOM     18  C   UNL     1      48.960   4.316  17.513  0.00  0.00    +0.000 A 
ATOM     19  C   UNL     1      50.305   4.044  17.781  0.00  0.00    +0.000 A 
ATOM     20  C   UNL     1      51.281   4.941  17.353  0.00  0.00    +0.000 A 
ATOM     21 CL   UNL     1      52.940   4.608  17.666  0.00  0.00    +0.000 Cl
ATOM     22  C   UNL     1      50.928   6.098  16.664  0.00  0.00    +0.000 A 
ATOM     23  C   UNL     1      49.580   6.381  16.383  0.00  0.00    +0.000 A 
ATOM     24  C   UNL     1      48.600   5.472  16.801  0.00  0.00    +0.000 A 
BRANCH  18  26
ATOM     25  N   UNL     1      48.041   2.745  19.131  0.00  0.00    +0.000 N 
ATOM     26  C   UNL     1      47.886   3.383  17.934  0.00  0.00    +0.000 C 
ATOM     27  O   UNL     1      46.879   3.222  17.255  0.00  0.00    +0.000 OA
ATOM     28  H   UNL     1      47.257   2.189  19.450  0.00  0.00    +0.000 HD
ATOM     29  H   UNL     1      48.722   3.027  19.822  0.00  0.00    +0.000 HD
ENDBRANCH  18  26
ENDBRANCH  17  23
ENDBRANCH   1  17
TORSDOF 5
ENDMDL
MODEL 7
REMARK VINA RESULT:    -6.552      4.069      9.499
REMARK INTER + INTRA:          -9.405
REMARK INTER:                  -8.833
REMARK INTRA:                  -0.572
REMARK UNBOUND:                -0.938
REMARK  Name = 
REMARK  5 active torsions:
REMARK  status: ('A' for Active; 'I' for Inactive)
REMARK    1  A    between atoms: C_2  and  C_4
REMARK    2  A    between atoms: C_9  and  C_10
REMARK    3  A    between atoms: C_10  and  N_11
REMARK    4  A    between atoms: N_11  and  C_12
REMARK    5  A    between atoms: C_17  and  N_18
REMARK                            x       y       z     vdW  Elec       q    Type
REMARK                         _______ _______ _______ _____ _____    ______ ____
ROOT
ATOM      1  N   UNL     1      46.656   4.556  15.237  0.00  0.00    +0.000 N 
ATOM      2  H   UNL     1      45.726   4.825  15.549  0.00  0.00    +0.000 HD
ENDROOT
BRANCH   1   3
ATOM      3  C   UNL     1      47.491   4.212  16.301  0.00  0.00    +0.000 A 
ATOM      4  C   UNL     1      48.209   3.021  16.219  0.00  0.00    +0.000 A 
ATOM      5  C   UNL     1      49.125   2.693  17.210  0.00  0.00    +0.000 A 
ATOM      6  F   UNL     1      49.845   1.569  17.093  0.00  0.00    +0.000 F 
ATOM      7  C   UNL     1      49.314   3.512  18.319  0.00  0.00    +0.000 A 
ATOM      8  C   UNL     1      48.564   4.681  18.478  0.00  0.00    +0.000 A 
ATOM      9  C   UNL     1      47.670   5.011  17.440  0.00  0.00    +0.000 A 
BRANCH   8  10
ATOM     10  N   UNL     1      48.687   5.467  19.606  0.00  0.00    +0.000 N 
ATOM     11  C   UNL     1      48.489   4.934  20.962  0.00  0.00    +0.000 C 
ATOM     12  C   UNL     1      47.352   5.686  21.685  0.00  0.00    +0.000 C 
ATOM     13  N   UNL     1      47.542   7.152  21.699  0.00  0.00    +0.000 NA
ATOM     14  C   UNL     1      47.679   7.622  20.302  0.00  0.00    +0.000 C 
ATOM     15  C   UNL     1      48.817   6.928  19.512  0.00  0.00    +0.000 C 
ATOM     16  H   UNL     1      48.419   7.349  22.182  0.00  0.00    +0.000 HD
ENDBRANCH   8  10
ENDBRANCH   1   3
BRANCH   1  17
ATOM     17  C   UNL     1      47.164   5.372  14.142  0.00  0.00    +0.000 C 
BRANCH  17  23
ATOM     18  C   UNL     1      44.565   4.367  11.518  0.00  0.00    +0.000 A 
ATOM     19  C   UNL     1      44.122   5.616  11.072  0.00  0.00    +0.000 A 
ATOM     20  C   UNL     1      44.681   6.771  11.614  0.00  0.00    +0.000 A 
ATOM     21 CL   UNL     1      44.134   8.313  11.083  0.00  0.00    +0.000 Cl
ATOM     22  C   UNL     1      45.671   6.690  12.590  0.00  0.00    +0.000 A 
ATOM     23  C   UNL     1      46.121   5.440  13.051  0.00  0.00    +0.000 A 
ATOM     24  C   UNL     1      45.548   4.279  12.516  0.00  0.00    +0.000 A 
BRANCH  18  26
ATOM     25  N   UNL     1      44.721   2.426  10.054  0.00  0.00    +0.000 N 
ATOM     26  C   UNL     1      43.988   3.109  10.982  0.00  0.00    +0.000 C 
ATOM     27  O   UNL     1      42.915   2.677  11.386  0.00  0.00    +0.000 OA
ATOM     28  H   UNL     1      44.361   1.523   9.772  0.00  0.00    +0.000 HD
ATOM     29  H   UNL     1      45.698   2.613   9.878  0.00  0.00    +0.000 HD
ENDBRANCH  18  26
ENDBRANCH  17  23
ENDBRANCH   1  17
TORSDOF 5
ENDMDL
MODEL 8
REMARK VINA RESULT:    -6.438      3.632      5.564
REMARK INTER + INTRA:          -9.257
REMARK INTER:                  -8.405
REMARK INTRA:                  -0.852
REMARK UNBOUND:                -0.938
REMARK  Name = 
REMARK  5 active torsions:
REMARK  status: ('A' for Active; 'I' for Inactive)
REMARK    1  A    between atoms: C_2  and  C_4
REMARK    2  A    between atoms: C_9  and  C_10
REMARK    3  A    between atoms: C_10  and  N_11
REMARK    4  A    between atoms: N_11  and  C_12
REMARK    5  A    between atoms: C_17  and  N_18
REMARK                            x       y       z     vdW  Elec       q    Type
REMARK                         _______ _______ _______ _____ _____    ______ ____
ROOT
ATOM      1  N   UNL     1      47.310   7.638  13.755  0.00  0.00    +0.000 N 
ATOM      2  H   UNL     1      47.306   7.779  14.762  0.00  0.00    +0.000 HD
ENDROOT
BRANCH   1   3
ATOM      3  C   UNL     1      46.939   6.340  13.401  0.00  0.00    +0.000 A 
ATOM      4  C   UNL     1      47.388   5.285  14.193  0.00  0.00    +0.000 A 
ATOM      5  C   UNL     1      46.959   3.991  13.933  0.00  0.00    +0.000 A 
ATOM      6  F   UNL     1      47.359   2.992  14.732  0.00  0.00    +0.000 F 
ATOM      7  C   UNL     1      46.117   3.711  12.861  0.00  0.00    +0.000 A 
ATOM      8  C   UNL     1      45.697   4.727  11.999  0.00  0.00    +0.000 A 
ATOM      9  C   UNL     1      46.115   6.038  12.306  0.00  0.00    +0.000 A 
BRANCH   8  10
ATOM     10  N   UNL     1      44.920   4.456  10.890  0.00  0.00    +0.000 N 
ATOM     11  C   UNL     1      44.008   3.305  10.831  0.00  0.00    +0.000 C 
ATOM     12  C   UNL     1      44.377   2.373   9.657  0.00  0.00    +0.000 C 
ATOM     13  N   UNL     1      44.451   3.076   8.359  0.00  0.00    +0.000 NA
ATOM     14  C   UNL     1      45.425   4.184   8.479  0.00  0.00    +0.000 C 
ATOM     15  C   UNL     1      45.112   5.179   9.624  0.00  0.00    +0.000 C 
ATOM     16  H   UNL     1      43.535   3.485   8.173  0.00  0.00    +0.000 HD
ENDBRANCH   8  10
ENDBRANCH   1   3
BRANCH   1  17
ATOM     17  C   UNL     1      48.422   8.292  13.078  0.00  0.00    +0.000 C 
BRANCH  17  23
ATOM     18  C   UNL     1      46.099  10.956  11.609  0.00  0.00    +0.000 A 
ATOM     19  C   UNL     1      46.970  11.646  10.759  0.00  0.00    +0.000 A 
ATOM     20  C   UNL     1      48.295  11.232  10.659  0.00  0.00    +0.000 A 
ATOM     21 CL   UNL     1      49.378  12.083   9.627  0.00  0.00    +0.000 Cl
ATOM     22  C   UNL     1      48.756  10.143  11.394  0.00  0.00    +0.000 A 
ATOM     23  C   UNL     1      47.893   9.444  12.255  0.00  0.00    +0.000 A 
ATOM     24  C   UNL     1      46.564   9.870  12.367  0.00  0.00    +0.000 A 
BRANCH  18  26
ATOM     25  N   UNL     1      43.763  10.389  12.005  0.00  0.00    +0.000 N 
ATOM     26  C   UNL     1      44.682  11.369  11.762  0.00  0.00    +0.000 C 
ATOM     27  O   UNL     1      44.354  12.549  11.713  0.00  0.00    +0.000 OA
ATOM     28  H   UNL     1      42.819  10.697  12.203  0.00  0.00    +0.000 HD
ATOM     29  H   UNL     1      44.018   9.454  12.290  0.00  0.00    +0.000 HD
ENDBRANCH  18  26
ENDBRANCH  17  23
ENDBRANCH   1  17
TORSDOF 5
ENDMDL
MODEL 9
REMARK VINA RESULT:    -6.266      5.068      9.567
REMARK INTER + INTRA:          -9.035
REMARK INTER:                  -8.371
REMARK INTRA:                  -0.664
REMARK UNBOUND:                -0.938
REMARK  Name = 
REMARK  5 active torsions:
REMARK  status: ('A' for Active; 'I' for Inactive)
REMARK    1  A    between atoms: C_2  and  C_4
REMARK    2  A    between atoms: C_9  and  C_10
REMARK    3  A    between atoms: C_10  and  N_11
REMARK    4  A    between atoms: N_11  and  C_12
REMARK    5  A    between atoms: C_17  and  N_18
REMARK                            x       y       z     vdW  Elec       q    Type
REMARK                         _______ _______ _______ _____ _____    ______ ____
ROOT
ATOM      1  N   UNL     1      46.547   4.175  15.419  0.00  0.00    +0.000 N 
ATOM      2  H   UNL     1      46.113   5.091  15.510  0.00  0.00    +0.000 HD
ENDROOT
BRANCH   1   3
ATOM      3  C   UNL     1      47.439   3.908  16.458  0.00  0.00    +0.000 A 
ATOM      4  C   UNL     1      48.367   2.882  16.284  0.00  0.00    +0.000 A 
ATOM      5  C   UNL     1      49.335   2.651  17.252  0.00  0.00    +0.000 A 
ATOM      6  F   UNL     1      50.251   1.694  17.050  0.00  0.00    +0.000 F 
ATOM      7  C   UNL     1      49.375   3.397  18.426  0.00  0.00    +0.000 A 
ATOM      8  C   UNL     1      48.422   4.389  18.674  0.00  0.00    +0.000 A 
ATOM      9  C   UNL     1      47.474   4.630  17.660  0.00  0.00    +0.000 A 
BRANCH   8  10
ATOM     10  N   UNL     1      48.405   5.090  19.864  0.00  0.00    +0.000 N 
ATOM     11  C   UNL     1      47.393   6.115  20.158  0.00  0.00    +0.000 C 
ATOM     12  C   UNL     1      48.058   7.480  20.429  0.00  0.00    +0.000 C 
ATOM     13  N   UNL     1      49.096   7.423  21.480  0.00  0.00    +0.000 NA
ATOM     14  C   UNL     1      50.105   6.413  21.089  0.00  0.00    +0.000 C 
ATOM     15  C   UNL     1      49.517   5.004  20.820  0.00  0.00    +0.000 C 
ATOM     16  H   UNL     1      48.651   7.102  22.341  0.00  0.00    +0.000 HD
ENDBRANCH   8  10
ENDBRANCH   1   3
BRANCH   1  17
ATOM     17  C   UNL     1      46.894   3.827  14.048  0.00  0.00    +0.000 C 
BRANCH  17  23
ATOM     18  C   UNL     1      45.464   6.944  12.347  0.00  0.00    +0.000 A 
ATOM     19  C   UNL     1      44.779   6.382  11.266  0.00  0.00    +0.000 A 
ATOM     20  C   UNL     1      44.773   4.998  11.108  0.00  0.00    +0.000 A 
ATOM     21 CL   UNL     1      43.945   4.297   9.772  0.00  0.00    +0.000 Cl
ATOM     22  C   UNL     1      45.441   4.177  12.013  0.00  0.00    +0.000 A 
ATOM     23  C   UNL     1      46.138   4.731  13.101  0.00  0.00    +0.000 A 
ATOM     24  C   UNL     1      46.156   6.123  13.252  0.00  0.00    +0.000 A 
BRANCH  18  26
ATOM     25  N   UNL     1      46.211   8.878  13.627  0.00  0.00    +0.000 N 
ATOM     26  C   UNL     1      45.513   8.413  12.549  0.00  0.00    +0.000 C 
ATOM     27  O   UNL     1      44.982   9.184  11.757  0.00  0.00    +0.000 OA
ATOM     28  H   UNL     1      46.317   9.883  13.696  0.00  0.00    +0.000 HD
ATOM     29  H   UNL     1      46.854   8.305  14.155  0.00  0.00    +0.000 HD
ENDBRANCH  18  26
ENDBRANCH  17  23
ENDBRANCH   1  17
TORSDOF 5
ENDMDL
