MODEL 1
REMARK VINA RESULT:    -8.306      0.000      0.000
REMARK INTER + INTRA:         -11.773
REMARK INTER:                 -10.734
REMARK INTRA:                  -1.039
REMARK UNBOUND:                -1.039
REMARK  Name = 
REMARK  6 active torsions:
REMARK  status: ('A' for Active; 'I' for Inactive)
REMARK    1  A    between atoms: C_1  and  N_2
REMARK    2  A    between atoms: C_7  and  C_8
REMARK    3  A    between atoms: C_8  and  C_9
REMARK    4  A    between atoms: C_12  and  C_13
REMARK    5  A    between atoms: C_13  and  N_14
REMARK    6  A    between atoms: C_15  and  C_17
REMARK                            x       y       z     vdW  Elec       q    Type
REMARK                         _______ _______ _______ _____ _____    ______ ____
ROOT
ATOM      1  C   UNL     1      44.812   5.927  11.002  0.00  0.00    +0.000 A 
ATOM      2  C   UNL     1      46.056   5.427  11.416  0.00  0.00    +0.000 A 
ATOM      3  C   UNL     1      46.881   6.177  12.259  0.00  0.00    +0.000 A 
ATOM      4  C   UNL     1      46.481   7.444  12.702  0.00  0.00    +0.000 A 
ATOM      5  C   UNL     1      45.270   7.971  12.232  0.00  0.00    +0.000 A 
ATOM      6  C   UNL     1      44.439   7.216  11.402  0.00  0.00    +0.000 A 
ENDROOT
BRANCH   1   7
ATOM      7  C   UNL     1      43.871   5.082  10.170  0.00  0.00    +0.000 C 
BRANCH   7  14
ATOM      8  C   UNL     1      47.039   3.061   5.455  0.00  0.00    +0.000 C 
ATOM      9  N   UNL     1      46.827   3.888   6.621  0.00  0.00    +0.000 N 
ATOM     10  C   UNL     1      46.011   3.421   7.639  0.00  0.00    +0.000 A 
ATOM     11  C   UNL     1      45.950   2.079   7.997  0.00  0.00    +0.000 A 
ATOM     12  C   UNL     1      45.130   1.688   9.048  0.00  0.00    +0.000 A 
ATOM     13  C   UNL     1      44.419   2.654   9.745  0.00  0.00    +0.000 A 
ATOM     14  C   UNL     1      44.543   3.987   9.364  0.00  0.00    +0.000 A 
ATOM     15  N   UNL     1      45.323   4.367   8.314  0.00  0.00    +0.000 NA
ATOM     16  H   UNL     1      46.560   4.853   6.442  0.00  0.00    +0.000 HD
ENDBRANCH   7  14
ENDBRANCH   1   7
BRANCH   4  17
ATOM     17  C   UNL     1      47.339   8.238  13.650  0.00  0.00    +0.000 C 
BRANCH  17  18
ATOM     18  N   UNL     1      47.693   7.465  14.811  0.00  0.00    +0.000 N 
ATOM     19  C   UNL     1      48.937   6.897  14.940  0.00  0.00    +0.000 C 
ATOM     20  O   UNL     1      49.815   7.061  14.095  0.00  0.00    +0.000 OA
ATOM     21  H   UNL     1      46.928   7.124  15.385  0.00  0.00    +0.000 HD
BRANCH  19  22
ATOM     22  C   UNL     1      49.186   6.150  16.174  0.00  0.00    +0.000 A 
ATOM     23  C   UNL     1      50.222   6.534  17.014  0.00  0.00    +0.000 A 
ATOM     24  S   UNL     1      50.320   5.610  18.445  0.00  0.00    +0.000 S 
ATOM     25  C   UNL     1      49.018   4.625  17.964  0.00  0.00    +0.000 A 
ATOM     26  N   UNL     1      48.586   3.602  18.750  0.00  0.00    +0.000 NA
ATOM     27  C   UNL     1      47.614   2.918  18.248  0.00  0.00    +0.000 A 
ATOM     28  N   UNL     1      47.033   3.163  17.028  0.00  0.00    +0.000 N 
ATOM     29  C   UNL     1      47.419   4.199  16.213  0.00  0.00    +0.000 A 
ATOM     30  O   UNL     1      46.858   4.412  15.144  0.00  0.00    +0.000 OA
ATOM     31  C   UNL     1      48.511   5.003  16.732  0.00  0.00    +0.000 A 
ATOM     32  H   UNL     1      46.273   2.590  16.692  0.00  0.00    +0.000 HD
ENDBRANCH  19  22
ENDBRANCH  17  18
ENDBRANCH   4  17
TORSDOF 5
ENDMDL
MODEL 2
REMARK VINA RESULT:    -8.027      2.072      3.269
REMARK INTER + INTRA:         -11.412
REMARK INTER:                 -11.206
REMARK INTRA:                  -0.206
REMARK UNBOUND:                -1.039
REMARK  Name = 
REMARK  6 active torsions:
REMARK  status: ('A' for Active; 'I' for Inactive)
REMARK    1  A    between atoms: C_1  and  N_2
REMARK    2  A    between atoms: C_7  and  C_8
REMARK    3  A    between atoms: C_8  and  C_9
REMARK    4  A    between atoms: C_12  and  C_13
REMARK    5  A    between atoms: C_13  and  N_14
REMARK    6  A    between atoms: C_15  and  C_17
REMARK                            x       y       z     vdW  Elec       q    Type
REMARK                         _______ _______ _______ _____ _____    ______ ____
ROOT
ATOM      1  C   UNL     1      45.548   4.342   8.780  0.00  0.00    +0.000 A 
ATOM      2  C   UNL     1      45.891   5.428   9.598  0.00  0.00    +0.000 A 
ATOM      3  C   UNL     1      45.475   5.477  10.932  0.00  0.00    +0.000 A 
ATOM      4  C   UNL     1      44.703   4.441  11.474  0.00  0.00    +0.000 A 
ATOM      5  C   UNL     1      44.302   3.390  10.637  0.00  0.00    +0.000 A 
ATOM      6  C   UNL     1      44.731   3.334   9.308  0.00  0.00    +0.000 A 
ENDROOT
BRANCH   1   7
ATOM      7  C   UNL     1      46.076   4.234   7.366  0.00  0.00    +0.000 C 
BRANCH   7  14
ATOM      8  C   UNL     1      46.784  -0.045   3.178  0.00  0.00    +0.000 C 
ATOM      9  N   UNL     1      47.054   1.239   3.783  0.00  0.00    +0.000 N 
ATOM     10  C   UNL     1      46.916   1.378   5.156  0.00  0.00    +0.000 A 
ATOM     11  C   UNL     1      47.228   0.360   6.050  0.00  0.00    +0.000 A 
ATOM     12  C   UNL     1      47.092   0.583   7.414  0.00  0.00    +0.000 A 
ATOM     13  C   UNL     1      46.684   1.832   7.857  0.00  0.00    +0.000 A 
ATOM     14  C   UNL     1      46.415   2.825   6.919  0.00  0.00    +0.000 A 
ATOM     15  N   UNL     1      46.519   2.598   5.580  0.00  0.00    +0.000 NA
ATOM     16  H   UNL     1      46.601   2.041   3.354  0.00  0.00    +0.000 HD
ENDBRANCH   7  14
ENDBRANCH   1   7
BRANCH   4  17
ATOM     17  C   UNL     1      44.292   4.459  12.922  0.00  0.00    +0.000 C 
BRANCH  17  18
ATOM     18  N   UNL     1      45.297   5.079  13.745  0.00  0.00    +0.000 N 
ATOM     19  C   UNL     1      46.407   4.386  14.162  0.00  0.00    +0.000 C 
ATOM     20  O   UNL     1      46.614   3.225  13.816  0.00  0.00    +0.000 OA
ATOM     21  H   UNL     1      45.031   5.931  14.228  0.00  0.00    +0.000 HD
BRANCH  19  22
ATOM     22  C   UNL     1      47.368   5.130  14.979  0.00  0.00    +0.000 A 
ATOM     23  C   UNL     1      48.116   6.149  14.406  0.00  0.00    +0.000 A 
ATOM     24  S   UNL     1      49.124   6.964  15.515  0.00  0.00    +0.000 S 
ATOM     25  C   UNL     1      48.641   5.944  16.788  0.00  0.00    +0.000 A 
ATOM     26  N   UNL     1      49.151   6.097  18.040  0.00  0.00    +0.000 NA
ATOM     27  C   UNL     1      48.722   5.235  18.900  0.00  0.00    +0.000 A 
ATOM     28  N   UNL     1      47.828   4.231  18.621  0.00  0.00    +0.000 N 
ATOM     29  C   UNL     1      47.268   4.055  17.380  0.00  0.00    +0.000 A 
ATOM     30  O   UNL     1      46.447   3.169  17.171  0.00  0.00    +0.000 OA
ATOM     31  C   UNL     1      47.716   5.000  16.374  0.00  0.00    +0.000 A 
ATOM     32  H   UNL     1      47.530   3.588  19.340  0.00  0.00    +0.000 HD
ENDBRANCH  19  22
ENDBRANCH  17  18
ENDBRANCH   4  17
TORSDOF 5
ENDMDL
MODEL 3
REMARK VINA RESULT:    -7.648      4.435      9.413
REMARK INTER + INTRA:         -10.923
REMARK INTER:                 -10.251
REMARK INTRA:                  -0.671
REMARK UNBOUND:                -1.039
REMARK  Name = 
REMARK  6 active torsions:
REMARK  status: ('A' for Active; 'I' for Inactive)
REMARK    1  A    between atoms: C_1  and  N_2
REMARK    2  A    between atoms: C_7  and  C_8
REMARK    3  A    between atoms: C_8  and  C_9
REMARK    4  A    between atoms: C_12  and  C_13
REMARK    5  A    between atoms: C_13  and  N_14
REMARK    6  A    between atoms: C_15  and  C_17
REMARK                            x       y       z     vdW  Elec       q    Type
REMARK                         _______ _______ _______ _____ _____    ______ ____
ROOT
ATOM      1  C   UNL     1      51.654   3.257  18.001  0.00  0.00    +0.000 A 
ATOM      2  C   UNL     1      50.899   4.393  18.326  0.00  0.00    +0.000 A 
ATOM      3  C   UNL     1      49.542   4.466  17.999  0.00  0.00    +0.000 A 
ATOM      4  C   UNL     1      48.913   3.404  17.337  0.00  0.00    +0.000 A 
ATOM      5  C   UNL     1      49.684   2.299  16.951  0.00  0.00    +0.000 A 
ATOM      6  C   UNL     1      51.036   2.220  17.292  0.00  0.00    +0.000 A 
ENDROOT
BRANCH   1   7
ATOM      7  C   UNL     1      53.098   3.129  18.438  0.00  0.00    +0.000 C 
BRANCH   7  14
ATOM      8  C   UNL     1      54.374  -2.737  18.989  0.00  0.00    +0.000 C 
ATOM      9  N   UNL     1      53.484  -1.609  18.836  0.00  0.00    +0.000 N 
ATOM     10  C   UNL     1      53.943  -0.472  18.190  0.00  0.00    +0.000 A 
ATOM     11  C   UNL     1      54.828  -0.522  17.119  0.00  0.00    +0.000 A 
ATOM     12  C   UNL     1      55.222   0.659  16.502  0.00  0.00    +0.000 A 
ATOM     13  C   UNL     1      54.692   1.861  16.944  0.00  0.00    +0.000 A 
ATOM     14  C   UNL     1      53.785   1.850  18.000  0.00  0.00    +0.000 A 
ATOM     15  N   UNL     1      53.421   0.695  18.625  0.00  0.00    +0.000 NA
ATOM     16  H   UNL     1      53.003  -1.302  19.677  0.00  0.00    +0.000 HD
ENDBRANCH   7  14
ENDBRANCH   1   7
BRANCH   4  17
ATOM     17  C   UNL     1      47.441   3.451  17.025  0.00  0.00    +0.000 C 
BRANCH  17  18
ATOM     18  N   UNL     1      47.140   4.483  16.068  0.00  0.00    +0.000 N 
ATOM     19  C   UNL     1      47.153   4.233  14.719  0.00  0.00    +0.000 C 
ATOM     20  O   UNL     1      47.378   3.110  14.270  0.00  0.00    +0.000 OA
ATOM     21  H   UNL     1      47.193   5.442  16.398  0.00  0.00    +0.000 HD
BRANCH  19  22
ATOM     22  C   UNL     1      46.811   5.357  13.845  0.00  0.00    +0.000 A 
ATOM     23  C   UNL     1      47.704   6.409  13.696  0.00  0.00    +0.000 A 
ATOM     24  S   UNL     1      47.186   7.592  12.581  0.00  0.00    +0.000 S 
ATOM     25  C   UNL     1      45.722   6.769  12.303  0.00  0.00    +0.000 A 
ATOM     26  N   UNL     1      44.793   7.264  11.442  0.00  0.00    +0.000 NA
ATOM     27  C   UNL     1      43.717   6.556  11.353  0.00  0.00    +0.000 A 
ATOM     28  N   UNL     1      43.486   5.395  12.049  0.00  0.00    +0.000 N 
ATOM     29  C   UNL     1      44.405   4.845  12.909  0.00  0.00    +0.000 A 
ATOM     30  O   UNL     1      44.181   3.790  13.491  0.00  0.00    +0.000 OA
ATOM     31  C   UNL     1      45.635   5.603  13.045  0.00  0.00    +0.000 A 
ATOM     32  H   UNL     1      42.622   4.886  11.933  0.00  0.00    +0.000 HD
ENDBRANCH  19  22
ENDBRANCH  17  18
ENDBRANCH   4  17
TORSDOF 5
ENDMDL
MODEL 4
REMARK VINA RESULT:    -7.632      2.092      2.593
REMARK INTER + INTRA:         -10.902
REMARK INTER:                  -9.857
REMARK INTRA:                  -1.045
REMARK UNBOUND:                -1.039
REMARK  Name = 
REMARK  6 active torsions:
REMARK  status: ('A' for Active; 'I' for Inactive)
REMARK    1  A    between atoms: C_1  and  N_2
REMARK    2  A    between atoms: C_7  and  C_8
REMARK    3  A    between atoms: C_8  and  C_9
REMARK    4  A    between atoms: C_12  and  C_13
REMARK    5  A    between atoms: C_13  and  N_14
REMARK    6  A    between atoms: C_15  and  C_17
REMARK                            x       y       z     vdW  Elec       q    Type
REMARK                         _______ _______ _______ _____ _____    ______ ____
ROOT
ATOM      1  C   UNL     1      45.159   5.646  11.498  0.00  0.00    +0.000 A 
ATOM      2  C   UNL     1      45.560   6.989  11.435  0.00  0.00    +0.000 A 
ATOM      3  C   UNL     1      46.561   7.476  12.281  0.00  0.00    +0.000 A 
ATOM      4  C   UNL     1      47.179   6.630  13.210  0.00  0.00    +0.000 A 
ATOM      5  C   UNL     1      46.730   5.307  13.321  0.00  0.00    +0.000 A 
ATOM      6  C   UNL     1      45.741   4.816  12.465  0.00  0.00    +0.000 A 
ENDROOT
BRANCH   1   7
ATOM      7  C   UNL     1      44.148   5.088  10.521  0.00  0.00    +0.000 C 
BRANCH   7  14
ATOM      8  C   UNL     1      47.048   3.181   5.591  0.00  0.00    +0.000 C 
ATOM      9  N   UNL     1      46.938   3.906   6.836  0.00  0.00    +0.000 N 
ATOM     10  C   UNL     1      46.070   3.441   7.812  0.00  0.00    +0.000 A 
ATOM     11  C   UNL     1      45.845   2.088   8.034  0.00  0.00    +0.000 A 
ATOM     12  C   UNL     1      44.982   1.696   9.051  0.00  0.00    +0.000 A 
ATOM     13  C   UNL     1      44.394   2.666   9.848  0.00  0.00    +0.000 A 
ATOM     14  C   UNL     1      44.681   4.005   9.602  0.00  0.00    +0.000 A 
ATOM     15  N   UNL     1      45.502   4.392   8.586  0.00  0.00    +0.000 NA
ATOM     16  H   UNL     1      46.792   4.909   6.759  0.00  0.00    +0.000 HD
ENDBRANCH   7  14
ENDBRANCH   1   7
BRANCH   4  17
ATOM     17  C   UNL     1      48.292   7.132  14.091  0.00  0.00    +0.000 C 
BRANCH  17  18
ATOM     18  N   UNL     1      48.106   6.719  15.458  0.00  0.00    +0.000 N 
ATOM     19  C   UNL     1      49.166   6.322  16.234  0.00  0.00    +0.000 C 
ATOM     20  O   UNL     1      50.322   6.343  15.815  0.00  0.00    +0.000 OA
ATOM     21  H   UNL     1      47.163   6.468  15.735  0.00  0.00    +0.000 HD
BRANCH  19  22
ATOM     22  C   UNL     1      48.855   5.944  17.614  0.00  0.00    +0.000 A 
ATOM     23  C   UNL     1      49.066   4.638  18.035  0.00  0.00    +0.000 A 
ATOM     24  S   UNL     1      48.731   4.389  19.689  0.00  0.00    +0.000 S 
ATOM     25  C   UNL     1      48.233   6.005  19.887  0.00  0.00    +0.000 A 
ATOM     26  N   UNL     1      47.799   6.460  21.093  0.00  0.00    +0.000 NA
ATOM     27  C   UNL     1      47.421   7.695  21.092  0.00  0.00    +0.000 A 
ATOM     28  N   UNL     1      47.438   8.517  19.993  0.00  0.00    +0.000 N 
ATOM     29  C   UNL     1      47.892   8.108  18.763  0.00  0.00    +0.000 A 
ATOM     30  O   UNL     1      47.926   8.876  17.808  0.00  0.00    +0.000 OA
ATOM     31  C   UNL     1      48.330   6.725  18.709  0.00  0.00    +0.000 A 
ATOM     32  H   UNL     1      47.130   9.476  20.058  0.00  0.00    +0.000 HD
ENDBRANCH  19  22
ENDBRANCH  17  18
ENDBRANCH   4  17
TORSDOF 5
ENDMDL
MODEL 5
REMARK VINA RESULT:    -7.301      4.342      9.407
REMARK INTER + INTRA:         -10.474
REMARK INTER:                  -9.558
REMARK INTRA:                  -0.915
REMARK UNBOUND:                -1.039
REMARK  Name = 
REMARK  6 active torsions:
REMARK  status: ('A' for Active; 'I' for Inactive)
REMARK    1  A    between atoms: C_1  and  N_2
REMARK    2  A    between atoms: C_7  and  C_8
REMARK    3  A    between atoms: C_8  and  C_9
REMARK    4  A    between atoms: C_12  and  C_13
REMARK    5  A    between atoms: C_13  and  N_14
REMARK    6  A    between atoms: C_15  and  C_17
REMARK                            x       y       z     vdW  Elec       q    Type
REMARK                         _______ _______ _______ _____ _____    ______ ____
ROOT
ATOM      1  C   UNL     1      51.662   3.250  17.968  0.00  0.00    +0.000 A 
ATOM      2  C   UNL     1      50.954   4.424  18.262  0.00  0.00    +0.000 A 
ATOM      3  C   UNL     1      49.592   4.529  17.965  0.00  0.00    +0.000 A 
ATOM      4  C   UNL     1      48.911   3.462  17.365  0.00  0.00    +0.000 A 
ATOM      5  C   UNL     1      49.635   2.316  17.008  0.00  0.00    +0.000 A 
ATOM      6  C   UNL     1      50.993   2.206  17.319  0.00  0.00    +0.000 A 
ENDROOT
BRANCH   1   7
ATOM      7  C   UNL     1      53.112   3.092  18.375  0.00  0.00    +0.000 C 
BRANCH   7  14
ATOM      8  C   UNL     1      54.153  -2.796  19.143  0.00  0.00    +0.000 C 
ATOM      9  N   UNL     1      53.308  -1.640  18.953  0.00  0.00    +0.000 N 
ATOM     10  C   UNL     1      53.808  -0.548  18.261  0.00  0.00    +0.000 A 
ATOM     11  C   UNL     1      54.682  -0.674  17.187  0.00  0.00    +0.000 A 
ATOM     12  C   UNL     1      55.119   0.465  16.523  0.00  0.00    +0.000 A 
ATOM     13  C   UNL     1      54.641   1.704  16.921  0.00  0.00    +0.000 A 
ATOM     14  C   UNL     1      53.742   1.770  17.982  0.00  0.00    +0.000 A 
ATOM     15  N   UNL     1      53.337   0.656  18.654  0.00  0.00    +0.000 NA
ATOM     16  H   UNL     1      52.847  -1.281  19.785  0.00  0.00    +0.000 HD
ENDBRANCH   7  14
ENDBRANCH   1   7
BRANCH   4  17
ATOM     17  C   UNL     1      47.434   3.546  17.087  0.00  0.00    +0.000 C 
BRANCH  17  18
ATOM     18  N   UNL     1      47.145   4.528  16.075  0.00  0.00    +0.000 N 
ATOM     19  C   UNL     1      47.147   4.202  14.742  0.00  0.00    +0.000 C 
ATOM     20  O   UNL     1      47.349   3.052  14.355  0.00  0.00    +0.000 OA
ATOM     21  H   UNL     1      47.216   5.503  16.350  0.00  0.00    +0.000 HD
BRANCH  19  22
ATOM     22  C   UNL     1      46.819   5.281  13.808  0.00  0.00    +0.000 A 
ATOM     23  C   UNL     1      45.679   5.189  13.021  0.00  0.00    +0.000 A 
ATOM     24  S   UNL     1      45.402   6.566  12.054  0.00  0.00    +0.000 S 
ATOM     25  C   UNL     1      46.829   7.310  12.607  0.00  0.00    +0.000 A 
ATOM     26  N   UNL     1      47.202   8.536  12.151  0.00  0.00    +0.000 NA
ATOM     27  C   UNL     1      48.322   8.965  12.629  0.00  0.00    +0.000 A 
ATOM     28  N   UNL     1      49.105   8.278  13.524  0.00  0.00    +0.000 N 
ATOM     29  C   UNL     1      48.756   7.050  14.030  0.00  0.00    +0.000 A 
ATOM     30  O   UNL     1      49.461   6.476  14.852  0.00  0.00    +0.000 OA
ATOM     31  C   UNL     1      47.502   6.521  13.524  0.00  0.00    +0.000 A 
ATOM     32  H   UNL     1      49.971   8.670  13.862  0.00  0.00    +0.000 HD
ENDBRANCH  19  22
ENDBRANCH  17  18
ENDBRANCH   4  17
TORSDOF 5
ENDMDL
MODEL 6
REMARK VINA RESULT:    -7.265      2.149      3.874
REMARK INTER + INTRA:         -10.427
REMARK INTER:                 -10.172
REMARK INTRA:                  -0.255
REMARK UNBOUND:                -1.039
REMARK  Name = 
REMARK  6 active torsions:
REMARK  status: ('A' for Active; 'I' for Inactive)
REMARK    1  A    between atoms: C_1  and  N_2
REMARK    2  A    between atoms: C_7  and  C_8
REMARK    3  A    between atoms: C_8  and  C_9
REMARK    4  A    between atoms: C_12  and  C_13
REMARK    5  A    between atoms: C_13  and  N_14
REMARK    6  A    between atoms: C_15  and  C_17
REMARK                            x       y       z     vdW  Elec       q    Type
REMARK                         _______ _______ _______ _____ _____    ______ ____
ROOT
ATOM      1  C   UNL     1      45.572   4.366   8.693  0.00  0.00    +0.000 A 
ATOM      2  C   UNL     1      45.903   5.461   9.506  0.00  0.00    +0.000 A 
ATOM      3  C   UNL     1      45.460   5.526  10.830  0.00  0.00    +0.000 A 
ATOM      4  C   UNL     1      44.674   4.500  11.368  0.00  0.00    +0.000 A 
ATOM      5  C   UNL     1      44.285   3.441  10.535  0.00  0.00    +0.000 A 
ATOM      6  C   UNL     1      44.741   3.368   9.217  0.00  0.00    +0.000 A 
ENDROOT
BRANCH   1   7
ATOM      7  C   UNL     1      46.129   4.239   7.291  0.00  0.00    +0.000 C 
BRANCH   7  14
ATOM      8  C   UNL     1      46.798  -0.087   3.147  0.00  0.00    +0.000 C 
ATOM      9  N   UNL     1      47.085   1.197   3.743  0.00  0.00    +0.000 N 
ATOM     10  C   UNL     1      46.939   1.351   5.113  0.00  0.00    +0.000 A 
ATOM     11  C   UNL     1      47.229   0.337   6.018  0.00  0.00    +0.000 A 
ATOM     12  C   UNL     1      47.087   0.574   7.380  0.00  0.00    +0.000 A 
ATOM     13  C   UNL     1      46.695   1.833   7.808  0.00  0.00    +0.000 A 
ATOM     14  C   UNL     1      46.449   2.821   6.859  0.00  0.00    +0.000 A 
ATOM     15  N   UNL     1      46.559   2.581   5.523  0.00  0.00    +0.000 NA
ATOM     16  H   UNL     1      46.647   2.003   3.303  0.00  0.00    +0.000 HD
ENDBRANCH   7  14
ENDBRANCH   1   7
BRANCH   4  17
ATOM     17  C   UNL     1      44.233   4.537  12.807  0.00  0.00    +0.000 C 
BRANCH  17  18
ATOM     18  N   UNL     1      45.259   5.084  13.656  0.00  0.00    +0.000 N 
ATOM     19  C   UNL     1      46.329   4.328  14.062  0.00  0.00    +0.000 C 
ATOM     20  O   UNL     1      46.484   3.168  13.685  0.00  0.00    +0.000 OA
ATOM     21  H   UNL     1      45.028   5.935  14.160  0.00  0.00    +0.000 HD
BRANCH  19  22
ATOM     22  C   UNL     1      47.317   5.001  14.908  0.00  0.00    +0.000 A 
ATOM     23  C   UNL     1      47.462   4.618  16.235  0.00  0.00    +0.000 A 
ATOM     24  S   UNL     1      48.711   5.445  17.052  0.00  0.00    +0.000 S 
ATOM     25  C   UNL     1      49.062   6.387  15.678  0.00  0.00    +0.000 A 
ATOM     26  N   UNL     1      50.044   7.327  15.706  0.00  0.00    +0.000 NA
ATOM     27  C   UNL     1      50.180   7.990  14.606  0.00  0.00    +0.000 A 
ATOM     28  N   UNL     1      49.420   7.797  13.479  0.00  0.00    +0.000 N 
ATOM     29  C   UNL     1      48.436   6.843  13.397  0.00  0.00    +0.000 A 
ATOM     30  O   UNL     1      47.797   6.673  12.365  0.00  0.00    +0.000 OA
ATOM     31  C   UNL     1      48.242   6.068  14.609  0.00  0.00    +0.000 A 
ATOM     32  H   UNL     1      49.578   8.348  12.649  0.00  0.00    +0.000 HD
ENDBRANCH  19  22
ENDBRANCH  17  18
ENDBRANCH   4  17
TORSDOF 5
ENDMDL
MODEL 7
REMARK VINA RESULT:    -6.972      3.572      6.276
REMARK INTER + INTRA:         -10.049
REMARK INTER:                  -9.006
REMARK INTRA:                  -1.043
REMARK UNBOUND:                -1.039
REMARK  Name = 
REMARK  6 active torsions:
REMARK  status: ('A' for Active; 'I' for Inactive)
REMARK    1  A    between atoms: C_1  and  N_2
REMARK    2  A    between atoms: C_7  and  C_8
REMARK    3  A    between atoms: C_8  and  C_9
REMARK    4  A    between atoms: C_12  and  C_13
REMARK    5  A    between atoms: C_13  and  N_14
REMARK    6  A    between atoms: C_15  and  C_17
REMARK                            x       y       z     vdW  Elec       q    Type
REMARK                         _______ _______ _______ _____ _____    ______ ____
ROOT
ATOM      1  C   UNL     1      44.649   9.033  11.480  0.00  0.00    +0.000 A 
ATOM      2  C   UNL     1      45.646   8.932  12.461  0.00  0.00    +0.000 A 
ATOM      3  C   UNL     1      46.024   7.685  12.969  0.00  0.00    +0.000 A 
ATOM      4  C   UNL     1      45.410   6.514  12.508  0.00  0.00    +0.000 A 
ATOM      5  C   UNL     1      44.366   6.621  11.579  0.00  0.00    +0.000 A 
ATOM      6  C   UNL     1      43.998   7.866  11.061  0.00  0.00    +0.000 A 
ENDROOT
BRANCH   1   7
ATOM      7  C   UNL     1      44.302  10.367  10.856  0.00  0.00    +0.000 C 
BRANCH   7  14
ATOM      8  C   UNL     1      39.518  12.256  14.001  0.00  0.00    +0.000 C 
ATOM      9  N   UNL     1      40.869  12.364  13.498  0.00  0.00    +0.000 N 
ATOM     10  C   UNL     1      41.184  11.775  12.283  0.00  0.00    +0.000 A 
ATOM     11  C   UNL     1      40.289  11.717  11.221  0.00  0.00    +0.000 A 
ATOM     12  C   UNL     1      40.686  11.135  10.024  0.00  0.00    +0.000 A 
ATOM     13  C   UNL     1      41.982  10.660   9.901  0.00  0.00    +0.000 A 
ATOM     14  C   UNL     1      42.846  10.772  10.986  0.00  0.00    +0.000 A 
ATOM     15  N   UNL     1      42.449  11.315  12.171  0.00  0.00    +0.000 NA
ATOM     16  H   UNL     1      41.610  12.122  14.150  0.00  0.00    +0.000 HD
ENDBRANCH   7  14
ENDBRANCH   1   7
BRANCH   4  17
ATOM     17  C   UNL     1      45.844   5.164  13.011  0.00  0.00    +0.000 C 
BRANCH  17  18
ATOM     18  N   UNL     1      46.440   5.257  14.319  0.00  0.00    +0.000 N 
ATOM     19  C   UNL     1      47.123   4.202  14.870  0.00  0.00    +0.000 C 
ATOM     20  O   UNL     1      47.295   3.150  14.257  0.00  0.00    +0.000 OA
ATOM     21  H   UNL     1      46.108   6.005  14.919  0.00  0.00    +0.000 HD
BRANCH  19  22
ATOM     22  C   UNL     1      47.700   4.423  16.197  0.00  0.00    +0.000 A 
ATOM     23  C   UNL     1      47.324   3.609  17.256  0.00  0.00    +0.000 A 
ATOM     24  S   UNL     1      48.152   3.950  18.708  0.00  0.00    +0.000 S 
ATOM     25  C   UNL     1      49.000   5.237  17.987  0.00  0.00    +0.000 A 
ATOM     26  N   UNL     1      49.887   5.979  18.703  0.00  0.00    +0.000 NA
ATOM     27  C   UNL     1      50.433   6.944  18.040  0.00  0.00    +0.000 A 
ATOM     28  N   UNL     1      50.171   7.235  16.724  0.00  0.00    +0.000 N 
ATOM     29  C   UNL     1      49.303   6.498  15.957  0.00  0.00    +0.000 A 
ATOM     30  O   UNL     1      49.115   6.763  14.775  0.00  0.00    +0.000 OA
ATOM     31  C   UNL     1      48.661   5.399  16.654  0.00  0.00    +0.000 A 
ATOM     32  H   UNL     1      50.633   8.003  16.262  0.00  0.00    +0.000 HD
ENDBRANCH  19  22
ENDBRANCH  17  18
ENDBRANCH   4  17
TORSDOF 5
ENDMDL
MODEL 8
REMARK VINA RESULT:    -6.941      3.551      8.659
REMARK INTER + INTRA:         -10.009
REMARK INTER:                  -8.994
REMARK INTRA:                  -1.016
REMARK UNBOUND:                -1.039
REMARK  Name = 
REMARK  6 active torsions:
REMARK  status: ('A' for Active; 'I' for Inactive)
REMARK    1  A    between atoms: C_1  and  N_2
REMARK    2  A    between atoms: C_7  and  C_8
REMARK    3  A    between atoms: C_8  and  C_9
REMARK    4  A    between atoms: C_12  and  C_13
REMARK    5  A    between atoms: C_13  and  N_14
REMARK    6  A    between atoms: C_15  and  C_17
REMARK                            x       y       z     vdW  Elec       q    Type
REMARK                         _______ _______ _______ _____ _____    ______ ____
ROOT
ATOM      1  C   UNL     1      50.887   5.929  17.644  0.00  0.00    +0.000 A 
ATOM      2  C   UNL     1      49.523   6.143  17.887  0.00  0.00    +0.000 A 
ATOM      3  C   UNL     1      48.735   6.842  16.968  0.00  0.00    +0.000 A 
ATOM      4  C   UNL     1      49.298   7.344  15.788  0.00  0.00    +0.000 A 
ATOM      5  C   UNL     1      50.675   7.190  15.578  0.00  0.00    +0.000 A 
ATOM      6  C   UNL     1      51.459   6.478  16.490  0.00  0.00    +0.000 A 
ENDROOT
BRANCH   1   7
ATOM      7  C   UNL     1      51.725   5.089  18.585  0.00  0.00    +0.000 C 
BRANCH   7  14
ATOM      8  C   UNL     1      54.813  -0.069  18.135  0.00  0.00    +0.000 C 
ATOM      9  N   UNL     1      54.228   1.037  18.858  0.00  0.00    +0.000 N 
ATOM     10  C   UNL     1      53.097   1.654  18.345  0.00  0.00    +0.000 A 
ATOM     11  C   UNL     1      52.104   0.958  17.665  0.00  0.00    +0.000 A 
ATOM     12  C   UNL     1      50.985   1.639  17.204  0.00  0.00    +0.000 A 
ATOM     13  C   UNL     1      50.863   2.995  17.468  0.00  0.00    +0.000 A 
ATOM     14  C   UNL     1      51.873   3.635  18.181  0.00  0.00    +0.000 A 
ATOM     15  N   UNL     1      52.985   2.975  18.607  0.00  0.00    +0.000 NA
ATOM     16  H   UNL     1      54.867   1.774  19.143  0.00  0.00    +0.000 HD
ENDBRANCH   7  14
ENDBRANCH   1   7
BRANCH   4  17
ATOM     17  C   UNL     1      48.448   8.055  14.768  0.00  0.00    +0.000 C 
BRANCH  17  18
ATOM     18  N   UNL     1      47.407   7.198  14.263  0.00  0.00    +0.000 N 
ATOM     19  C   UNL     1      47.665   6.244  13.311  0.00  0.00    +0.000 C 
ATOM     20  O   UNL     1      48.800   6.047  12.881  0.00  0.00    +0.000 OA
ATOM     21  H   UNL     1      46.451   7.501  14.420  0.00  0.00    +0.000 HD
BRANCH  19  22
ATOM     22  C   UNL     1      46.529   5.421  12.891  0.00  0.00    +0.000 A 
ATOM     23  C   UNL     1      46.580   4.043  13.053  0.00  0.00    +0.000 A 
ATOM     24  S   UNL     1      45.144   3.247  12.590  0.00  0.00    +0.000 S 
ATOM     25  C   UNL     1      44.426   4.710  12.100  0.00  0.00    +0.000 A 
ATOM     26  N   UNL     1      43.169   4.733  11.581  0.00  0.00    +0.000 NA
ATOM     27  C   UNL     1      42.762   5.904  11.220  0.00  0.00    +0.000 A 
ATOM     28  N   UNL     1      43.500   7.057  11.332  0.00  0.00    +0.000 N 
ATOM     29  C   UNL     1      44.762   7.085  11.873  0.00  0.00    +0.000 A 
ATOM     30  O   UNL     1      45.382   8.135  11.988  0.00  0.00    +0.000 OA
ATOM     31  C   UNL     1      45.268   5.791  12.296  0.00  0.00    +0.000 A 
ATOM     32  H   UNL     1      43.123   7.944  11.032  0.00  0.00    +0.000 HD
ENDBRANCH  19  22
ENDBRANCH  17  18
ENDBRANCH   4  17
TORSDOF 5
ENDMDL
MODEL 9
REMARK VINA RESULT:    -6.650      3.507      8.155
REMARK INTER + INTRA:          -9.633
REMARK INTER:                  -8.542
REMARK INTRA:                  -1.092
REMARK UNBOUND:                -1.039
REMARK  Name = 
REMARK  6 active torsions:
REMARK  status: ('A' for Active; 'I' for Inactive)
REMARK    1  A    between atoms: C_1  and  N_2
REMARK    2  A    between atoms: C_7  and  C_8
REMARK    3  A    between atoms: C_8  and  C_9
REMARK    4  A    between atoms: C_12  and  C_13
REMARK    5  A    between atoms: C_13  and  N_14
REMARK    6  A    between atoms: C_15  and  C_17
REMARK                            x       y       z     vdW  Elec       q    Type
REMARK                         _______ _______ _______ _____ _____    ______ ____
ROOT
ATOM      1  C   UNL     1      50.220   6.380  17.496  0.00  0.00    +0.000 A 
ATOM      2  C   UNL     1      49.033   7.077  17.762  0.00  0.00    +0.000 A 
ATOM      3  C   UNL     1      48.429   7.861  16.774  0.00  0.00    +0.000 A 
ATOM      4  C   UNL     1      49.003   7.966  15.501  0.00  0.00    +0.000 A 
ATOM      5  C   UNL     1      50.225   7.325  15.257  0.00  0.00    +0.000 A 
ATOM      6  C   UNL     1      50.820   6.529  16.240  0.00  0.00    +0.000 A 
ENDROOT
BRANCH   1   7
ATOM      7  C   UNL     1      50.827   5.452  18.527  0.00  0.00    +0.000 C 
BRANCH   7  14
ATOM      8  C   UNL     1      54.149   0.499  17.650  0.00  0.00    +0.000 C 
ATOM      9  N   UNL     1      53.565   1.546  18.456  0.00  0.00    +0.000 N 
ATOM     10  C   UNL     1      52.364   2.112  18.056  0.00  0.00    +0.000 A 
ATOM     11  C   UNL     1      51.359   1.380  17.433  0.00  0.00    +0.000 A 
ATOM     12  C   UNL     1      50.170   2.009  17.087  0.00  0.00    +0.000 A 
ATOM     13  C   UNL     1      49.995   3.347  17.407  0.00  0.00    +0.000 A 
ATOM     14  C   UNL     1      51.022   4.023  18.060  0.00  0.00    +0.000 A 
ATOM     15  N   UNL     1      52.200   3.415  18.373  0.00  0.00    +0.000 NA
ATOM     16  H   UNL     1      54.183   2.310  18.715  0.00  0.00    +0.000 HD
ENDBRANCH   7  14
ENDBRANCH   1   7
BRANCH   4  17
ATOM     17  C   UNL     1      48.334   8.766  14.415  0.00  0.00    +0.000 C 
BRANCH  17  18
ATOM     18  N   UNL     1      47.165   8.095  13.912  0.00  0.00    +0.000 N 
ATOM     19  C   UNL     1      47.215   7.329  12.773  0.00  0.00    +0.000 C 
ATOM     20  O   UNL     1      48.265   7.146  12.160  0.00  0.00    +0.000 OA
ATOM     21  H   UNL     1      46.267   8.423  14.254  0.00  0.00    +0.000 HD
BRANCH  19  22
ATOM     22  C   UNL     1      45.965   6.680  12.371  0.00  0.00    +0.000 A 
ATOM     23  C   UNL     1      44.944   7.438  11.815  0.00  0.00    +0.000 A 
ATOM     24  S   UNL     1      43.595   6.514  11.328  0.00  0.00    +0.000 S 
ATOM     25  C   UNL     1      44.304   5.076  11.899  0.00  0.00    +0.000 A 
ATOM     26  N   UNL     1      43.652   3.886  11.800  0.00  0.00    +0.000 NA
ATOM     27  C   UNL     1      44.291   2.884  12.303  0.00  0.00    +0.000 A 
ATOM     28  N   UNL     1      45.526   2.963  12.899  0.00  0.00    +0.000 N 
ATOM     29  C   UNL     1      46.231   4.137  12.998  0.00  0.00    +0.000 A 
ATOM     30  O   UNL     1      47.346   4.170  13.507  0.00  0.00    +0.000 OA
ATOM     31  C   UNL     1      45.556   5.298  12.446  0.00  0.00    +0.000 A 
ATOM     32  H   UNL     1      45.974   2.140  13.273  0.00  0.00    +0.000 HD
ENDBRANCH  19  22
ENDBRANCH  17  18
ENDBRANCH   4  17
TORSDOF 5
ENDMDL
